REMARK  Name = ZINCqH0000005sxp.0
REMARK                            x       y       z     vdW  Elec       q    Type
REMARK                         _______ _______ _______ _____ _____    ______ ____
ROOT
ATOM      1  N   LIG    1        0.002  -0.004   0.002  0.00  0.00    -0.670 N 
ATOM      2  H   LIG    1       -0.827  -0.501   0.082  0.00  0.00    +0.410 HD
ATOM      3  C   LIG    1       -0.016   1.344   0.007  0.00  0.00    +0.560 C 
ATOM      4  O   LIG    1        1.028   1.966  -0.008  0.00  0.00    -0.500 OA
ENDROOT
BRANCH   1   9
ATOM      5  C   LIG    1        3.573  -0.853   0.340  0.00  0.00    -0.120 A 
ATOM      6  C   LIG    1        3.620  -2.054  -0.369  0.00  0.00    +0.030 A 
ATOM      7  C   LIG    1        2.473  -2.561  -0.946  0.00  0.00    +0.030 A 
ATOM      8  C   LIG    1        1.274  -1.886  -0.818  0.00  0.00    +0.010 A 
ATOM      9  C   LIG    1        1.217  -0.686  -0.119  0.00  0.00    +0.140 A 
ATOM     10  C   LIG    1        2.364  -0.169   0.464  0.00  0.00    +0.090 A 
BRANCH   5  14
ATOM     11  C   LIG    1        7.184  -0.430   1.450  0.00  0.00    +0.290 C 
ATOM     12  N   LIG    1        5.968  -0.971   0.838  0.00  0.00    -0.730 N 
ATOM     13  H   LIG    1        6.002  -1.806   0.345  0.00  0.00    +0.400 HD
ATOM     14  C   LIG    1        4.800  -0.308   0.958  0.00  0.00    +0.560 C 
ATOM     15  O   LIG    1        4.757   0.739   1.575  0.00  0.00    -0.530 OA
ENDBRANCH   5  14
ENDBRANCH   1   9
BRANCH   3  16
ATOM     16  C   LIG    1       -1.305   2.064   0.025  0.00  0.00    -0.130 A 
ATOM     17  C   LIG    1       -2.506   1.350   0.032  0.00  0.00    +0.070 A 
ATOM     18  C   LIG    1       -3.706   2.026   0.053  0.00  0.00    +0.020 A 
ATOM     19  C   LIG    1       -3.723   3.416   0.059  0.00  0.00    +0.150 A 
ATOM     20  C   LIG    1       -2.530   4.130   0.048  0.00  0.00    +0.020 A 
ATOM     21  C   LIG    1       -1.326   3.461   0.031  0.00  0.00    +0.110 A 
BRANCH  19  22
ATOM     22  N   LIG    1       -4.943   4.098   0.074  0.00  0.00    -0.410 N 
ATOM     23  C   LIG    1       -5.401   4.889   1.091  0.00  0.00    +0.020 A 
ATOM     24  C   LIG    1       -6.609   5.372   0.737  0.00  0.00    -0.050 A 
ATOM     25  C   LIG    1       -6.914   4.857  -0.540  0.00  0.00    -0.050 A 
ATOM     26  C   LIG    1       -4.679   5.173   2.383  0.00  0.00    +0.120 C 
ATOM     27  C   LIG    1       -5.879   4.081  -0.921  0.00  0.00    +0.020 A 
ATOM     28  C   LIG    1       -5.772   3.327  -2.221  0.00  0.00    +0.120 C 
ENDBRANCH  19  22
ENDBRANCH   3  16
TORSDOF 4
