REMARK  Name = ZINCrH000004pYiQ.0
REMARK                            x       y       z     vdW  Elec       q    Type
REMARK                         _______ _______ _______ _____ _____    ______ ____
ROOT
ATOM      1  C   LIG    1       -5.090   3.830  -3.278  0.00  0.00    +0.500 C 
ATOM      2  N   LIG    1       -4.908   3.212  -2.095  0.00  0.00    -0.700 N 
ATOM      3  H   LIG    1       -5.154   3.659  -1.270  0.00  0.00    +0.400 HD
ATOM      4  O   LIG    1       -4.783   3.270  -4.309  0.00  0.00    -0.510 OA
ENDROOT
BRANCH   2   5
ATOM      5  C   LIG    1       -4.338   1.862  -2.054  0.00  0.00    +0.250 C 
ATOM      6  C   LIG    1       -4.681   0.988  -0.847  0.00  0.00    -0.030 C 
ATOM      7  C   LIG    1       -4.800  -0.525  -1.085  0.00  0.00    +0.070 C 
ATOM      8  C   LIG    1       -3.945  -0.885  -2.309  0.00  0.00    +0.070 C 
ATOM      9  C   LIG    1       -2.500  -0.579  -1.999  0.00  0.00    -0.080 A 
ATOM     10  C   LIG    1       -1.508  -1.478  -2.332  0.00  0.00    +0.010 A 
ATOM     11  C   LIG    1       -0.187  -1.189  -2.040  0.00  0.00    +0.000 A 
ATOM     12  C   LIG    1        0.138  -0.002  -1.409  0.00  0.00    +0.000 A 
ATOM     13  C   LIG    1       -0.857   0.896  -1.070  0.00  0.00    +0.010 A 
ATOM     14  C   LIG    1       -2.175   0.607  -1.361  0.00  0.00    -0.050 A 
ATOM     15  C   LIG    1       -3.270   1.579  -0.995  0.00  0.00    +0.000 C 
ENDBRANCH   2   5
BRANCH   1  17
ATOM     16  C   LIG    1       -4.561   6.248  -3.134  0.00  0.00    +0.110 C 
ATOM     17  C   LIG    1       -5.676   5.218  -3.320  0.00  0.00    +0.150 C 
BRANCH  17  18
ATOM     18  C   LIG    1       -6.348   5.439  -4.651  0.00  0.00    -0.040 A 
ATOM     19  C   LIG    1       -5.775   6.285  -5.582  0.00  0.00    +0.040 A 
ATOM     20  C   LIG    1       -6.391   6.488  -6.803  0.00  0.00    +0.060 A 
ATOM     21  C   LIG    1       -7.580   5.846  -7.092  0.00  0.00    +0.030 A 
ATOM     22  C   LIG    1       -8.153   5.000  -6.161  0.00  0.00    +0.070 A 
ATOM     23  C   LIG    1       -7.535   4.792  -4.943  0.00  0.00    -0.170 A 
BRANCH  23  24
ATOM     24  C   LIG    1       -8.156   3.865  -3.930  0.00  0.00    +0.500 C 
ATOM     25  F   LIG    1       -8.617   4.609  -2.838  0.00  0.00    -0.160 F 
ATOM     26  F   LIG    1       -7.200   2.942  -3.495  0.00  0.00    -0.170 F 
ATOM     27  F   LIG    1       -9.228   3.185  -4.517  0.00  0.00    -0.170 F 
ENDBRANCH  23  24
ENDBRANCH  17  18
BRANCH  17  28
ATOM     28  O   LIG    1       -6.637   5.362  -2.272  0.00  0.00    -0.540 OA
ATOM     29  H   LIG    1       -7.050   4.530  -2.000  0.00  0.00    +0.380 HD
ENDBRANCH  17  28
ENDBRANCH   1  17
TORSDOF 5
