REMARK  Name = ZINCtV00000L6kCh.0
REMARK                            x       y       z     vdW  Elec       q    Type
REMARK                         _______ _______ _______ _____ _____    ______ ____
ROOT
ATOM      1  N   LIG    1       -0.698   1.558   1.213  0.00  0.00    -0.480 N 
ATOM      2  C   LIG    1       -1.711   0.905   1.888  0.00  0.00    +0.050 A 
ATOM      3  C   LIG    1       -2.378  -0.297   1.701  0.00  0.00    +0.010 A 
ATOM      4  C   LIG    1       -3.371  -0.671   2.582  0.00  0.00    +0.030 A 
ATOM      5  C   LIG    1       -3.707   0.146   3.651  0.00  0.00    +0.000 A 
ATOM      6  C   LIG    1       -3.061   1.334   3.850  0.00  0.00    +0.070 A 
ATOM      7  C   LIG    1       -2.051   1.733   2.972  0.00  0.00    +0.050 A 
ATOM      8  N   LIG    1       -1.246   2.825   2.904  0.00  0.00    -0.480 NA
ATOM      9  C   LIG    1       -0.452   2.719   1.879  0.00  0.00    +0.300 A 
ENDROOT
BRANCH   9  10
ATOM     10  C   LIG    1        0.588   3.736   1.484  0.00  0.00    +0.120 C 
ATOM     11  C   LIG    1        1.595   3.905   2.623  0.00  0.00    +0.060 C 
BRANCH  10  12
ATOM     12  C   LIG    1       -0.083   5.057   1.207  0.00  0.00    -0.090 A 
ATOM     13  C   LIG    1       -0.810   5.685   2.200  0.00  0.00    +0.050 A 
ATOM     14  C   LIG    1       -1.421   6.899   1.948  0.00  0.00    +0.000 A 
ATOM     15  C   LIG    1       -1.313   7.481   0.698  0.00  0.00    -0.070 A 
ATOM     16  C   LIG    1       -0.589   6.851  -0.297  0.00  0.00    +0.000 A 
ATOM     17  C   LIG    1        0.026   5.639  -0.043  0.00  0.00    +0.010 A 
BRANCH  15  18
ATOM     18  C   LIG    1       -1.983   8.802   0.421  0.00  0.00    +0.060 C 
BRANCH  18  19
ATOM     19  C   LIG    1       -3.400   8.555  -0.100  0.00  0.00    -0.020 C 
ATOM     20  C   LIG    1       -4.036   9.889  -0.498  0.00  0.00    +0.020 C 
ATOM     21  C   LIG    1       -4.240   7.898   0.998  0.00  0.00    +0.010 C 
ENDBRANCH  18  19
ENDBRANCH  15  18
ENDBRANCH  10  12
ENDBRANCH   9  10
BRANCH   1  22
ATOM     22  C   LIG    1       -0.013   1.086   0.008  0.00  0.00    +0.350 C 
BRANCH  22  27
ATOM     23  C   LIG    1       -2.807   3.000  -4.674  0.00  0.00    +0.090 C 
ATOM     24  C   LIG    1       -2.078   2.501  -3.453  0.00  0.00    -0.070 A 
ATOM     25  C   LIG    1       -1.067   3.259  -2.894  0.00  0.00    +0.000 A 
ATOM     26  C   LIG    1       -0.398   2.801  -1.774  0.00  0.00    +0.030 A 
ATOM     27  C   LIG    1       -0.742   1.585  -1.213  0.00  0.00    -0.120 A 
ATOM     28  C   LIG    1       -1.750   0.825  -1.775  0.00  0.00    +0.030 A 
ATOM     29  C   LIG    1       -2.421   1.285  -2.892  0.00  0.00    +0.000 A 
ENDBRANCH  22  27
ENDBRANCH   1  22
TORSDOF 6
