REMARK  Name = ZINCrg000000soy8.0
REMARK                            x       y       z     vdW  Elec       q    Type
REMARK                         _______ _______ _______ _____ _____    ______ ____
ROOT
ATOM      1  C   LIG    1        1.080   3.489   0.472  0.00  0.00    +0.140 C 
ATOM      2  C   LIG    1        1.124   2.003   0.221  0.00  0.00    +0.230 A 
ATOM      3  C   LIG    1        2.319   1.386  -0.006  0.00  0.00    -0.320 A 
ATOM      4  C   LIG    1        2.334  -0.001  -0.238  0.00  0.00    +0.550 A 
ATOM      5  N   LIG    1        1.164  -0.673  -0.229  0.00  0.00    -0.660 N 
ATOM      6  H   LIG    1        1.151  -1.630  -0.387  0.00  0.00    +0.410 HD
ATOM      7  C   LIG    1        0.002  -0.004   0.002  0.00  0.00    +0.640 A 
ATOM      8  O   LIG    1        3.386  -0.585  -0.444  0.00  0.00    -0.540 OA
ATOM      9  N   LIG    1       -0.004   1.296   0.220  0.00  0.00    -0.590 NA
ENDROOT
BRANCH   7  10
ATOM     10  N   LIG    1       -1.181  -0.693   0.010  0.00  0.00    -0.590 N 
ATOM     11  C   LIG    1       -1.205  -2.159  -0.114  0.00  0.00    +0.250 C 
ATOM     12  C   LIG    1       -2.076  -2.722   1.021  0.00  0.00    +0.220 C 
ATOM     13  O   LIG    1       -3.345  -2.063   1.008  0.00  0.00    -0.370 OA
ATOM     14  C   LIG    1       -3.276  -0.656   1.253  0.00  0.00    +0.210 C 
ATOM     15  C   LIG    1       -2.467   0.011   0.136  0.00  0.00    +0.290 C 
ENDBRANCH   7  10
BRANCH   3  16
ATOM     16  C   LIG    1        3.602   2.177  -0.006  0.00  0.00    +0.130 C 
BRANCH  16  17
ATOM     17  C   LIG    1        4.246   2.105   1.379  0.00  0.00    +0.050 C 
BRANCH  17  18
ATOM     18  C   LIG    1        5.529   2.896   1.379  0.00  0.00    +0.510 C 
ATOM     19  N   LIG    1        6.272   2.975   2.501  0.00  0.00    -0.730 N 
ATOM     20  H   LIG    1        5.981   2.522   3.308  0.00  0.00    +0.400 HD
ATOM     21  O   LIG    1        5.892   3.462   0.370  0.00  0.00    -0.540 OA
BRANCH  19  22
ATOM     22  C   LIG    1        7.519   3.744   2.500  0.00  0.00    +0.260 C 
BRANCH  22  23
ATOM     23  C   LIG    1        8.163   3.671   3.886  0.00  0.00    +0.030 C 
BRANCH  23  24
ATOM     24  C   LIG    1        9.465   4.474   3.886  0.00  0.00    +0.170 C 
BRANCH  24  25
ATOM     25  O   LIG    1       10.067   4.407   5.180  0.00  0.00    -0.390 OA
BRANCH  25  26
ATOM     26  C   LIG    1       11.296   5.128   5.288  0.00  0.00    +0.170 C 
BRANCH  26  27
ATOM     27  C   LIG    1       11.847   4.987   6.709  0.00  0.00    -0.020 C 
ATOM     28  C   LIG    1       10.893   5.663   7.695  0.00  0.00    +0.010 C 
ATOM     29  C   LIG    1       13.222   5.653   6.791  0.00  0.00    +0.030 C 
ENDBRANCH  26  27
ENDBRANCH  25  26
ENDBRANCH  24  25
ENDBRANCH  23  24
ENDBRANCH  22  23
ENDBRANCH  19  22
ENDBRANCH  17  18
ENDBRANCH  16  17
ENDBRANCH   3  16
TORSDOF 10
