REMARK  Name = ZINCnE000001N80D.0
REMARK                            x       y       z     vdW  Elec       q    Type
REMARK                         _______ _______ _______ _____ _____    ______ ____
ROOT
ATOM      1  C   LIG    1       -0.497   1.529   1.716  0.00  0.00    +0.020 C 
ATOM      2  C   LIG    1        0.004   1.249   0.298  0.00  0.00    +0.170 C 
ATOM      3  C   LIG    1        0.040  -0.270   0.045  0.00  0.00    +0.030 C 
ATOM      4  C   LIG    1        1.526  -0.599  -0.226  0.00  0.00    +0.040 C 
ATOM      5  C   LIG    1        2.271   0.587   0.437  0.00  0.00    +0.190 C 
ATOM      6  N   LIG    1        1.389   1.747   0.146  0.00  0.00    -0.460 N 
ENDROOT
BRANCH   3   7
ATOM      7  C   LIG    1       -0.802  -0.620  -1.154  0.00  0.00    -0.050 A 
ATOM      8  C   LIG    1       -1.875  -1.480  -1.017  0.00  0.00    +0.040 A 
ATOM      9  C   LIG    1       -2.650  -1.803  -2.115  0.00  0.00    +0.020 A 
ATOM     10  C   LIG    1       -2.352  -1.264  -3.354  0.00  0.00    +0.060 A 
ATOM     11  C   LIG    1       -1.276  -0.400  -3.492  0.00  0.00    +0.070 A 
ATOM     12  F   LIG    1       -0.983   0.127  -4.701  0.00  0.00    -0.130 F 
ATOM     13  F   LIG    1       -3.109  -1.578  -4.428  0.00  0.00    -0.130 F 
ATOM     14  C   LIG    1       -0.505  -0.075  -2.390  0.00  0.00    +0.030 A 
ENDBRANCH   3   7
BRANCH   6  15
ATOM     15  C   LIG    1        1.639   2.791   1.019  0.00  0.00    +0.270 A 
ATOM     16  C   LIG    1        1.635   4.101   0.542  0.00  0.00    -0.030 A 
ATOM     17  C   LIG    1        1.878   5.131   1.409  0.00  0.00    +0.100 A 
ATOM     18  C   LIG    1        2.135   4.828   2.756  0.00  0.00    -0.180 A 
ATOM     19  C   LIG    1        2.127   3.490   3.163  0.00  0.00    +0.290 A 
ATOM     20  N   LIG    1        1.884   2.530   2.297  0.00  0.00    -0.520 NA
BRANCH  18  21
ATOM     21  C   LIG    1        2.407   5.902   3.725  0.00  0.00    +0.520 C 
ATOM     22  O   LIG    1        2.412   7.069   3.359  0.00  0.00    -0.680 OA
ATOM     23  O   LIG    1        2.629   5.627   4.896  0.00  0.00    -0.680 OA
ENDBRANCH  18  21
ENDBRANCH   6  15
TORSDOF 3
