REMARK  Name = ZINCvU0000000JzQ.0
REMARK                            x       y       z     vdW  Elec       q    Type
REMARK                         _______ _______ _______ _____ _____    ______ ____
ROOT
ATOM      1  C   LIG    1        7.133  -0.099  -3.513  0.00  0.00    +0.210 C 
ENDROOT
BRANCH   1   2
ATOM      2  C   LIG    1        8.282   0.718  -4.046  0.00  0.00    +0.200 A 
ATOM      3  N   LIG    1        9.538   0.549  -3.737  0.00  0.00    -0.470 NA
ATOM      4  C   LIG    1       10.274   1.452  -4.402  0.00  0.00    +0.170 A 
ATOM      5  C   LIG    1        9.423   2.208  -5.142  0.00  0.00    -0.000 A 
ATOM      6  O   LIG    1        8.178   1.737  -4.909  0.00  0.00    -0.190 OA
BRANCH   5   7
ATOM      7  C   LIG    1        9.788   3.330  -6.032  0.00  0.00    -0.020 A 
ATOM      8  C   LIG    1        8.799   4.015  -6.739  0.00  0.00    +0.030 A 
ATOM      9  C   LIG    1        9.146   5.066  -7.563  0.00  0.00    +0.020 A 
ATOM     10  C   LIG    1       10.473   5.433  -7.699  0.00  0.00    -0.070 A 
ATOM     11  C   LIG    1       11.459   4.754  -7.005  0.00  0.00    +0.020 A 
ATOM     12  C   LIG    1       11.125   3.706  -6.173  0.00  0.00    +0.040 A 
BRANCH  10  13
ATOM     13  C   LIG    1       10.845   6.577  -8.607  0.00  0.00    +0.070 C 
BRANCH  13  14
ATOM     14  C   LIG    1       11.114   6.043 -10.016  0.00  0.00    -0.020 C 
ATOM     15  C   LIG    1       12.341   5.130  -9.990  0.00  0.00    +0.010 C 
ATOM     16  C   LIG    1       11.370   7.216 -10.964  0.00  0.00    +0.030 C 
ENDBRANCH  13  14
ENDBRANCH  10  13
ENDBRANCH   5   7
ENDBRANCH   1   2
BRANCH   1  17
ATOM     17  C   LIG    1        6.603   0.544  -2.230  0.00  0.00    +0.070 C 
BRANCH  17  19
ATOM     18  N   LIG    1        4.825   0.107  -0.567  0.00  0.00    -0.610 N 
ATOM     19  C   LIG    1        5.453  -0.272  -1.697  0.00  0.00    +0.520 C 
ATOM     20  O   LIG    1        5.094  -1.270  -2.286  0.00  0.00    -0.530 OA
ATOM     21  C   LIG    1        5.259   1.312   0.144  0.00  0.00    +0.280 C 
BRANCH  18  22
ATOM     22  C   LIG    1        3.707  -0.686  -0.049  0.00  0.00    +0.300 C 
ATOM     23  C   LIG    1        3.946  -0.999   1.430  0.00  0.00    +0.040 C 
BRANCH  22  29
ATOM     24  C   LIG    1        1.210  -0.573  -0.248  0.00  0.00    +0.140 A 
ATOM     25  C   LIG    1        0.033   0.148  -0.385  0.00  0.00    -0.080 A 
ATOM     26  C   LIG    1        0.074   1.526  -0.470  0.00  0.00    +0.040 A 
ATOM     27  C   LIG    1        1.287   2.187  -0.420  0.00  0.00    -0.040 A 
ATOM     28  C   LIG    1        2.462   1.471  -0.283  0.00  0.00    +0.040 A 
ATOM     29  C   LIG    1        2.426   0.093  -0.197  0.00  0.00    -0.130 A 
BRANCH  24  31
ATOM     30  C   LIG    1       -0.114  -2.547  -0.223  0.00  0.00    +0.250 C 
ATOM     31  O   LIG    1        1.173  -1.929  -0.164  0.00  0.00    -0.310 OA
ENDBRANCH  24  31
ENDBRANCH  22  29
ENDBRANCH  18  22
ENDBRANCH  17  19
ENDBRANCH   1  17
TORSDOF 9
