REMARK  Name = ZINCpe000000YlzM.0
REMARK                            x       y       z     vdW  Elec       q    Type
REMARK                         _______ _______ _______ _____ _____    ______ ____
ROOT
ATOM      1  C   LIG    1        4.453   3.319  -3.323  0.00  0.00    +0.150 A 
ATOM      2  C   LIG    1        4.414   3.961  -2.094  0.00  0.00    -0.010 A 
ATOM      3  C   LIG    1        3.770   3.367  -1.026  0.00  0.00    +0.100 A 
ATOM      4  C   LIG    1        3.165   2.134  -1.180  0.00  0.00    -0.160 A 
ATOM      5  C   LIG    1        3.207   1.489  -2.403  0.00  0.00    +0.080 A 
ATOM      6  C   LIG    1        3.844   2.081  -3.476  0.00  0.00    -0.080 A 
ENDROOT
BRANCH   1   7
ATOM      7  O   LIG    1        5.086   3.900  -4.375  0.00  0.00    -0.310 OA
BRANCH   7   8
ATOM      8  C   LIG    1        5.086   3.182  -5.610  0.00  0.00    +0.330 C 
BRANCH   8  14
ATOM      9  C   LIG    1        8.118   3.026  -6.230  0.00  0.00    +0.330 C 
ATOM     10  N   LIG    1        7.153   3.894  -6.910  0.00  0.00    -0.450 N 
ATOM     11  C   LIG    1        7.424   4.773  -7.923  0.00  0.00    +0.140 A 
ATOM     12  C   LIG    1        6.258   5.362  -8.251  0.00  0.00    +0.150 A 
ATOM     13  N   LIG    1        5.300   4.852  -7.463  0.00  0.00    -0.460 NA
ATOM     14  C   LIG    1        5.829   3.976  -6.654  0.00  0.00    +0.190 A 
ENDBRANCH   8  14
ENDBRANCH   7   8
ENDBRANCH   1   7
BRANCH   4  15
ATOM     15  C   LIG    1        2.463   1.488  -0.013  0.00  0.00    +0.390 C 
BRANCH  15  16
ATOM     16  N   LIG    1        1.058   1.903   0.002  0.00  0.00    -0.280 N 
ATOM     17  C   LIG    1       -0.013   1.076   0.008  0.00  0.00    +0.150 A 
ATOM     18  C   LIG    1       -1.106   1.874   0.017  0.00  0.00    -0.050 A 
ATOM     19  N   LIG    1       -0.656   3.134   0.024  0.00  0.00    -0.250 NA
ATOM     20  N   LIG    1        0.630   3.117   0.012  0.00  0.00    -0.070 NA
BRANCH  18  21
ATOM     21  C   LIG    1       -2.546   1.430   0.021  0.00  0.00    +0.150 C 
ATOM     22  C   LIG    1       -3.085   1.055  -1.372  0.00  0.00    +0.220 C 
ATOM     23  O   LIG    1       -4.266   1.792  -0.986  0.00  0.00    -0.370 OA
ATOM     24  C   LIG    1       -3.555   2.594  -0.022  0.00  0.00    +0.270 C 
BRANCH  21  25
ATOM     25  O   LIG    1       -2.828   0.459   1.030  0.00  0.00    -0.520 OA
ATOM     26  H   LIG    1       -2.215  -0.289   1.038  0.00  0.00    +0.380 HD
ENDBRANCH  21  25
ENDBRANCH  18  21
ENDBRANCH  15  16
ENDBRANCH   4  15
TORSDOF 7
