REMARK  Name = ZINCrg00000NkWXn.0
REMARK                            x       y       z     vdW  Elec       q    Type
REMARK                         _______ _______ _______ _____ _____    ______ ____
ROOT
ATOM      1  C   LIG    1       -2.791   0.210  -2.087  0.00  0.00    +0.520 C 
ATOM      2  N   LIG    1       -2.259   1.019  -1.149  0.00  0.00    -0.610 N 
ATOM      3  C   LIG    1       -0.914   1.584  -1.324  0.00  0.00    +0.260 C 
ATOM      4  C   LIG    1       -0.075   1.251  -0.086  0.00  0.00    +0.030 C 
ATOM      5  C   LIG    1       -0.804   1.741   1.167  0.00  0.00    +0.040 C 
ATOM      6  C   LIG    1       -2.151   1.023   1.288  0.00  0.00    +0.110 C 
ATOM      7  C   LIG    1       -3.014   1.353   0.066  0.00  0.00    +0.320 C 
ATOM      8  O   LIG    1       -3.903  -0.251  -1.931  0.00  0.00    -0.510 OA
ENDROOT
BRANCH   6   9
ATOM      9  C   LIG    1       -2.855   1.481   2.540  0.00  0.00    +0.510 C 
ATOM     10  N   LIG    1       -3.809   0.710   3.097  0.00  0.00    -0.610 N 
ATOM     11  C   LIG    1       -4.194  -0.636   2.648  0.00  0.00    +0.260 C 
ATOM     12  C   LIG    1       -5.338  -1.116   3.565  0.00  0.00    +0.020 C 
ATOM     13  C   LIG    1       -5.922   0.213   4.112  0.00  0.00    +0.030 C 
ATOM     14  C   LIG    1       -4.645   1.079   4.254  0.00  0.00    +0.250 C 
ATOM     15  O   LIG    1       -2.562   2.544   3.045  0.00  0.00    -0.530 OA
ENDBRANCH   6   9
BRANCH   6  16
ATOM     16  O   LIG    1       -1.935  -0.388   1.352  0.00  0.00    -0.530 OA
ATOM     17  H   LIG    1       -1.331  -0.662   2.056  0.00  0.00    +0.380 HD
ENDBRANCH   6  16
BRANCH   1  18
ATOM     18  C   LIG    1       -2.005  -0.123  -3.329  0.00  0.00    +0.100 C 
BRANCH  18  29
ATOM     19  O   LIG    1       -4.905   0.229  -4.226  0.00  0.00    -0.470 OA
ATOM     20  C   LIG    1       -3.998  -0.304  -4.829  0.00  0.00    +0.530 C 
ATOM     21  N   LIG    1       -3.840  -0.341  -6.163  0.00  0.00    -0.670 N 
ATOM     22  H   LIG    1       -4.455   0.067  -6.792  0.00  0.00    +0.410 HD
ATOM     23  C   LIG    1       -2.689  -1.035  -6.540  0.00  0.00    +0.150 A 
ATOM     24  C   LIG    1       -2.159  -1.305  -7.800  0.00  0.00    -0.010 A 
ATOM     25  C   LIG    1       -0.988  -2.024  -7.919  0.00  0.00    +0.050 A 
ATOM     26  C   LIG    1       -0.330  -2.481  -6.792  0.00  0.00    -0.010 A 
ATOM     27  C   LIG    1       -0.850  -2.216  -5.536  0.00  0.00    +0.070 A 
ATOM     28  C   LIG    1       -2.019  -1.500  -5.415  0.00  0.00    -0.140 A 
ATOM     29  C   LIG    1       -2.831  -1.052  -4.221  0.00  0.00    +0.070 C 
ENDBRANCH  18  29
ENDBRANCH   1  18
TORSDOF 4
