REMARK  Name = ZINCkj00000dDhOz.0
REMARK                            x       y       z     vdW  Elec       q    Type
REMARK                         _______ _______ _______ _____ _____    ______ ____
ROOT
ATOM      1  C   LIG    1       -2.107  -0.516   1.202  0.00  0.00    +0.030 C 
ENDROOT
BRANCH   1   2
ATOM      2  C   LIG    1       -3.349  -1.409   1.209  0.00  0.00    +0.300 C 
BRANCH   2   4
ATOM      3  C   LIG    1       -5.235  -0.034   2.204  0.00  0.00    +0.300 C 
ATOM      4  N   LIG    1       -4.197  -1.057   2.350  0.00  0.00    -0.590 N 
ATOM      5  C   LIG    1       -4.022  -1.675   3.536  0.00  0.00    +0.510 C 
ATOM      6  O   LIG    1       -3.163  -2.522   3.657  0.00  0.00    -0.520 OA
BRANCH   5   7
ATOM      7  C   LIG    1       -4.895  -1.312   4.710  0.00  0.00    +0.190 C 
ATOM      8  C   LIG    1       -6.265  -2.014   4.705  0.00  0.00    +0.120 C 
ATOM      9  C   LIG    1       -6.054  -2.220   6.216  0.00  0.00    +0.330 C 
ATOM     10  N   LIG    1       -4.605  -2.095   5.932  0.00  0.00    -0.520 N 
ATOM     11  H   LIG    1       -4.110  -1.563   6.632  0.00  0.00    +0.430 HD
ATOM     12  H   LIG    1       -4.164  -2.981   5.736  0.00  0.00    +0.450 HD
ENDBRANCH   5   7
ENDBRANCH   2   4
ENDBRANCH   1   2
BRANCH   1  13
ATOM     13  C   LIG    1       -1.221  -0.884   0.009  0.00  0.00    +0.150 C 
BRANCH  13  14
ATOM     14  C   LIG    1        0.002  -0.004   0.002  0.00  0.00    +0.280 A 
ATOM     15  N   LIG    1       -0.016   1.297   0.009  0.00  0.00    -0.490 NA
ATOM     16  C   LIG    1        1.257   1.771  -0.000  0.00  0.00    +0.040 A 
ATOM     17  C   LIG    1        1.807   3.055   0.003  0.00  0.00    +0.060 A 
ATOM     18  C   LIG    1        3.164   3.215  -0.010  0.00  0.00    +0.010 A 
ATOM     19  C   LIG    1        4.006   2.112  -0.024  0.00  0.00    +0.030 A 
ATOM     20  C   LIG    1        3.485   0.835  -0.026  0.00  0.00    +0.010 A 
ATOM     21  C   LIG    1        2.110   0.654  -0.015  0.00  0.00    +0.050 A 
ATOM     22  N   LIG    1        1.286  -0.454  -0.013  0.00  0.00    -0.600 N 
ATOM     23  H   LIG    1        1.570  -1.382  -0.020  0.00  0.00    +0.420 HD
ENDBRANCH  13  14
ENDBRANCH   1  13
TORSDOF 5
