REMARK  Name = ZINCrH000004lZqa.0
REMARK                            x       y       z     vdW  Elec       q    Type
REMARK                         _______ _______ _______ _____ _____    ______ ____
ROOT
ATOM      1  C   LIG    1        2.396   0.347  -4.223  0.00  0.00    +0.560 C 
ATOM      2  N   LIG    1        2.997  -0.250  -5.271  0.00  0.00    -0.670 N 
ATOM      3  H   LIG    1        3.107  -1.214  -5.283  0.00  0.00    +0.410 HD
ATOM      4  O   LIG    1        2.331   1.560  -4.170  0.00  0.00    -0.510 OA
ENDROOT
BRANCH   1   7
ATOM      5  C   LIG    1        0.647  -0.630  -1.040  0.00  0.00    +0.160 A 
ATOM      6  C   LIG    1        1.190   0.143  -2.054  0.00  0.00    -0.030 A 
ATOM      7  C   LIG    1        1.814  -0.473  -3.139  0.00  0.00    -0.070 A 
ATOM      8  C   LIG    1        1.887  -1.865  -3.199  0.00  0.00    -0.080 A 
ATOM      9  C   LIG    1        1.341  -2.630  -2.182  0.00  0.00    +0.160 A 
ATOM     10  C   LIG    1        0.727  -2.013  -1.101  0.00  0.00    -0.120 A 
ATOM     11  C   LIG    1        0.139  -2.849   0.006  0.00  0.00    +0.110 C 
BRANCH   5  13
ATOM     12  C   LIG    1       -0.002   1.398   0.019  0.00  0.00    +0.250 C 
ATOM     13  O   LIG    1        0.039  -0.031   0.017  0.00  0.00    -0.310 OA
ENDBRANCH   5  13
BRANCH   9  14
ATOM     14  O   LIG    1        1.412  -3.986  -2.239  0.00  0.00    -0.310 OA
ATOM     15  C   LIG    1        2.063  -4.554  -3.377  0.00  0.00    +0.250 C 
ENDBRANCH   9  14
ENDBRANCH   1   7
BRANCH   2  16
ATOM     16  C   LIG    1        3.464   0.520  -6.341  0.00  0.00    +0.150 A 
ATOM     17  C   LIG    1        3.992   1.784  -6.110  0.00  0.00    +0.020 A 
ATOM     18  C   LIG    1        4.454   2.546  -7.166  0.00  0.00    +0.040 A 
ATOM     19  C   LIG    1        4.392   2.053  -8.455  0.00  0.00    +0.010 A 
ATOM     20  C   LIG    1        3.865   0.789  -8.693  0.00  0.00    +0.150 A 
ATOM     21  C   LIG    1        3.406   0.020  -7.634  0.00  0.00    -0.010 A 
BRANCH  20  22
ATOM     22  N   LIG    1        3.804   0.291  -9.999  0.00  0.00    -0.560 N 
ATOM     23  C   LIG    1        2.488   0.063 -10.582  0.00  0.00    +0.260 C 
ATOM     24  C   LIG    1        2.584  -0.017 -12.106  0.00  0.00    +0.030 C 
ATOM     25  C   LIG    1        3.685  -1.018 -12.477  0.00  0.00    +0.020 C 
ATOM     26  C   LIG    1        5.034  -0.434 -12.051  0.00  0.00    +0.070 C 
ATOM     27  C   LIG    1        4.954   0.060 -10.635  0.00  0.00    +0.520 C 
ATOM     28  O   LIG    1        5.990   0.254 -10.035  0.00  0.00    -0.540 OA
ENDBRANCH  20  22
ENDBRANCH   2  16
TORSDOF 5
