REMARK  Name = ZINCbu0000000GKO.0
REMARK                            x       y       z     vdW  Elec       q    Type
REMARK                         _______ _______ _______ _____ _____    ______ ____
ROOT
ATOM      1  C   LIG    1       -0.013   1.086   0.008  0.00  0.00    +0.170 C 
ATOM      2  C   LIG    1       -0.754   1.592  -1.230  0.00  0.00    +0.040 C 
ATOM      3  C   LIG    1       -0.043   1.093  -2.490  0.00  0.00    +0.070 C 
ATOM      4  C   LIG    1        1.396   1.604  -2.499  0.00  0.00    -0.070 C 
ATOM      5  C   LIG    1        2.140   1.115  -1.259  0.00  0.00    +0.060 C 
ATOM      6  C   LIG    1        2.116   1.113  -3.768  0.00  0.00    +0.020 C 
ATOM      7  C   LIG    1        1.979   2.293  -4.762  0.00  0.00    +0.010 C 
ATOM      8  C   LIG    1        2.138   3.533  -3.847  0.00  0.00    +0.010 C 
ATOM      9  C   LIG    1        1.406   3.140  -2.546  0.00  0.00    +0.020 C 
ATOM     10  C   LIG    1        1.423   1.615  -0.003  0.00  0.00    +0.040 C 
ENDROOT
BRANCH   1  11
ATOM     11  N   LIG    1       -0.700   1.559   1.217  0.00  0.00    -0.640 N 
ATOM     12  H   LIG    1       -0.211   1.225   2.034  0.00  0.00    +0.440 HD
ATOM     13  H   LIG    1       -1.646   1.210   1.225  0.00  0.00    +0.440 HD
ATOM     14  H   LIG    1       -0.713   2.568   1.223  0.00  0.00    +0.430 HD
ENDBRANCH   1  11
TORSDOF 1
