REMARK  Name = ZINCyk0000000llq.1
REMARK                            x       y       z     vdW  Elec       q    Type
REMARK                         _______ _______ _______ _____ _____    ______ ____
ROOT
ATOM      1  C   LIG    1       -2.140   6.947   2.767  0.00  0.00    +0.170 C 
ATOM      2  C   LIG    1       -2.812   6.532   1.455  0.00  0.00    +0.170 C 
ATOM      3  N   LIG    1       -4.271   6.535   1.635  0.00  0.00    -0.520 NA
ATOM      4  C   LIG    1       -4.743   7.866   2.044  0.00  0.00    +0.170 C 
ATOM      5  C   LIG    1       -4.052   8.267   3.350  0.00  0.00    +0.250 C 
ATOM      6  O   LIG    1       -2.635   8.229   3.165  0.00  0.00    -0.350 OA
ENDROOT
BRANCH   1  12
ATOM      7  N   LIG    1        1.526   3.591   3.015  0.00  0.00    -0.380 N 
ATOM      8  C   LIG    1        2.112   4.910   3.285  0.00  0.00    +0.270 C 
ATOM      9  C   LIG    1        1.534   5.935   2.303  0.00  0.00    +0.330 C 
ATOM     10  N   LIG    1        0.067   5.894   2.398  0.00  0.00    -0.630 N 
ATOM     11  C   LIG    1       -0.597   4.584   2.304  0.00  0.00    +0.310 C 
ATOM     12  C   LIG    1       -0.649   7.023   2.567  0.00  0.00    +0.530 C 
ATOM     13  O   LIG    1       -0.092   8.101   2.557  0.00  0.00    -0.480 OA
ATOM     14  C   LIG    1        0.083   3.623   3.284  0.00  0.00    +0.260 C 
ATOM     15  H   LIG    1        1.682   3.346   2.049  0.00  0.00    +0.430 HD
BRANCH   7  16
ATOM     16  C   LIG    1        2.162   2.589   3.881  0.00  0.00    +0.330 C 
BRANCH  16  21
ATOM     17  C   LIG    1        0.313  -1.991   4.073  0.00  0.00    +0.090 C 
ATOM     18  C   LIG    1        0.926  -0.678   3.581  0.00  0.00    -0.120 C 
ATOM     19  C   LIG    1        1.357  -0.565   2.078  0.00  0.00    +0.250 C 
ATOM     20  O   LIG    1        1.891   0.789   2.090  0.00  0.00    -0.360 OA
ATOM     21  C   LIG    1        1.686   1.192   3.478  0.00  0.00    +0.020 C 
ATOM     22  C   LIG    1        0.260   0.688   3.936  0.00  0.00    +0.050 C 
ATOM     23  C   LIG    1        2.147  -0.040   4.295  0.00  0.00    +0.060 C 
ENDBRANCH  16  21
ENDBRANCH   7  16
ENDBRANCH   1  12
BRANCH   3  24
ATOM     24  C   LIG    1       -4.953   6.087   0.413  0.00  0.00    +0.200 C 
BRANCH  24  25
ATOM     25  C   LIG    1       -6.415   5.867   0.706  0.00  0.00    +0.360 C 
ATOM     26  O   LIG    1       -6.844   6.063   1.817  0.00  0.00    -0.420 OA
BRANCH  25  27
ATOM     27  C   LIG    1       -7.340   5.402  -0.389  0.00  0.00    +0.110 C 
BRANCH  27  28
ATOM     28  C   LIG    1       -8.736   5.261   0.161  0.00  0.00    -0.090 A 
ATOM     29  C   LIG    1       -9.670   6.256  -0.059  0.00  0.00    +0.050 A 
ATOM     30  C   LIG    1      -10.951   6.128   0.444  0.00  0.00    +0.050 A 
ATOM     31  C   LIG    1      -11.302   5.004   1.168  0.00  0.00    +0.030 A 
ATOM     32  C   LIG    1      -10.369   4.005   1.390  0.00  0.00    +0.070 A 
ATOM     33  F   LIG    1      -10.711   2.907   2.098  0.00  0.00    -0.130 F 
ATOM     34  C   LIG    1       -9.086   4.132   0.881  0.00  0.00    +0.080 A 
ATOM     35  F   LIG    1       -8.176   3.156   1.091  0.00  0.00    -0.130 F 
ENDBRANCH  27  28
ENDBRANCH  25  27
ENDBRANCH  24  25
ENDBRANCH   3  24
TORSDOF 7
