REMARK  Name = ZINCrD0000072rja.0
REMARK                            x       y       z     vdW  Elec       q    Type
REMARK                         _______ _______ _______ _____ _____    ______ ____
ROOT
ATOM      1  C   LIG    1       -2.808  -3.559  -0.926  0.00  0.00    +0.540 C 
ATOM      2  N   LIG    1       -2.375  -2.806   0.104  0.00  0.00    -0.560 N 
ATOM      3  C   LIG    1       -3.148  -2.701   1.362  0.00  0.00    +0.290 C 
ATOM      4  C   LIG    1       -4.014  -1.464   1.346  0.00  0.00    +0.010 C 
ATOM      5  C   LIG    1       -3.220  -0.164   1.319  0.00  0.00    +0.020 C 
ATOM      6  C   LIG    1       -2.511   0.018  -0.020  0.00  0.00    +0.080 C 
ATOM      7  C   LIG    1       -1.185  -0.717   0.015  0.00  0.00    -0.120 A 
ATOM      8  C   LIG    1        0.002  -0.004   0.002  0.00  0.00    +0.140 A 
ATOM      9  C   LIG    1        1.212  -0.687  -0.013  0.00  0.00    -0.070 A 
ATOM     10  C   LIG    1        1.228  -2.068  -0.021  0.00  0.00    +0.060 A 
ATOM     11  C   LIG    1        0.043  -2.779  -0.003  0.00  0.00    -0.030 A 
ATOM     12  C   LIG    1       -1.168  -2.099   0.025  0.00  0.00    +0.170 A 
ATOM     13  O   LIG    1       -3.855  -4.163  -0.838  0.00  0.00    -0.530 OA
ENDROOT
BRANCH   1  18
ATOM     14  C   LIG    1       -2.685  -4.564  -3.217  0.00  0.00    +0.280 C 
ATOM     15  O   LIG    1       -2.928  -3.776  -4.394  0.00  0.00    -0.350 OA
ATOM     16  C   LIG    1       -3.031  -2.400  -3.966  0.00  0.00    +0.210 C 
ATOM     17  C   LIG    1       -1.921  -2.272  -2.891  0.00  0.00    +0.040 C 
ATOM     18  C   LIG    1       -1.990  -3.650  -2.189  0.00  0.00    -0.010 C 
BRANCH  14  23
ATOM     19  N   LIG    1       -1.954  -6.998  -3.118  0.00  0.00    -0.450 N 
ATOM     20  C   LIG    1       -0.935  -7.742  -3.650  0.00  0.00    +0.130 A 
ATOM     21  C   LIG    1       -0.186  -6.904  -4.391  0.00  0.00    +0.140 A 
ATOM     22  N   LIG    1       -0.734  -5.682  -4.318  0.00  0.00    -0.460 NA
ATOM     23  C   LIG    1       -1.791  -5.730  -3.553  0.00  0.00    +0.200 A 
BRANCH  19  25
ATOM     24  C   LIG    1       -4.253  -7.830  -3.080  0.00  0.00    +0.040 C 
ATOM     25  C   LIG    1       -3.021  -7.486  -2.241  0.00  0.00    +0.280 C 
ENDBRANCH  19  25
ENDBRANCH  14  23
ENDBRANCH   1  18
BRANCH   8  26
ATOM     26  O   LIG    1       -0.016   1.355   0.009  0.00  0.00    -0.310 OA
ATOM     27  C   LIG    1        1.248   2.021   0.001  0.00  0.00    +0.250 C 
ENDBRANCH   8  26
TORSDOF 4
