REMARK  Name = ZINCtV000002z4Ki.0
REMARK                            x       y       z     vdW  Elec       q    Type
REMARK                         _______ _______ _______ _____ _____    ______ ____
ROOT
ATOM      1  N   LIG    1       -2.280   4.060   0.073  0.00  0.00    -0.500 N 
ATOM      2  C   LIG    1       -1.785   5.351   0.083  0.00  0.00    +0.150 A 
ATOM      3  C   LIG    1       -0.384   5.288   0.067  0.00  0.00    -0.110 A 
ATOM      4  C   LIG    1       -0.029   3.857   0.046  0.00  0.00    -0.090 A 
ATOM      5  C   LIG    1        1.183   3.171   0.024  0.00  0.00    +0.080 A 
ATOM      6  C   LIG    1        1.189   1.787   0.007  0.00  0.00    +0.100 A 
ATOM      7  C   LIG    1       -0.013   1.084   0.012  0.00  0.00    +0.030 A 
ATOM      8  C   LIG    1       -1.215   1.755   0.028  0.00  0.00    +0.010 A 
ATOM      9  C   LIG    1        0.367   6.461   0.072  0.00  0.00    +0.070 A 
ATOM     10  C   LIG    1       -0.271   7.682   0.093  0.00  0.00    -0.020 A 
ATOM     11  C   LIG    1       -1.656   7.747   0.110  0.00  0.00    +0.050 A 
ATOM     12  C   LIG    1       -2.411   6.594   0.105  0.00  0.00    -0.030 A 
ATOM     13  C   LIG    1       -1.238   3.147   0.051  0.00  0.00    +0.140 A 
ENDROOT
BRANCH   6  14
ATOM     14  N   LIG    1        2.406   1.093  -0.015  0.00  0.00    -0.660 N 
ATOM     15  H   LIG    1        2.492   0.250   0.457  0.00  0.00    +0.410 HD
ATOM     16  C   LIG    1        3.457   1.596  -0.692  0.00  0.00    +0.510 C 
ATOM     17  O   LIG    1        3.376   2.689  -1.212  0.00  0.00    -0.490 OA
BRANCH  16  18
ATOM     18  C   LIG    1        4.733   0.802  -0.803  0.00  0.00    +0.240 C 
BRANCH  18  19
ATOM     19  O   LIG    1        5.691   1.542  -1.562  0.00  0.00    -0.270 OA
BRANCH  19  20
ATOM     20  C   LIG    1        6.905   0.962  -1.757  0.00  0.00    +0.160 A 
ATOM     21  C   LIG    1        7.170  -0.290  -1.224  0.00  0.00    -0.020 A 
ATOM     22  C   LIG    1        8.403  -0.881  -1.428  0.00  0.00    +0.010 A 
ATOM     23  C   LIG    1        9.377  -0.217  -2.155  0.00  0.00    -0.060 A 
ATOM     24  C   LIG    1        9.117   1.035  -2.683  0.00  0.00    +0.110 A 
ATOM     25 CL   LIG    1       10.928  -0.957  -2.404  0.00  0.00    -0.030 Cl
ATOM     26 CL   LIG    1        8.733  -2.451  -0.767  0.00  0.00    -0.030 Cl
ATOM     27  C   LIG    1        7.883   1.626  -2.485  0.00  0.00    -0.050 A 
ATOM     28 CL   LIG    1        7.557   3.197  -3.147  0.00  0.00    -0.020 Cl
ENDBRANCH  19  20
ENDBRANCH  18  19
ENDBRANCH  16  18
ENDBRANCH   6  14
BRANCH   1  30
ATOM     29  C   LIG    1       -4.214   3.602  -1.352  0.00  0.00    +0.020 C 
ATOM     30  C   LIG    1       -3.702   3.708   0.086  0.00  0.00    +0.290 C 
ENDBRANCH   1  30
TORSDOF 5
