REMARK  Name = ZINCAx0000000ekZ.0
REMARK                            x       y       z     vdW  Elec       q    Type
REMARK                         _______ _______ _______ _____ _____    ______ ____
ROOT
ATOM      1  C   LIG    1      -10.105   9.344   1.726  0.00  0.00    +0.100 C 
ATOM      2  C   LIG    1       -8.723   9.811   1.264  0.00  0.00    +0.170 C 
ATOM      3  N   LIG    1       -8.575   9.629  -0.191  0.00  0.00    -0.720 N 
ATOM      4  H   LIG    1       -9.108  10.047  -0.884  0.00  0.00    +0.440 HD
ATOM      5  C   LIG    1       -7.556   8.768  -0.369  0.00  0.00    +0.710 C 
ATOM      6  N   LIG    1       -7.020   8.364   0.789  0.00  0.00    -0.560 N 
ATOM      7  O   LIG    1       -7.167   8.399  -1.459  0.00  0.00    -0.540 OA
ATOM      8  C   LIG    1       -7.643   8.921   1.846  0.00  0.00    +0.540 C 
ATOM      9  O   LIG    1       -7.390   8.749   3.019  0.00  0.00    -0.450 OA
ENDROOT
BRANCH   2  10
ATOM     10  C   LIG    1       -8.497  11.251   1.644  0.00  0.00    -0.090 A 
ATOM     11  C   LIG    1       -8.828  12.236   0.765  0.00  0.00    +0.050 A 
ATOM     12  C   LIG    1       -8.623  13.581   1.118  0.00  0.00    -0.050 A 
ATOM     13  C   LIG    1       -8.957  14.625   0.239  0.00  0.00    +0.030 A 
ATOM     14  C   LIG    1       -8.739  15.916   0.613  0.00  0.00    +0.020 A 
ATOM     15  C   LIG    1       -8.189  16.219   1.857  0.00  0.00    +0.020 A 
ATOM     16  C   LIG    1       -7.853  15.234   2.734  0.00  0.00    +0.020 A 
ATOM     17  C   LIG    1       -8.063  13.890   2.383  0.00  0.00    -0.040 A 
ATOM     18  C   LIG    1       -7.729  12.845   3.262  0.00  0.00    +0.030 A 
ATOM     19  C   LIG    1       -7.947  11.555   2.888  0.00  0.00    +0.030 A 
ENDBRANCH   2  10
BRANCH   6  20
ATOM     20  C   LIG    1       -5.898   7.428   0.894  0.00  0.00    +0.360 C 
BRANCH  20  21
ATOM     21  C   LIG    1       -4.601   8.195   0.887  0.00  0.00    +0.510 C 
ATOM     22  N   LIG    1       -3.429   7.536   0.974  0.00  0.00    -0.610 N 
ATOM     23  C   LIG    1       -2.156   8.271   0.969  0.00  0.00    +0.290 C 
ATOM     24  C   LIG    1       -1.275   7.718  -0.159  0.00  0.00    +0.290 C 
ATOM     25  N   LIG    1       -1.246   6.252  -0.056  0.00  0.00    -0.610 N 
ATOM     26  C   LIG    1       -2.519   5.517  -0.056  0.00  0.00    +0.270 C 
ATOM     27  C   LIG    1       -0.074   5.593   0.032  0.00  0.00    +0.570 C 
ATOM     28  O   LIG    1        0.966   6.215   0.134  0.00  0.00    -0.520 OA
ATOM     29  C   LIG    1       -3.400   6.071   1.077  0.00  0.00    +0.270 C 
ATOM     30  O   LIG    1       -4.612   9.405   0.802  0.00  0.00    -0.520 OA
BRANCH  27  31
ATOM     31  C   LIG    1       -0.052   4.117   0.004  0.00  0.00    -0.140 A 
ATOM     32  C   LIG    1        0.775   3.411   0.881  0.00  0.00    +0.100 A 
ATOM     33  C   LIG    1        0.791   2.033   0.851  0.00  0.00    -0.010 A 
ATOM     34  C   LIG    1       -0.012   1.347  -0.047  0.00  0.00    +0.120 A 
ATOM     35  C   LIG    1       -0.831   2.043  -0.924  0.00  0.00    -0.010 A 
ATOM     36  F   LIG    1        0.007  -0.003  -0.073  0.00  0.00    -0.130 F 
ATOM     37  C   LIG    1       -0.859   3.421  -0.899  0.00  0.00    +0.080 A 
ENDBRANCH  27  31
ENDBRANCH  20  21
ENDBRANCH   6  20
TORSDOF 4
