REMARK  Name = ZINCfA000000boxm.2
REMARK                            x       y       z     vdW  Elec       q    Type
REMARK                         _______ _______ _______ _____ _____    ______ ____
ROOT
ATOM      1  N   LIG    1       -0.012   1.005   0.008  0.00  0.00    -0.410 N 
ATOM      2  C   LIG    1       -0.895   1.574   1.043  0.00  0.00    +0.280 C 
ATOM      3  C   LIG    1       -2.046   1.484   0.028  0.00  0.00    -0.080 C 
ATOM      4  C   LIG    1       -2.780   0.142   0.024  0.00  0.00    +0.090 C 
ATOM      5  C   LIG    1       -2.989   2.688   0.043  0.00  0.00    +0.090 C 
ATOM      6  C   LIG    1       -0.914   1.585  -1.004  0.00  0.00    +0.070 C 
ATOM      7  C   LIG    1       -1.121   0.685  -2.224  0.00  0.00    +0.110 C 
ATOM      8  C   LIG    1       -0.561   3.024  -1.383  0.00  0.00    +0.120 C 
ATOM      9  H   LIG    1        0.002  -0.004   0.002  0.00  0.00    +0.440 HD
ENDROOT
BRANCH   1  10
ATOM     10  C   LIG    1        1.333   1.596  -0.002  0.00  0.00    +0.390 C 
BRANCH  10  15
ATOM     11  C   LIG    1        4.519  -1.874   1.559  0.00  0.00    +0.160 C 
ATOM     12  C   LIG    1        3.633  -0.667   1.724  0.00  0.00    +0.070 A 
ATOM     13  C   LIG    1        3.497  -0.023   2.887  0.00  0.00    -0.030 A 
ATOM     14  S   LIG    1        2.379   1.316   2.638  0.00  0.00    +0.180 S 
ATOM     15  C   LIG    1        2.205   0.877   0.995  0.00  0.00    -0.050 A 
ATOM     16  N   LIG    1        2.924  -0.162   0.734  0.00  0.00    -0.430 NA
ENDBRANCH  10  15
ENDBRANCH   1  10
TORSDOF 2
