REMARK  Name = ZINCfA000000boxm.1
REMARK                            x       y       z     vdW  Elec       q    Type
REMARK                         _______ _______ _______ _____ _____    ______ ____
ROOT
ATOM      1  N   LIG    1       -0.914   1.667  -1.005  0.00  0.00    -0.410 N 
ATOM      2  C   LIG    1       -0.013   1.086   0.008  0.00  0.00    +0.290 C 
ATOM      3  C   LIG    1       -0.930   1.679   1.086  0.00  0.00    -0.090 C 
ATOM      4  C   LIG    1       -0.583   3.115   1.484  0.00  0.00    +0.090 C 
ATOM      5  C   LIG    1       -1.166   0.757   2.285  0.00  0.00    +0.090 C 
ATOM      6  C   LIG    1       -2.000   1.571  -0.012  0.00  0.00    +0.070 C 
ATOM      7  C   LIG    1       -2.724   0.224  -0.028  0.00  0.00    +0.120 C 
ATOM      8  C   LIG    1       -2.962   2.761  -0.045  0.00  0.00    +0.110 C 
ATOM      9  H   LIG    1       -0.679   2.616  -1.253  0.00  0.00    +0.430 HD
ENDROOT
BRANCH   1  10
ATOM     10  C   LIG    1       -1.114   0.801  -2.174  0.00  0.00    +0.390 C 
BRANCH  10  15
ATOM     11  C   LIG    1        3.330  -0.008  -4.231  0.00  0.00    +0.150 C 
ATOM     12  C   LIG    1        1.994   0.678  -4.101  0.00  0.00    +0.070 A 
ATOM     13  C   LIG    1        1.602   1.658  -4.920  0.00  0.00    -0.030 A 
ATOM     14  S   LIG    1       -0.007   2.172  -4.419  0.00  0.00    +0.180 S 
ATOM     15  C   LIG    1        0.007   1.018  -3.158  0.00  0.00    -0.060 A 
ATOM     16  N   LIG    1        1.119   0.363  -3.166  0.00  0.00    -0.430 NA
ENDBRANCH  10  15
ENDBRANCH   1  10
TORSDOF 2
