REMARK  Name = ZINCrH000004jbrg.0
REMARK                            x       y       z     vdW  Elec       q    Type
REMARK                         _______ _______ _______ _____ _____    ______ ____
ROOT
ATOM      1  N   LIG    1       -1.201  -1.663  -1.998  0.00  0.00    -0.670 N 
ATOM      2  H   LIG    1       -1.420  -1.787  -2.935  0.00  0.00    +0.410 HD
ATOM      3  C   LIG    1       -1.090  -0.420  -1.490  0.00  0.00    +0.550 C 
ATOM      4  O   LIG    1       -0.856  -0.265  -0.307  0.00  0.00    -0.500 OA
ENDROOT
BRANCH   1  10
ATOM      5  C   LIG    1       -1.964  -3.774  -1.107  0.00  0.00    -0.090 A 
ATOM      6  C   LIG    1       -1.760  -4.874  -0.297  0.00  0.00    +0.020 A 
ATOM      7  C   LIG    1       -0.604  -4.976   0.455  0.00  0.00    +0.000 A 
ATOM      8  C   LIG    1        0.354  -3.981   0.395  0.00  0.00    +0.010 A 
ATOM      9  C   LIG    1        0.159  -2.881  -0.417  0.00  0.00    -0.060 A 
ATOM     10  C   LIG    1       -1.001  -2.776  -1.174  0.00  0.00    +0.130 A 
BRANCH   5  12
ATOM     11  C   LIG    1       -2.982  -4.226  -3.322  0.00  0.00    +0.020 C 
ATOM     12  C   LIG    1       -3.226  -3.661  -1.922  0.00  0.00    +0.060 C 
ENDBRANCH   5  12
BRANCH   9  13
ATOM     13  C   LIG    1        1.204  -1.797  -0.483  0.00  0.00    +0.060 C 
ATOM     14  C   LIG    1        1.934  -1.711   0.859  0.00  0.00    +0.020 C 
ENDBRANCH   9  13
ENDBRANCH   1  10
BRANCH   3  15
ATOM     15  C   LIG    1       -1.252   0.756  -2.371  0.00  0.00    -0.130 A 
ATOM     16  C   LIG    1       -1.515   0.582  -3.731  0.00  0.00    +0.040 A 
ATOM     17  C   LIG    1       -1.671   1.683  -4.546  0.00  0.00    +0.040 A 
ATOM     18  C   LIG    1       -1.556   2.958  -4.022  0.00  0.00    -0.090 A 
ATOM     19  C   LIG    1       -1.291   3.138  -2.676  0.00  0.00    +0.040 A 
ATOM     20  C   LIG    1       -1.138   2.045  -1.848  0.00  0.00    +0.080 A 
BRANCH  18  21
ATOM     21  C   LIG    1       -1.722   4.157  -4.920  0.00  0.00    +0.360 C 
BRANCH  21  22
ATOM     22  N   LIG    1       -0.420   4.533  -5.477  0.00  0.00    -0.570 N 
ATOM     23  C   LIG    1        0.399   5.406  -4.878  0.00  0.00    +0.530 C 
ATOM     24  C   LIG    1        1.653   5.565  -5.710  0.00  0.00    +0.080 C 
ATOM     25  C   LIG    1        1.409   4.630  -6.913  0.00  0.00    +0.080 C 
ATOM     26  O   LIG    1        0.174   5.977  -3.832  0.00  0.00    -0.480 OA
ATOM     27  C   LIG    1        0.045   4.037  -6.630  0.00  0.00    +0.530 C 
ATOM     28  O   LIG    1       -0.533   3.239  -7.335  0.00  0.00    -0.480 OA
ENDBRANCH  21  22
ENDBRANCH  18  21
ENDBRANCH   3  15
TORSDOF 6
