REMARK  Name = ZINCrH000004qZYL.0
REMARK                            x       y       z     vdW  Elec       q    Type
REMARK                         _______ _______ _______ _____ _____    ______ ____
ROOT
ATOM      1  N   LIG    1        0.981   3.886  -1.399  0.00  0.00    -0.630 N 
ATOM      2  H   LIG    1        0.377   3.374  -1.960  0.00  0.00    +0.420 HD
ATOM      3  C   LIG    1        1.631   3.283  -0.384  0.00  0.00    +0.530 C 
ATOM      4  O   LIG    1        2.386   3.922   0.317  0.00  0.00    -0.510 OA
ENDROOT
BRANCH   1   7
ATOM      5  N   LIG    1        1.066   7.272  -2.503  0.00  0.00    -0.320 N 
ATOM      6  N   LIG    1        0.611   5.950  -2.600  0.00  0.00    -0.310 NA
ATOM      7  C   LIG    1        1.177   5.251  -1.644  0.00  0.00    +0.300 A 
ATOM      8  C   LIG    1        2.018   6.106  -0.913  0.00  0.00    -0.080 A 
ATOM      9  C   LIG    1        1.933   7.340  -1.459  0.00  0.00    +0.100 A 
ATOM     10  C   LIG    1        2.667   8.571  -0.994  0.00  0.00    +0.150 C 
BRANCH   5  15
ATOM     11  C   LIG    1       -0.432  11.575  -5.885  0.00  0.00    +0.090 C 
ATOM     12  C   LIG    1       -0.034  10.432  -4.987  0.00  0.00    -0.080 A 
ATOM     13  C   LIG    1        1.279  10.304  -4.574  0.00  0.00    +0.030 A 
ATOM     14  C   LIG    1        1.647   9.258  -3.751  0.00  0.00    +0.010 A 
ATOM     15  C   LIG    1        0.696   8.334  -3.338  0.00  0.00    +0.150 A 
ATOM     16  C   LIG    1       -0.621   8.462  -3.759  0.00  0.00    +0.030 A 
ATOM     17  C   LIG    1       -0.984   9.514  -4.577  0.00  0.00    +0.030 A 
ENDBRANCH   5  15
ENDBRANCH   1   7
BRANCH   3  18
ATOM     18  C   LIG    1        1.420   1.814  -0.121  0.00  0.00    +0.020 C 
ATOM     19  C   LIG    1       -0.059   1.556   0.182  0.00  0.00    +0.020 C 
ATOM     20  C   LIG    1       -0.254   0.073   0.508  0.00  0.00    +0.050 C 
ATOM     21  C   LIG    1        0.639  -0.307   1.691  0.00  0.00    +0.170 C 
ATOM     22  N   LIG    1        2.043  -0.043   1.350  0.00  0.00    -0.530 NA
ATOM     23  C   LIG    1        2.265   1.384   1.080  0.00  0.00    +0.220 C 
BRANCH  22  24
ATOM     24  C   LIG    1        2.941  -0.524   2.409  0.00  0.00    +0.220 C 
BRANCH  24  25
ATOM     25  C   LIG    1        3.083  -2.044   2.306  0.00  0.00    +0.460 C 
ATOM     26  F   LIG    1        1.849  -2.646   2.573  0.00  0.00    -0.180 F 
ATOM     27  F   LIG    1        4.029  -2.488   3.235  0.00  0.00    -0.180 F 
ATOM     28  F   LIG    1        3.500  -2.387   1.015  0.00  0.00    -0.170 F 
ENDBRANCH  24  25
ENDBRANCH  22  24
ENDBRANCH   3  18
TORSDOF 5
