REMARK  Name = ZINCpk00000KfLIk.0
REMARK                            x       y       z     vdW  Elec       q    Type
REMARK                         _______ _______ _______ _____ _____    ______ ____
ROOT
ATOM      1  N   LIG    1       -3.368   0.069  -3.224  0.00  0.00    -0.740 N 
ATOM      2  H   LIG    1       -3.224  -0.872  -3.038  0.00  0.00    +0.400 HD
ATOM      3  C   LIG    1       -2.553   0.996  -2.682  0.00  0.00    +0.710 C 
ATOM      4  N   LIG    1       -1.539   0.615  -1.881  0.00  0.00    -0.730 N 
ATOM      5  H   LIG    1       -1.395  -0.326  -1.694  0.00  0.00    +0.390 HD
ATOM      6  O   LIG    1       -2.733   2.175  -2.916  0.00  0.00    -0.580 OA
ENDROOT
BRANCH   4   7
ATOM      7  C   LIG    1       -0.653   1.622  -1.292  0.00  0.00    +0.250 C 
ATOM      8  C   LIG    1        0.552   1.893  -2.220  0.00  0.00    -0.000 C 
ATOM      9  C   LIG    1        1.778   1.488  -1.371  0.00  0.00    +0.200 C 
ATOM     10  O   LIG    1        1.334   1.607  -0.002  0.00  0.00    -0.350 OA
ATOM     11  C   LIG    1       -0.013   1.086   0.008  0.00  0.00    +0.230 C 
BRANCH  11  12
ATOM     12  C   LIG    1       -0.762   1.593   1.213  0.00  0.00    -0.240 A 
ATOM     13  C   LIG    1       -1.593   0.867   1.997  0.00  0.00    +0.100 A 
ATOM     14  N   LIG    1       -2.060   1.682   2.966  0.00  0.00    -0.370 N 
ATOM     15  N   LIG    1       -1.504   2.952   2.766  0.00  0.00    -0.300 NA
ATOM     16  C   LIG    1       -2.989   1.306   4.035  0.00  0.00    +0.350 C 
ATOM     17  C   LIG    1       -1.934  -0.590   1.821  0.00  0.00    +0.140 C 
ATOM     18  C   LIG    1       -0.727   2.898   1.716  0.00  0.00    +0.100 A 
ATOM     19  C   LIG    1        0.069   4.043   1.145  0.00  0.00    +0.150 C 
ENDBRANCH  11  12
ENDBRANCH   4   7
BRANCH   1  20
ATOM     20  C   LIG    1       -4.471   0.483  -4.095  0.00  0.00    +0.370 C 
BRANCH  20  26
ATOM     21  C   LIG    1       -4.960  -3.214  -7.259  0.00  0.00    +0.180 C 
ATOM     22  C   LIG    1       -5.464  -2.475  -6.046  0.00  0.00    +0.320 A 
ATOM     23  N   LIG    1       -6.545  -2.912  -5.431  0.00  0.00    -0.510 NA
ATOM     24  C   LIG    1       -7.016  -2.288  -4.364  0.00  0.00    +0.320 A 
ATOM     25  C   LIG    1       -6.357  -1.163  -3.894  0.00  0.00    -0.070 A 
ATOM     26  C   LIG    1       -5.223  -0.734  -4.566  0.00  0.00    +0.160 A 
ATOM     27  N   LIG    1       -4.814  -1.406  -5.631  0.00  0.00    -0.500 NA
ENDBRANCH  20  26
ENDBRANCH   1  20
TORSDOF 4
