REMARK  Name = ZINCqH0000038CAA.0
REMARK                            x       y       z     vdW  Elec       q    Type
REMARK                         _______ _______ _______ _____ _____    ______ ____
ROOT
ATOM      1  C   LIG    1       -1.251   6.581  -0.053  0.00  0.00    +0.620 C 
ATOM      2  N   LIG    1       -0.078   5.923   0.034  0.00  0.00    -0.670 N 
ATOM      3  H   LIG    1        0.752   6.418   0.106  0.00  0.00    +0.420 HD
ATOM      4  O   LIG    1       -2.299   5.962  -0.046  0.00  0.00    -0.480 OA
ENDROOT
BRANCH   1   7
ATOM      5  C   LIG    1       -3.801   8.385  -0.269  0.00  0.00    +0.180 C 
ATOM      6  C   LIG    1       -2.366   8.843  -0.250  0.00  0.00    +0.110 A 
ATOM      7  C   LIG    1       -1.265   8.044  -0.155  0.00  0.00    -0.140 A 
ATOM      8  O   LIG    1       -0.187   8.863  -0.169  0.00  0.00    -0.190 OA
ATOM      9  C   LIG    1       -0.633  10.119  -0.277  0.00  0.00    +0.250 A 
ATOM     10  N   LIG    1       -1.938  10.108  -0.322  0.00  0.00    -0.480 NA
BRANCH   9  11
ATOM     11  C   LIG    1        0.233  11.351  -0.332  0.00  0.00    +0.180 C 
BRANCH  11  12
ATOM     12  C   LIG    1        0.475  11.868   1.087  0.00  0.00    -0.010 C 
ATOM     13  C   LIG    1       -0.851  12.332   1.694  0.00  0.00    +0.030 C 
ATOM     14  C   LIG    1        1.454  13.043   1.042  0.00  0.00    +0.030 C 
ENDBRANCH  11  12
ENDBRANCH   9  11
ENDBRANCH   1   7
BRANCH   2  15
ATOM     15  C   LIG    1       -0.059   4.524   0.021  0.00  0.00    +0.220 A 
ATOM     16  C   LIG    1        0.899   3.835   0.753  0.00  0.00    -0.010 A 
ATOM     17  C   LIG    1        0.915   2.454   0.738  0.00  0.00    +0.170 A 
ATOM     18  C   LIG    1       -0.021   1.758  -0.006  0.00  0.00    -0.680 A 
ATOM     19  C   LIG    1       -0.972   2.442  -0.740  0.00  0.00    +0.160 A 
ATOM     20  C   LIG    1       -0.998   3.822  -0.725  0.00  0.00    +0.010 A 
BRANCH  18  21
ATOM     21  S   LIG    1        0.004  -0.004  -0.023  0.00  0.00    +2.490 S 
ATOM     22  O   LIG    1        1.356  -0.338   0.257  0.00  0.00    -0.860 OA
ATOM     23  O   LIG    1       -0.595  -0.351  -1.264  0.00  0.00    -0.860 OA
BRANCH  21  24
ATOM     24  C   LIG    1       -1.069  -0.485   1.358  0.00  0.00    -0.020 C 
ATOM     25  F   LIG    1       -0.554   0.033   2.551  0.00  0.00    -0.160 F 
ATOM     26  F   LIG    1       -1.125  -1.880   1.442  0.00  0.00    -0.160 F 
ATOM     27  F   LIG    1       -2.356   0.022   1.147  0.00  0.00    -0.160 F 
ENDBRANCH  21  24
ENDBRANCH  18  21
ENDBRANCH   2  15
TORSDOF 6
