REMARK  Name = ZINCpe00000y7e79.0
REMARK                            x       y       z     vdW  Elec       q    Type
REMARK                         _______ _______ _______ _____ _____    ______ ____
ROOT
ATOM      1  C   LIG    1        1.528  -3.287   1.752  0.00  0.00    +0.520 C 
ATOM      2  N   LIG    1        0.944  -3.819   2.845  0.00  0.00    -0.620 N 
ATOM      3  C   LIG    1        1.056  -3.155   4.151  0.00  0.00    +0.270 C 
ATOM      4  C   LIG    1       -0.355  -2.915   4.701  0.00  0.00    +0.270 C 
ATOM      5  N   LIG    1       -1.115  -4.169   4.607  0.00  0.00    -0.600 N 
ATOM      6  C   LIG    1       -1.227  -4.833   3.301  0.00  0.00    +0.210 C 
ATOM      7  C   LIG    1       -1.948  -6.173   3.466  0.00  0.00    +0.060 C 
ATOM      8  C   LIG    1       -1.699  -4.701   5.699  0.00  0.00    +0.560 C 
ATOM      9  O   LIG    1       -2.318  -5.743   5.611  0.00  0.00    -0.510 OA
ATOM     10  C   LIG    1        0.179  -5.070   2.749  0.00  0.00    +0.280 C 
ATOM     11  O   LIG    1        1.429  -3.844   0.680  0.00  0.00    -0.520 OA
ENDROOT
BRANCH   8  12
ATOM     12  C   LIG    1       -1.585  -4.016   7.008  0.00  0.00    -0.040 A 
ATOM     13  C   LIG    1       -1.486  -2.622   7.082  0.00  0.00    -0.080 A 
ATOM     14  C   LIG    1       -1.387  -2.020   8.320  0.00  0.00    +0.310 A 
ATOM     15  N   LIG    1       -1.374  -2.738   9.426  0.00  0.00    -0.530 NA
ATOM     16  C   LIG    1       -1.461  -4.059   9.404  0.00  0.00    +0.410 A 
ATOM     17  C   LIG    1       -1.569  -4.744   8.198  0.00  0.00    -0.040 A 
BRANCH  16  18
ATOM     18  N   LIG    1       -1.444  -4.769  10.599  0.00  0.00    -0.850 N 
ATOM     19  H   LIG    1       -1.368  -4.297  11.443  0.00  0.00    +0.410 HD
ATOM     20  H   LIG    1       -1.507  -5.737  10.589  0.00  0.00    +0.410 HD
ENDBRANCH  16  18
ENDBRANCH   8  12
BRANCH   1  21
ATOM     21  C   LIG    1        2.303  -2.000   1.864  0.00  0.00    +0.050 C 
BRANCH  21  26
ATOM     22  C   LIG    1        6.094   0.328   1.232  0.00  0.00    +0.170 C 
ATOM     23  C   LIG    1        5.006  -0.611   0.778  0.00  0.00    +0.080 C 
ATOM     24  N   LIG    1        5.149  -1.855   0.532  0.00  0.00    -0.300 NA
ATOM     25  O   LIG    1        3.952  -2.481   0.116  0.00  0.00    -0.180 OA
ATOM     26  C   LIG    1        2.858  -1.618   0.490  0.00  0.00    +0.180 C 
ATOM     27  C   LIG    1        3.556  -0.237   0.537  0.00  0.00    +0.060 C 
ENDBRANCH  21  26
ENDBRANCH   1  21
TORSDOF 4
