REMARK  Name = ZINCkj00000dDVXU.0
REMARK                            x       y       z     vdW  Elec       q    Type
REMARK                         _______ _______ _______ _____ _____    ______ ____
ROOT
ATOM      1  N   LIG    1       -2.107   1.071   1.277  0.00  0.00    -0.490 N 
ATOM      2  H   LIG    1       -2.553   1.327   2.145  0.00  0.00    +0.430 HD
ATOM      3  H   LIG    1       -2.095   0.066   1.189  0.00  0.00    +0.430 HD
ENDROOT
BRANCH   1   4
ATOM      4  C   LIG    1       -0.729   1.579   1.267  0.00  0.00    +0.170 C 
ATOM      5  C   LIG    1       -0.013   1.086   0.008  0.00  0.00    +0.110 C 
BRANCH   4   6
ATOM      6  C   LIG    1        0.011   1.072   2.506  0.00  0.00    +0.370 C 
BRANCH   6  10
ATOM      7  C   LIG    1       -2.188   1.503   6.989  0.00  0.00    +0.130 C 
ATOM      8  C   LIG    1       -1.561   1.836   5.660  0.00  0.00    -0.210 A 
ATOM      9  C   LIG    1       -1.083   0.946   4.760  0.00  0.00    +0.210 A 
ATOM     10  N   LIG    1       -0.603   1.642   3.708  0.00  0.00    -0.410 N 
ATOM     11  N   LIG    1       -0.801   3.004   3.966  0.00  0.00    -0.270 NA
ATOM     12  C   LIG    1       -1.375   3.120   5.136  0.00  0.00    +0.250 A 
ENDBRANCH   6  10
ENDBRANCH   4   6
ENDBRANCH   1   4
BRANCH   1  13
ATOM     13  C   LIG    1       -2.852   1.653   0.153  0.00  0.00    +0.230 C 
BRANCH  13  14
ATOM     14  C   LIG    1       -4.227   1.039   0.090  0.00  0.00    -0.150 A 
ATOM     15  C   LIG    1       -4.926   0.788   1.256  0.00  0.00    +0.010 A 
ATOM     16  C   LIG    1       -6.189   0.229   1.199  0.00  0.00    +0.040 A 
ATOM     17  C   LIG    1       -6.749  -0.087  -0.025  0.00  0.00    +0.060 A 
ATOM     18  C   LIG    1       -6.049   0.159  -1.191  0.00  0.00    +0.040 A 
ATOM     19  C   LIG    1       -4.787   0.722  -1.133  0.00  0.00    +0.050 A 
ENDBRANCH  13  14
BRANCH  13  20
ATOM     20  C   LIG    1       -2.975   3.142   0.349  0.00  0.00    +0.510 C 
ATOM     21  O   LIG    1       -2.490   3.667   1.329  0.00  0.00    -0.500 OA
ATOM     22  N   LIG    1       -3.624   3.890  -0.565  0.00  0.00    -0.820 N 
ATOM     23  H   LIG    1       -3.704   4.849  -0.439  0.00  0.00    +0.420 HD
ATOM     24  H   LIG    1       -4.013   3.470  -1.348  0.00  0.00    +0.410 HD
ENDBRANCH  13  20
ENDBRANCH   1  13
TORSDOF 6
