REMARK  Name = ZINCpk000000n3GS.0
REMARK                            x       y       z     vdW  Elec       q    Type
REMARK                         _______ _______ _______ _____ _____    ______ ____
ROOT
ATOM      1  C   LIG    1        0.204   0.959   4.880  0.00  0.00    +0.150 A 
ATOM      2  C   LIG    1        1.464   0.382   4.779  0.00  0.00    +0.030 A 
ATOM      3  C   LIG    1        2.187   0.087   5.921  0.00  0.00    +0.060 A 
ATOM      4  C   LIG    1        1.660   0.365   7.161  0.00  0.00    -0.100 A 
ATOM      5  C   LIG    1        2.173   0.174   8.567  0.00  0.00    +0.330 C 
ATOM      6  N   LIG    1        1.124   0.679   9.460  0.00  0.00    -0.610 N 
ATOM      7  C   LIG    1        0.098   1.124   8.713  0.00  0.00    +0.570 C 
ATOM      8  O   LIG    1       -0.926   1.605   9.157  0.00  0.00    -0.510 OA
ATOM      9  C   LIG    1        0.394   0.945   7.279  0.00  0.00    -0.130 A 
ATOM     10  C   LIG    1       -0.332   1.247   6.126  0.00  0.00    +0.100 A 
ENDROOT
BRANCH   6  11
ATOM     11  C   LIG    1        1.185   0.696  10.923  0.00  0.00    +0.290 C 
ATOM     12  C   LIG    1        1.219   2.146  11.418  0.00  0.00    +0.060 C 
ATOM     13  C   LIG    1        2.516   2.798  10.926  0.00  0.00    +0.090 C 
ATOM     14  C   LIG    1        3.689   1.974  11.386  0.00  0.00    +0.520 C 
ATOM     15  N   LIG    1        3.579   0.651  11.577  0.00  0.00    -0.670 N 
ATOM     16  H   LIG    1        4.362   0.156  11.866  0.00  0.00    +0.420 HD
ATOM     17  O   LIG    1        4.754   2.518  11.588  0.00  0.00    -0.490 OA
ATOM     18  C   LIG    1        2.430  -0.014  11.383  0.00  0.00    +0.520 C 
ATOM     19  O   LIG    1        2.395  -1.209  11.583  0.00  0.00    -0.480 OA
ENDBRANCH   6  11
BRANCH   1  21
ATOM     20  C   LIG    1       -1.869   1.164   3.730  0.00  0.00    +0.520 C 
ATOM     21  N   LIG    1       -0.524   1.255   3.722  0.00  0.00    -0.670 N 
ATOM     22  H   LIG    1       -0.061   1.526   2.914  0.00  0.00    +0.410 HD
ATOM     23  O   LIG    1       -2.442   0.734   4.708  0.00  0.00    -0.510 OA
BRANCH  20  25
ATOM     24  C   LIG    1       -4.152   1.390   2.789  0.00  0.00    +0.060 C 
ATOM     25  C   LIG    1       -2.660   1.595   2.522  0.00  0.00    -0.080 C 
ATOM     26  C   LIG    1       -2.391   3.074   2.238  0.00  0.00    +0.050 C 
ATOM     27  C   LIG    1       -2.239   0.759   1.311  0.00  0.00    +0.050 C 
ENDBRANCH  20  25
ENDBRANCH   1  21
TORSDOF 3
