REMARK  Name = ZINCrH000004uJDn.0
REMARK                            x       y       z     vdW  Elec       q    Type
REMARK                         _______ _______ _______ _____ _____    ______ ____
ROOT
ATOM      1  O   LIG    1        3.691   0.700   3.624  0.00  0.00    -0.520 OA
ATOM      2  C   LIG    1        2.774  -0.100   3.665  0.00  0.00    +0.600 C 
ATOM      3  N   LIG    1        1.539   0.270   3.274  0.00  0.00    -0.730 N 
ATOM      4  H   LIG    1        0.808  -0.367   3.306  0.00  0.00    +0.400 HD
ENDROOT
BRANCH   2   5
ATOM      5  C   LIG    1        3.014  -1.465   4.139  0.00  0.00    -0.270 A 
ATOM      6  C   LIG    1        4.219  -1.951   4.559  0.00  0.00    +0.110 A 
ATOM      7  C   LIG    1        4.216  -3.260   4.962  0.00  0.00    -0.110 A 
ATOM      8  C   LIG    1        2.972  -3.858   4.879  0.00  0.00    -0.130 A 
ATOM      9  C   LIG    1        2.767  -5.264   5.291  0.00  0.00    -0.030 A 
ATOM     10  C   LIG    1        1.614  -5.966   4.969  0.00  0.00    +0.020 A 
ATOM     11  C   LIG    1        1.488  -7.286   5.362  0.00  0.00    +0.010 A 
ATOM     12  C   LIG    1        2.505  -7.892   6.077  0.00  0.00    +0.020 A 
ATOM     13  C   LIG    1        3.644  -7.186   6.421  0.00  0.00    +0.010 A 
ATOM     14  C   LIG    1        3.780  -5.864   6.049  0.00  0.00    -0.060 A 
ATOM     15  C   LIG    1        4.977  -5.071   6.491  0.00  0.00    +0.080 C 
ATOM     16  C   LIG    1        5.420  -4.054   5.444  0.00  0.00    +0.120 C 
ATOM     17  S   LIG    1        1.792  -2.724   4.262  0.00  0.00    +0.190 S 
ENDBRANCH   2   5
BRANCH   3  18
ATOM     18  C   LIG    1        1.299   1.635   2.799  0.00  0.00    +0.420 C 
BRANCH  18  19
ATOM     19  C   LIG    1       -0.153   1.790   2.426  0.00  0.00    +0.140 A 
ATOM     20  N   LIG    1       -1.121   2.172   3.216  0.00  0.00    -0.270 NA
ATOM     21  N   LIG    1       -2.230   2.199   2.562  0.00  0.00    -0.290 NA
ATOM     22  C   LIG    1       -2.017   1.841   1.328  0.00  0.00    +0.190 A 
ATOM     23  C   LIG    1       -3.031   1.754   0.217  0.00  0.00    +0.160 C 
ATOM     24  C   LIG    1       -2.855   0.422  -0.518  0.00  0.00    +0.020 C 
ATOM     25  C   LIG    1       -1.830   0.587  -1.636  0.00  0.00    +0.020 C 
ATOM     26  C   LIG    1       -0.754   1.593  -1.232  0.00  0.00    +0.030 C 
ATOM     27  C   LIG    1       -0.013   1.086   0.008  0.00  0.00    +0.290 C 
ATOM     28  N   LIG    1       -0.698   1.558   1.211  0.00  0.00    -0.460 N 
ENDBRANCH  18  19
ENDBRANCH   3  18
TORSDOF 3
