REMARK  Name = ZINCpe000000URow.1
REMARK                            x       y       z     vdW  Elec       q    Type
REMARK                         _______ _______ _______ _____ _____    ______ ____
ROOT
ATOM      1  C   LIG    1        0.614   3.525   0.015  0.00  0.00    +0.190 C 
ATOM      2  C   LIG    1        1.207   2.101   0.002  0.00  0.00    +0.100 C 
ATOM      3  C   LIG    1       -0.014   1.208   0.009  0.00  0.00    +0.520 C 
ATOM      4  N   LIG    1       -1.116   1.969   0.017  0.00  0.00    -0.570 N 
ATOM      5  O   LIG    1        0.002  -0.004   0.002  0.00  0.00    -0.470 OA
ATOM      6  C   LIG    1       -0.880   3.286   0.027  0.00  0.00    +0.490 C 
ATOM      7  O   LIG    1       -1.729   4.152   0.039  0.00  0.00    -0.470 OA
ENDROOT
BRANCH   1  11
ATOM      8  C   LIG    1        0.622   5.676  -3.681  0.00  0.00    -0.010 C 
ATOM      9  C   LIG    1        0.998   6.401  -2.385  0.00  0.00    +0.060 C 
ATOM     10  C   LIG    1        0.449   5.618  -1.190  0.00  0.00    +0.190 C 
ATOM     11  N   LIG    1        1.010   4.261  -1.194  0.00  0.00    -0.500 NA
ATOM     12  C   LIG    1        0.622   3.529  -2.406  0.00  0.00    +0.170 C 
ATOM     13  C   LIG    1        1.176   4.249  -3.638  0.00  0.00    +0.060 C 
BRANCH   8  17
ATOM     14  C   LIG    1        1.580   6.663  -7.253  0.00  0.00    +0.290 C 
ATOM     15  N   LIG    1        1.007   5.950  -6.109  0.00  0.00    -0.740 N 
ATOM     16  H   LIG    1        0.482   5.147  -6.251  0.00  0.00    +0.400 HD
ATOM     17  C   LIG    1        1.210   6.410  -4.858  0.00  0.00    +0.520 C 
ATOM     18  O   LIG    1        1.867   7.414  -4.680  0.00  0.00    -0.530 OA
ENDBRANCH   8  17
ENDBRANCH   1  11
BRANCH   4  19
ATOM     19  C   LIG    1       -2.468   1.405   0.021  0.00  0.00    +0.290 C 
BRANCH  19  20
ATOM     20  C   LIG    1       -2.933   1.202   1.464  0.00  0.00    +0.070 C 
BRANCH  20  21
ATOM     21  C   LIG    1       -4.324   0.623   1.467  0.00  0.00    -0.090 A 
ATOM     22  C   LIG    1       -5.423   1.462   1.482  0.00  0.00    +0.010 A 
ATOM     23  C   LIG    1       -6.699   0.930   1.480  0.00  0.00    +0.000 A 
ATOM     24  C   LIG    1       -6.876  -0.441   1.473  0.00  0.00    +0.000 A 
ATOM     25  C   LIG    1       -5.778  -1.280   1.464  0.00  0.00    +0.000 A 
ATOM     26  C   LIG    1       -4.502  -0.748   1.462  0.00  0.00    +0.010 A 
ENDBRANCH  20  21
ENDBRANCH  19  20
ENDBRANCH   4  19
TORSDOF 5
