REMARK  Name = ZINCqH0000031Ehv.0
REMARK                            x       y       z     vdW  Elec       q    Type
REMARK                         _______ _______ _______ _____ _____    ______ ____
ROOT
ATOM      1  C   LIG    1       -0.049   3.847   0.023  0.00  0.00    +0.160 A 
ATOM      2  C   LIG    1        1.160   3.164   0.008  0.00  0.00    -0.110 A 
ATOM      3  C   LIG    1        1.175   1.782   0.000  0.00  0.00    +0.070 A 
ATOM      4  C   LIG    1       -0.013   1.076   0.008  0.00  0.00    -0.100 A 
ATOM      5  C   LIG    1       -1.226   1.754   0.017  0.00  0.00    +0.240 A 
ATOM      6  C   LIG    1       -1.244   3.141   0.030  0.00  0.00    -0.100 A 
ENDROOT
BRANCH   1  12
ATOM      7  C   LIG    1       -0.193   9.465  -2.612  0.00  0.00    +0.100 C 
ATOM      8  C   LIG    1        0.745   8.898  -1.579  0.00  0.00    +0.510 C 
ATOM      9  N   LIG    1        0.350   7.871  -0.800  0.00  0.00    -0.620 N 
ATOM     10  C   LIG    1        1.250   7.303   0.215  0.00  0.00    +0.290 C 
ATOM     11  C   LIG    1        1.303   5.784   0.022  0.00  0.00    +0.190 C 
ATOM     12  N   LIG    1       -0.063   5.244   0.032  0.00  0.00    -0.490 N 
ATOM     13  C   LIG    1       -0.851   5.770  -1.091  0.00  0.00    +0.190 C 
ATOM     14  C   LIG    1       -0.993   7.288  -0.944  0.00  0.00    +0.290 C 
ATOM     15  O   LIG    1        1.857   9.366  -1.447  0.00  0.00    -0.540 OA
ENDBRANCH   1  12
BRANCH   5  16
ATOM     16  N   LIG    1       -2.426   1.039   0.019  0.00  0.00    -0.730 N 
ATOM     17  H   LIG    1       -3.272   1.512   0.026  0.00  0.00    +0.400 HD
BRANCH  16  18
ATOM     18  C   LIG    1       -2.406  -0.426   0.011  0.00  0.00    +0.240 C 
ATOM     19  C   LIG    1       -2.828  -1.040  -1.334  0.00  0.00    +0.010 C 
ATOM     20  C   LIG    1       -3.588  -2.102  -0.521  0.00  0.00    +0.030 C 
ATOM     21  C   LIG    1       -3.672  -1.062   0.609  0.00  0.00    +0.030 C 
BRANCH  20  22
ATOM     22  C   LIG    1       -4.928  -2.465  -1.107  0.00  0.00    -0.070 A 
ATOM     23  C   LIG    1       -5.717  -1.489  -1.687  0.00  0.00    +0.000 A 
ATOM     24  C   LIG    1       -6.944  -1.823  -2.229  0.00  0.00    +0.000 A 
ATOM     25  C   LIG    1       -7.387  -3.132  -2.182  0.00  0.00    +0.000 A 
ATOM     26  C   LIG    1       -6.601  -4.107  -1.598  0.00  0.00    +0.000 A 
ATOM     27  C   LIG    1       -5.371  -3.774  -1.060  0.00  0.00    +0.000 A 
ENDBRANCH  20  22
ENDBRANCH  16  18
ENDBRANCH   5  16
TORSDOF 4
