REMARK  Name = ZINCAx0000000cs2.0
REMARK                            x       y       z     vdW  Elec       q    Type
REMARK                         _______ _______ _______ _____ _____    ______ ____
ROOT
ATOM      1  O   LIG    1       -1.503   6.485  -0.242  0.00  0.00    -0.490 OA
ATOM      2  C   LIG    1       -2.550   5.872  -0.244  0.00  0.00    +0.520 C 
ATOM      3  N   LIG    1       -2.548   4.538  -0.434  0.00  0.00    -0.670 N 
ATOM      4  H   LIG    1       -3.388   4.058  -0.513  0.00  0.00    +0.420 HD
ENDROOT
BRANCH   3   5
ATOM      5  C   LIG    1       -1.336   3.844  -0.517  0.00  0.00    +0.130 A 
ATOM      6  C   LIG    1       -0.207   4.338   0.122  0.00  0.00    +0.080 A 
ATOM      7  C   LIG    1        0.989   3.651   0.038  0.00  0.00    +0.030 A 
ATOM      8  C   LIG    1        1.062   2.473  -0.683  0.00  0.00    +0.110 A 
ATOM      9  C   LIG    1       -0.061   1.979  -1.321  0.00  0.00    -0.660 A 
ATOM     10  C   LIG    1       -1.258   2.663  -1.244  0.00  0.00    +0.090 A 
BRANCH   9  11
ATOM     11  S   LIG    1        0.037   0.478  -2.238  0.00  0.00    +2.690 S 
ATOM     12  O   LIG    1        1.401   0.320  -2.604  0.00  0.00    -0.950 OA
ATOM     13  O   LIG    1       -1.023   0.516  -3.185  0.00  0.00    -0.950 OA
BRANCH  11  14
ATOM     14  N   LIG    1       -0.314  -0.759  -1.194  0.00  0.00    -1.000 NA
ATOM     15  C   LIG    1        0.750  -1.428  -0.428  0.00  0.00    +0.280 C 
ATOM     16  C   LIG    1        0.331  -1.456   1.051  0.00  0.00    +0.220 C 
ATOM     17  O   LIG    1       -0.978  -2.021   1.156  0.00  0.00    -0.370 OA
ATOM     18  C   LIG    1       -1.996  -1.267   0.494  0.00  0.00    +0.220 C 
ATOM     19  C   LIG    1       -1.697  -1.226  -1.009  0.00  0.00    +0.280 C 
ENDBRANCH  11  14
ENDBRANCH   9  11
ENDBRANCH   3   5
BRANCH   2  20
ATOM     20  C   LIG    1       -3.851   6.602  -0.034  0.00  0.00    +0.270 C 
BRANCH  20  21
ATOM     21  O   LIG    1       -3.588   8.018   0.146  0.00  0.00    -0.320 OA
BRANCH  21  22
ATOM     22  C   LIG    1       -4.654   8.818   0.347  0.00  0.00    +0.510 C 
ATOM     23  O   LIG    1       -5.772   8.344   0.370  0.00  0.00    -0.480 OA
BRANCH  22  24
ATOM     24  C   LIG    1       -4.463  10.271   0.538  0.00  0.00    -0.100 A 
ATOM     25  C   LIG    1       -3.196  10.833   0.411  0.00  0.00    +0.090 A 
ATOM     26  C   LIG    1       -3.021  12.193   0.591  0.00  0.00    +0.020 A 
ATOM     27  C   LIG    1       -4.100  13.003   0.897  0.00  0.00    +0.060 A 
ATOM     28  C   LIG    1       -5.366  12.463   1.027  0.00  0.00    +0.040 A 
ATOM     29  C   LIG    1       -5.562  11.096   0.844  0.00  0.00    -0.080 A 
BRANCH  29  30
ATOM     30  C   LIG    1       -6.915  10.515   0.975  0.00  0.00    +0.450 C 
ATOM     31  O   LIG    1       -7.400  10.347   2.077  0.00  0.00    -0.440 OA
BRANCH  30  32
ATOM     32  C   LIG    1       -7.677  10.137  -0.233  0.00  0.00    -0.140 A 
ATOM     33  C   LIG    1       -7.088  10.240  -1.495  0.00  0.00    +0.050 A 
ATOM     34  C   LIG    1       -7.803   9.881  -2.618  0.00  0.00    +0.000 A 
ATOM     35  C   LIG    1       -9.107   9.430  -2.497  0.00  0.00    +0.040 A 
ATOM     36  C   LIG    1       -9.699   9.332  -1.250  0.00  0.00    +0.000 A 
ATOM     37  C   LIG    1       -8.993   9.682  -0.118  0.00  0.00    +0.070 A 
ENDBRANCH  30  32
ENDBRANCH  29  30
ENDBRANCH  22  24
ENDBRANCH  21  22
ENDBRANCH  20  21
ENDBRANCH   2  20
TORSDOF 9
