REMARK  Name = ZINCvU0000000E0Y.0
REMARK                            x       y       z     vdW  Elec       q    Type
REMARK                         _______ _______ _______ _____ _____    ______ ____
ROOT
ATOM      1  C   LIG    1        2.426  -0.238   0.080  0.00  0.00    +0.540 C 
ATOM      2  N   LIG    1        2.402   1.106  -0.015  0.00  0.00    -0.670 N 
ATOM      3  H   LIG    1        3.233   1.602  -0.086  0.00  0.00    +0.420 HD
ATOM      4  O   LIG    1        1.387  -0.864   0.087  0.00  0.00    -0.490 OA
ENDROOT
BRANCH   2   5
ATOM      5  C   LIG    1        1.179   1.786  -0.010  0.00  0.00    +0.250 A 
ATOM      6  C   LIG    1        0.064   1.216  -0.608  0.00  0.00    +0.060 A 
ATOM      7  C   LIG    1       -1.141   1.892  -0.607  0.00  0.00    +0.170 A 
ATOM      8  C   LIG    1       -1.239   3.131   0.000  0.00  0.00    -0.060 A 
ATOM      9  C   LIG    1       -0.130   3.702   0.596  0.00  0.00    +0.190 A 
ATOM     10  C   LIG    1        1.079   3.034   0.593  0.00  0.00    -0.220 A 
BRANCH  10  11
ATOM     11  C   LIG    1        2.287   3.657   1.243  0.00  0.00    +0.520 C 
ATOM     12  F   LIG    1        3.296   3.824   0.288  0.00  0.00    -0.170 F 
ATOM     13  F   LIG    1        2.748   2.823   2.267  0.00  0.00    -0.170 F 
ATOM     14  F   LIG    1        1.939   4.902   1.776  0.00  0.00    -0.160 F 
ENDBRANCH  10  11
BRANCH   8  15
ATOM     15  N   LIG    1       -2.533   3.850   0.005  0.00  0.00    +0.030 N 
ATOM     16  O   LIG    1       -3.511   3.348  -0.519  0.00  0.00    -0.150 OA
ATOM     17  O   LIG    1       -2.619   4.944   0.534  0.00  0.00    -0.150 OA
ENDBRANCH   8  15
ENDBRANCH   2   5
BRANCH   1  18
ATOM     18  C   LIG    1        3.744  -0.963   0.178  0.00  0.00    +0.110 C 
BRANCH  18  19
ATOM     19  S   LIG    1        3.445  -2.745   0.291  0.00  0.00    +0.030 S 
BRANCH  19  24
ATOM     20  C   LIG    1        9.722  -2.364   0.489  0.00  0.00    +0.150 A 
ATOM     21  C   LIG    1        8.420  -1.925   0.412  0.00  0.00    -0.010 A 
ATOM     22  C   LIG    1        7.370  -2.857   0.439  0.00  0.00    +0.190 A 
ATOM     23  N   LIG    1        6.095  -2.458   0.366  0.00  0.00    -0.500 NA
ATOM     24  C   LIG    1        5.104  -3.328   0.391  0.00  0.00    +0.150 A 
ATOM     25  C   LIG    1        5.341  -4.705   0.501  0.00  0.00    -0.030 A 
ATOM     26  C   LIG    1        6.620  -5.171   0.573  0.00  0.00    +0.010 A 
ATOM     27  C   LIG    1        6.898  -6.648   0.686  0.00  0.00    +0.130 C 
ATOM     28  C   LIG    1        7.675  -4.237   0.546  0.00  0.00    -0.140 A 
ATOM     29  C   LIG    1        9.014  -4.652   0.623  0.00  0.00    +0.090 A 
ATOM     30  C   LIG    1       10.012  -3.728   0.595  0.00  0.00    -0.050 A 
BRANCH  20  32
ATOM     31  C   LIG    1       12.067  -1.979   0.547  0.00  0.00    +0.240 C 
ATOM     32  O   LIG    1       10.737  -1.462   0.463  0.00  0.00    -0.310 OA
ENDBRANCH  20  32
ENDBRANCH  19  24
ENDBRANCH  18  19
ENDBRANCH   1  18
TORSDOF 7
