REMARK  Name = ZINCqH0000006JbZ.0
REMARK                            x       y       z     vdW  Elec       q    Type
REMARK                         _______ _______ _______ _____ _____    ______ ____
ROOT
ATOM      1  N   LIG    1        1.363  -4.845  -2.646  0.00  0.00    -0.670 N 
ATOM      2  H   LIG    1        1.261  -4.362  -3.480  0.00  0.00    +0.410 HD
ATOM      3  C   LIG    1        1.351  -4.177  -1.475  0.00  0.00    +0.510 C 
ATOM      4  O   LIG    1        1.379  -4.789  -0.428  0.00  0.00    -0.520 OA
ENDROOT
BRANCH   1   8
ATOM      5  C   LIG    1        1.842  -8.990  -2.684  0.00  0.00    +0.090 A 
ATOM      6  C   LIG    1        1.206  -8.355  -3.738  0.00  0.00    -0.010 A 
ATOM      7  C   LIG    1        1.048  -6.982  -3.726  0.00  0.00    -0.110 A 
ATOM      8  C   LIG    1        1.525  -6.237  -2.656  0.00  0.00    +0.150 A 
ATOM      9  C   LIG    1        2.167  -6.870  -1.600  0.00  0.00    -0.020 A 
ATOM     10  C   LIG    1        0.356  -6.294  -4.874  0.00  0.00    +0.090 C 
ATOM     11  C   LIG    1        2.321  -8.245  -1.610  0.00  0.00    +0.120 A 
BRANCH   5  13
ATOM     12  C   LIG    1        1.482 -11.043  -3.831  0.00  0.00    +0.230 C 
ATOM     13  O   LIG    1        1.998 -10.342  -2.698  0.00  0.00    -0.310 OA
ENDBRANCH   5  13
BRANCH  11  14
ATOM     14  O   LIG    1        2.945  -8.868  -0.574  0.00  0.00    -0.300 OA
ATOM     15  C   LIG    1        3.411  -8.041   0.494  0.00  0.00    +0.240 C 
ENDBRANCH  11  14
ENDBRANCH   1   8
BRANCH   3  16
ATOM     16  C   LIG    1        1.302  -2.671  -1.467  0.00  0.00    +0.060 C 
BRANCH  16  17
ATOM     17  C   LIG    1        1.297  -2.168  -0.022  0.00  0.00    +0.120 C 
BRANCH  17  18
ATOM     18  C   LIG    1        1.249  -0.662  -0.014  0.00  0.00    -0.200 A 
ATOM     19  C   LIG    1        0.035   0.007  -0.002  0.00  0.00    +0.200 A 
ATOM     20  N   LIG    1        0.028   1.330   0.005  0.00  0.00    -0.510 NA
ATOM     21  C   LIG    1        1.163   2.014   0.000  0.00  0.00    +0.300 A 
ATOM     22  N   LIG    1        2.340   1.404  -0.012  0.00  0.00    -0.530 NA
ATOM     23  C   LIG    1       -1.260  -0.763   0.005  0.00  0.00    +0.160 C 
ATOM     24  C   LIG    1        2.417   0.084  -0.019  0.00  0.00    +0.200 A 
ATOM     25  C   LIG    1        3.760  -0.602  -0.033  0.00  0.00    +0.150 C 
BRANCH  21  26
ATOM     26  S   LIG    1        1.107   3.775   0.010  0.00  0.00    +0.010 S 
ATOM     27  C   LIG    1        2.878   4.146  -0.002  0.00  0.00    +0.150 C 
ENDBRANCH  21  26
ENDBRANCH  17  18
ENDBRANCH  16  17
ENDBRANCH   3  16
TORSDOF 7
