REMARK  Name = ZINCrD00000kCy7G.0
REMARK                            x       y       z     vdW  Elec       q    Type
REMARK                         _______ _______ _______ _____ _____    ______ ____
ROOT
ATOM      1  C   LIG    1       -3.812   1.755   0.030  0.00  0.00    +0.280 C 
ENDROOT
BRANCH   1   2
ATOM      2  C   LIG    1       -4.134   2.224  -1.366  0.00  0.00    -0.100 A 
ATOM      3  C   LIG    1       -4.673   1.343  -2.284  0.00  0.00    +0.020 A 
ATOM      4  C   LIG    1       -4.973   1.775  -3.563  0.00  0.00    +0.010 A 
ATOM      5  C   LIG    1       -4.725   3.086  -3.925  0.00  0.00    +0.020 A 
ATOM      6  C   LIG    1       -4.182   3.966  -3.008  0.00  0.00    +0.010 A 
ATOM      7  C   LIG    1       -3.886   3.535  -1.728  0.00  0.00    +0.030 A 
ENDBRANCH   1   2
BRANCH   1   8
ATOM      8  N   LIG    1       -4.873   0.863   0.502  0.00  0.00    -0.700 N 
ATOM      9  H   LIG    1       -4.778  -0.098   0.406  0.00  0.00    +0.420 HD
ATOM     10  C   LIG    1       -5.982   1.377   1.070  0.00  0.00    +0.500 C 
ATOM     11  O   LIG    1       -6.101   2.577   1.191  0.00  0.00    -0.440 OA
BRANCH  10  12
ATOM     12  C   LIG    1       -7.074   0.459   1.556  0.00  0.00    +0.370 C 
ATOM     13  F   LIG    1       -6.506  -0.716   2.061  0.00  0.00    -0.170 F 
ATOM     14  F   LIG    1       -7.927   0.145   0.493  0.00  0.00    -0.160 F 
BRANCH  12  15
ATOM     15  C   LIG    1       -7.859   1.145   2.645  0.00  0.00    +0.250 A 
ATOM     16  N   LIG    1       -7.517   2.364   3.011  0.00  0.00    -0.450 NA
ATOM     17  C   LIG    1       -8.187   2.999   3.959  0.00  0.00    +0.330 A 
ATOM     18  C   LIG    1       -9.253   2.362   4.575  0.00  0.00    -0.040 A 
ATOM     19  C   LIG    1       -9.579   1.078   4.166  0.00  0.00    +0.330 A 
ATOM     20  N   LIG    1       -8.867   0.508   3.208  0.00  0.00    -0.480 NA
ENDBRANCH  12  15
ENDBRANCH  10  12
ENDBRANCH   1   8
BRANCH   1  22
ATOM     21  O   LIG    1       -2.489  -0.199   0.013  0.00  0.00    -0.440 OA
ATOM     22  C   LIG    1       -2.500   1.013   0.019  0.00  0.00    +0.400 C 
BRANCH  22  23
ATOM     23  C   LIG    1       -1.232   1.760   0.018  0.00  0.00    -0.170 A 
ATOM     24  C   LIG    1       -0.013   1.076   0.008  0.00  0.00    +0.080 A 
ATOM     25  C   LIG    1        1.171   1.783   0.001  0.00  0.00    +0.000 A 
ATOM     26  C   LIG    1        1.154   3.167   0.008  0.00  0.00    +0.050 A 
ATOM     27  C   LIG    1       -0.049   3.852   0.022  0.00  0.00    +0.000 A 
ATOM     28  C   LIG    1       -1.240   3.159   0.030  0.00  0.00    +0.060 A 
ENDBRANCH  22  23
ENDBRANCH   1  22
TORSDOF 6
