REMARK  Name = ZINCrH000004mW2a.0
REMARK                            x       y       z     vdW  Elec       q    Type
REMARK                         _______ _______ _______ _____ _____    ______ ____
ROOT
ATOM      1  C   LIG    1        0.625  -0.612  -1.057  0.00  0.00    +0.160 A 
ATOM      2  C   LIG    1        1.197   0.148  -2.064  0.00  0.00    -0.070 A 
ATOM      3  C   LIG    1        1.812  -0.473  -3.135  0.00  0.00    +0.150 A 
ATOM      4  C   LIG    1        1.859  -1.853  -3.206  0.00  0.00    -0.700 A 
ATOM      5  C   LIG    1        1.291  -2.619  -2.205  0.00  0.00    +0.170 A 
ATOM      6  C   LIG    1        0.677  -2.003  -1.125  0.00  0.00    +0.100 A 
ENDROOT
BRANCH   6   7
ATOM      7  N   LIG    1        0.105  -2.778  -0.107  0.00  0.00    -0.670 N 
ATOM      8  H   LIG    1        0.133  -2.468   0.812  0.00  0.00    +0.420 HD
ATOM      9  C   LIG    1       -0.483  -3.953  -0.404  0.00  0.00    +0.510 C 
ATOM     10  O   LIG    1       -0.447  -4.380  -1.539  0.00  0.00    -0.510 OA
BRANCH   9  11
ATOM     11  C   LIG    1       -1.185  -4.738   0.674  0.00  0.00    +0.070 C 
BRANCH  11  12
ATOM     12  C   LIG    1       -1.762  -6.023   0.076  0.00  0.00    +0.000 C 
ATOM     13  C   LIG    1       -2.896  -5.683  -0.913  0.00  0.00    +0.020 C 
ATOM     14  C   LIG    1       -3.937  -6.811  -0.698  0.00  0.00    +0.000 C 
ATOM     15  C   LIG    1       -3.882  -7.040   0.833  0.00  0.00    -0.010 C 
ATOM     16  C   LIG    1       -2.388  -6.886   1.185  0.00  0.00    +0.010 C 
ENDBRANCH  11  12
ENDBRANCH   9  11
ENDBRANCH   6   7
BRANCH   4  17
ATOM     17  S   LIG    1        2.645  -2.636  -4.574  0.00  0.00    +2.690 S 
ATOM     18  O   LIG    1        2.623  -1.698  -5.641  0.00  0.00    -0.950 OA
ATOM     19  O   LIG    1        2.079  -3.937  -4.671  0.00  0.00    -0.950 OA
BRANCH  17  20
ATOM     20  N   LIG    1        4.237  -2.848  -4.170  0.00  0.00    -0.990 NA
ATOM     21  C   LIG    1        5.180  -1.802  -4.499  0.00  0.00    +0.280 C 
ATOM     22  C   LIG    1        5.750  -2.035  -5.914  0.00  0.00    +0.010 C 
ATOM     23  C   LIG    1        6.659  -3.192  -5.913  0.00  0.00    +0.000 C 
ATOM     24  C   LIG    1        5.992  -4.515  -5.551  0.00  0.00    +0.010 C 
ATOM     25  C   LIG    1        5.956  -4.662  -4.049  0.00  0.00    +0.030 C 
ATOM     26  C   LIG    1        4.636  -4.098  -3.495  0.00  0.00    +0.270 C 
ENDBRANCH  17  20
ENDBRANCH   4  17
BRANCH   1  28
ATOM     27  C   LIG    1        0.011   1.426   0.003  0.00  0.00    +0.250 C 
ATOM     28  O   LIG    1        0.020  -0.003  -0.003  0.00  0.00    -0.310 OA
ENDBRANCH   1  28
TORSDOF 6
