REMARK  Name = ZINCrH000004pSB9.0
REMARK                            x       y       z     vdW  Elec       q    Type
REMARK                         _______ _______ _______ _____ _____    ______ ____
ROOT
ATOM      1  C   LIG    1       -4.894  -4.103  -0.243  0.00  0.00    -0.690 A 
ATOM      2  C   LIG    1       -3.718  -4.826  -0.163  0.00  0.00    +0.140 A 
ATOM      3  C   LIG    1       -2.506  -4.168  -0.082  0.00  0.00    +0.010 A 
ATOM      4  C   LIG    1       -2.470  -2.780  -0.081  0.00  0.00    +0.200 A 
ATOM      5  C   LIG    1       -3.654  -2.057  -0.156  0.00  0.00    -0.020 A 
ATOM      6  C   LIG    1       -4.862  -2.721  -0.242  0.00  0.00    +0.140 A 
ENDROOT
BRANCH   4   7
ATOM      7  N   LIG    1       -1.245  -2.111   0.002  0.00  0.00    -0.670 N 
ATOM      8  H   LIG    1       -1.180  -1.275   0.490  0.00  0.00    +0.420 HD
ATOM      9  C   LIG    1       -0.153  -2.628  -0.596  0.00  0.00    +0.560 C 
ATOM     10  O   LIG    1       -0.213  -3.716  -1.135  0.00  0.00    -0.500 OA
BRANCH   9  11
ATOM     11  C   LIG    1        1.117  -1.872  -0.596  0.00  0.00    -0.110 A 
ATOM     12  C   LIG    1        1.189  -0.623   0.022  0.00  0.00    +0.030 A 
ATOM     13  C   LIG    1        2.378   0.079   0.019  0.00  0.00    +0.050 A 
ATOM     14  C   LIG    1        3.497  -0.453  -0.594  0.00  0.00    +0.030 A 
ATOM     15  C   LIG    1        3.433  -1.693  -1.211  0.00  0.00    +0.100 A 
ATOM     16  F   LIG    1        4.531  -2.206  -1.809  0.00  0.00    -0.130 F 
ATOM     17  C   LIG    1        2.249  -2.405  -1.215  0.00  0.00    +0.060 A 
ENDBRANCH   9  11
ENDBRANCH   4   7
BRANCH   1  18
ATOM     18  S   LIG    1       -6.438  -4.946  -0.347  0.00  0.00    +2.690 S 
ATOM     19  O   LIG    1       -6.157  -6.236  -0.873  0.00  0.00    -0.950 OA
ATOM     20  O   LIG    1       -7.349  -4.041  -0.955  0.00  0.00    -0.950 OA
BRANCH  18  26
ATOM     21  C   LIG    1       -4.667  -5.263   3.028  0.00  0.00    +0.020 C 
ATOM     22  C   LIG    1       -5.989  -5.990   3.282  0.00  0.00    -0.030 C 
ATOM     23  C   LIG    1       -6.948  -5.060   4.028  0.00  0.00    +0.030 C 
ATOM     24  C   LIG    1       -7.181  -3.794   3.200  0.00  0.00    -0.030 C 
ATOM     25  C   LIG    1       -7.821  -4.175   1.861  0.00  0.00    +0.290 C 
ATOM     26  N   LIG    1       -6.975  -5.180   1.202  0.00  0.00    -0.990 NA
ATOM     27  C   LIG    1       -8.115  -2.851   3.962  0.00  0.00    +0.030 C 
ATOM     28  C   LIG    1       -6.619  -6.399   1.942  0.00  0.00    +0.290 C 
ENDBRANCH  18  26
ENDBRANCH   1  18
TORSDOF 4
