REMARK  Name = ZINCqH0000036O66.0
REMARK                            x       y       z     vdW  Elec       q    Type
REMARK                         _______ _______ _______ _____ _____    ______ ____
ROOT
ATOM      1  N   LIG    1        2.152   6.031  -0.965  0.00  0.00    -0.520 NA
ATOM      2  C   LIG    1        2.256   5.435  -2.303  0.00  0.00    +0.170 C 
ATOM      3  C   LIG    1        1.244   6.106  -3.238  0.00  0.00    +0.280 C 
ATOM      4  N   LIG    1        1.454   7.561  -3.187  0.00  0.00    -0.620 N 
ATOM      5  C   LIG    1        1.500   8.211  -1.868  0.00  0.00    +0.300 C 
ATOM      6  C   LIG    1        1.601   8.279  -4.318  0.00  0.00    +0.520 C 
ATOM      7  O   LIG    1        1.773   9.478  -4.257  0.00  0.00    -0.540 OA
ATOM      8  C   LIG    1        2.502   7.457  -0.988  0.00  0.00    +0.180 C 
ENDROOT
BRANCH   1  10
ATOM      9  C   LIG    1        2.765   5.881   1.401  0.00  0.00    +0.080 C 
ATOM     10  C   LIG    1        2.982   5.300   0.003  0.00  0.00    +0.220 C 
BRANCH  10  11
ATOM     11  C   LIG    1        2.595   3.844  -0.002  0.00  0.00    +0.090 A 
ATOM     12  N   LIG    1        1.388   3.420   0.008  0.00  0.00    -0.430 NA
ATOM     13  C   LIG    1        1.189   2.088   0.002  0.00  0.00    +0.080 A 
ATOM     14  C   LIG    1       -0.016   1.358   0.009  0.00  0.00    +0.080 A 
ATOM     15  C   LIG    1        0.002  -0.004   0.002  0.00  0.00    +0.030 A 
ATOM     16  C   LIG    1        1.204  -0.698  -0.014  0.00  0.00    +0.040 A 
ATOM     17  C   LIG    1        2.397  -0.011  -0.021  0.00  0.00    +0.060 A 
ATOM     18  C   LIG    1        2.397   1.382  -0.013  0.00  0.00    -0.180 A 
ATOM     19  S   LIG    1        3.712   2.554  -0.020  0.00  0.00    +0.090 S 
ENDBRANCH  10  11
ENDBRANCH   1  10
BRANCH   6  20
ATOM     20  C   LIG    1        1.550   7.592  -5.658  0.00  0.00    +0.060 C 
BRANCH  20  21
ATOM     21  C   LIG    1        1.742   8.627  -6.769  0.00  0.00    +0.170 C 
BRANCH  21  22
ATOM     22  C   LIG    1        1.692   7.940  -8.109  0.00  0.00    -0.010 A 
ATOM     23  C   LIG    1        0.587   7.738  -8.849  0.00  0.00    -0.060 A 
ATOM     24  C   LIG    1        0.996   7.063 -10.021  0.00  0.00    -0.060 A 
ATOM     25  C   LIG    1        2.327   6.892  -9.928  0.00  0.00    +0.160 A 
ATOM     26  O   LIG    1        2.744   7.430  -8.770  0.00  0.00    -0.180 OA
ENDBRANCH  21  22
ENDBRANCH  20  21
ENDBRANCH   6  20
TORSDOF 5
