REMARK  Name = ZINCpe00000MJ3Uo.2
REMARK                            x       y       z     vdW  Elec       q    Type
REMARK                         _______ _______ _______ _____ _____    ______ ____
ROOT
ATOM      1  N   LIG    1        3.901   4.686   3.372  0.00  0.00    -0.490 NA
ATOM      2  C   LIG    1        5.351   4.653   3.081  0.00  0.00    +0.170 C 
ATOM      3  C   LIG    1        6.083   4.612   4.436  0.00  0.00    +0.010 C 
ATOM      4  C   LIG    1        4.961   4.593   5.500  0.00  0.00    +0.040 C 
ATOM      5  C   LIG    1        3.742   4.058   4.708  0.00  0.00    +0.210 C 
ENDROOT
BRANCH   5   6
ATOM      6  C   LIG    1        2.453   4.500   5.353  0.00  0.00    -0.230 A 
ATOM      7  C   LIG    1        1.566   3.700   5.988  0.00  0.00    +0.090 A 
ATOM      8  N   LIG    1        0.550   4.475   6.423  0.00  0.00    -0.380 N 
ATOM      9  N   LIG    1        0.823   5.796   6.042  0.00  0.00    -0.300 NA
ATOM     10  C   LIG    1       -0.629   4.018   7.162  0.00  0.00    +0.340 C 
ATOM     11  C   LIG    1        1.688   2.209   6.176  0.00  0.00    +0.140 C 
ATOM     12  C   LIG    1        1.967   5.810   5.407  0.00  0.00    +0.110 A 
ATOM     13  C   LIG    1        2.641   7.027   4.829  0.00  0.00    +0.160 C 
ENDBRANCH   5   6
BRANCH   1  14
ATOM     14  C   LIG    1        3.143   3.951   2.351  0.00  0.00    +0.190 C 
BRANCH  14  22
ATOM     15  C   LIG    1        1.058   0.846  -3.319  0.00  0.00    +0.090 C 
ATOM     16  C   LIG    1        1.771   2.172  -3.392  0.00  0.00    +0.510 C 
ATOM     17  N   LIG    1        2.409   2.655  -2.308  0.00  0.00    -0.620 N 
ATOM     18  C   LIG    1        2.313   1.965  -1.014  0.00  0.00    +0.270 C 
ATOM     19  C   LIG    1        1.807   2.961   0.037  0.00  0.00    +0.270 C 
ATOM     20  N   LIG    1        2.612   4.187  -0.054  0.00  0.00    -0.620 N 
ATOM     21  C   LIG    1        2.709   4.878  -1.347  0.00  0.00    +0.280 C 
ATOM     22  C   LIG    1        3.251   4.670   1.031  0.00  0.00    +0.520 C 
ATOM     23  O   LIG    1        3.913   5.683   0.944  0.00  0.00    -0.510 OA
ATOM     24  C   LIG    1        3.214   3.881  -2.398  0.00  0.00    +0.280 C 
ATOM     25  O   LIG    1        1.771   2.804  -4.427  0.00  0.00    -0.540 OA
ENDBRANCH  14  22
ENDBRANCH   1  14
TORSDOF 3
