REMARK  Name = ZINCvU0000000DDw.0
REMARK                            x       y       z     vdW  Elec       q    Type
REMARK                         _______ _______ _______ _____ _____    ______ ____
ROOT
ATOM      1  C   LIG    1       -0.104  -1.799  -0.670  0.00  0.00    +0.290 A 
ATOM      2  N   LIG    1        1.142  -1.636  -0.976  0.00  0.00    -0.420 NA
ATOM      3  C   LIG    1        1.609  -0.387  -0.871  0.00  0.00    +0.080 A 
ATOM      4  C   LIG    1        0.686   0.531  -0.453  0.00  0.00    -0.080 A 
ATOM      5  S   LIG    1       -0.808  -0.259  -0.195  0.00  0.00    +0.180 S 
ENDROOT
BRANCH   3   6
ATOM      6  C   LIG    1        2.951  -0.043  -1.169  0.00  0.00    +0.260 C 
ATOM      7  C   LIG    1        3.989  -0.808  -0.668  0.00  0.00    -0.060 C 
ATOM      8  N   LIG    1        5.316  -0.697  -0.966  0.00  0.00    -0.450 NA
ATOM      9  C   LIG    1        5.981  -1.593  -0.290  0.00  0.00    +0.340 C 
ATOM     10  O   LIG    1        5.162  -2.343   0.473  0.00  0.00    -0.290 OA
ATOM     11  C   LIG    1        3.894  -1.916   0.295  0.00  0.00    +0.480 C 
ATOM     12  O   LIG    1        2.886  -2.354   0.819  0.00  0.00    -0.390 OA
BRANCH   9  13
ATOM     13  C   LIG    1        7.446  -1.766  -0.358  0.00  0.00    -0.040 A 
ATOM     14  C   LIG    1        8.070  -2.755   0.405  0.00  0.00    +0.080 A 
ATOM     15  C   LIG    1        9.439  -2.916   0.333  0.00  0.00    +0.020 A 
ATOM     16  C   LIG    1       10.194  -2.092  -0.483  0.00  0.00    +0.060 A 
ATOM     17  C   LIG    1        9.583  -1.107  -1.238  0.00  0.00    +0.030 A 
ATOM     18  C   LIG    1        8.214  -0.938  -1.181  0.00  0.00    +0.010 A 
ATOM     19 CL   LIG    1        7.449   0.299  -2.128  0.00  0.00    -0.020 Cl
ENDBRANCH   9  13
ENDBRANCH   3   6
BRANCH   1  22
ATOM     20  C   LIG    1       -0.935  -5.403  -1.317  0.00  0.00    +0.120 C 
ATOM     21  C   LIG    1       -0.165  -4.117  -1.165  0.00  0.00    +0.510 C 
ATOM     22  N   LIG    1       -0.785  -3.010  -0.711  0.00  0.00    -0.480 N 
ATOM     23  O   LIG    1        1.013  -4.077  -1.452  0.00  0.00    -0.460 OA
BRANCH  22  24
ATOM     24  C   LIG    1       -2.116  -3.080  -0.279  0.00  0.00    +0.100 A 
ATOM     25  C   LIG    1       -2.412  -3.021   1.076  0.00  0.00    +0.020 A 
ATOM     26  C   LIG    1       -3.725  -3.089   1.498  0.00  0.00    +0.030 A 
ATOM     27  C   LIG    1       -4.745  -3.217   0.573  0.00  0.00    -0.070 A 
ATOM     28  C   LIG    1       -4.453  -3.276  -0.778  0.00  0.00    -0.070 A 
ATOM     29  C   LIG    1       -5.567  -3.416  -1.783  0.00  0.00    +0.110 C 
ATOM     30  C   LIG    1       -6.176  -3.292   1.037  0.00  0.00    +0.110 C 
ATOM     31  C   LIG    1       -3.143  -3.203  -1.207  0.00  0.00    +0.030 A 
ENDBRANCH  22  24
ENDBRANCH   1  22
TORSDOF 4
