REMARK  Name = ZINCrD000000fH4F.0
REMARK                            x       y       z     vdW  Elec       q    Type
REMARK                         _______ _______ _______ _____ _____    ______ ____
ROOT
ATOM      1  C   LIG    1       -0.703   2.272   3.582  0.00  0.00    +0.250 C 
ENDROOT
BRANCH   1   4
ATOM      2  C   LIG    1       -0.013   1.086   0.008  0.00  0.00    +0.090 C 
ATOM      3  C   LIG    1       -0.718   1.572   1.248  0.00  0.00    +0.520 C 
ATOM      4  N   LIG    1       -0.017   1.800   2.376  0.00  0.00    -0.720 N 
ATOM      5  H   LIG    1        0.941   1.651   2.390  0.00  0.00    +0.400 HD
ATOM      6  O   LIG    1       -1.916   1.758   1.230  0.00  0.00    -0.520 OA
ENDBRANCH   1   4
BRANCH   1   7
ATOM      7  C   LIG    1       -1.371   3.592   3.295  0.00  0.00    +0.500 C 
ATOM      8  N   LIG    1       -1.711   4.410   4.311  0.00  0.00    -0.730 N 
ATOM      9  H   LIG    1       -1.526   4.149   5.226  0.00  0.00    +0.400 HD
ATOM     10  O   LIG    1       -1.602   3.919   2.150  0.00  0.00    -0.510 OA
BRANCH   8  11
ATOM     11  C   LIG    1       -2.360   5.694   4.032  0.00  0.00    +0.240 C 
ATOM     12  C   LIG    1       -1.291   6.734   3.711  0.00  0.00    +0.000 C 
ATOM     13  C   LIG    1       -1.892   8.120   3.531  0.00  0.00    +0.020 C 
ATOM     14  C   LIG    1       -2.642   8.475   4.802  0.00  0.00    -0.020 C 
ATOM     15  C   LIG    1       -3.392   9.812   4.801  0.00  0.00    +0.020 C 
ATOM     16  C   LIG    1       -4.467   9.608   5.904  0.00  0.00    +0.000 C 
ATOM     17  C   LIG    1       -4.686   8.079   6.024  0.00  0.00    +0.000 C 
ATOM     18  C   LIG    1       -3.810   7.460   4.940  0.00  0.00    -0.020 C 
ATOM     19  C   LIG    1       -3.199   6.108   5.252  0.00  0.00    +0.030 C 
ENDBRANCH   8  11
ENDBRANCH   1   7
BRANCH   1  20
ATOM     20  C   LIG    1       -1.758   1.248   4.003  0.00  0.00    +0.130 C 
BRANCH  20  21
ATOM     21  C   LIG    1       -1.080  -0.035   4.407  0.00  0.00    -0.170 A 
ATOM     22  C   LIG    1       -0.871  -1.109   3.628  0.00  0.00    +0.220 A 
ATOM     23  N   LIG    1       -0.223  -2.082   4.339  0.00  0.00    -0.590 N 
ATOM     24  H   LIG    1        0.038  -2.948   3.987  0.00  0.00    +0.420 HD
ATOM     25  C   LIG    1       -0.001  -1.652   5.628  0.00  0.00    +0.100 A 
ATOM     26  C   LIG    1        0.598  -2.231   6.741  0.00  0.00    -0.010 A 
ATOM     27  C   LIG    1        0.669  -1.528   7.923  0.00  0.00    +0.020 A 
ATOM     28  C   LIG    1        0.148  -0.245   8.017  0.00  0.00    -0.020 A 
ATOM     29  C   LIG    1       -0.445   0.344   6.935  0.00  0.00    +0.050 A 
ATOM     30  C   LIG    1       -0.528  -0.351   5.727  0.00  0.00    -0.100 A 
ENDBRANCH  20  21
ENDBRANCH   1  20
TORSDOF 5
