REMARK  Name = ZINCrg00000SjStw.0
REMARK                            x       y       z     vdW  Elec       q    Type
REMARK                         _______ _______ _______ _____ _____    ______ ____
ROOT
ATOM      1  N   LIG    1        2.123   0.034   1.224  0.00  0.00    -0.480 N 
ATOM      2  C   LIG    1        0.757  -0.508   1.234  0.00  0.00    +0.240 C 
ATOM      3  C   LIG    1        0.002  -0.004   0.002  0.00  0.00    +0.220 C 
ATOM      4  N   LIG    1       -0.018   1.465   0.010  0.00  0.00    -0.550 NA
ATOM      5  C   LIG    1        1.348   2.008   0.000  0.00  0.00    +0.200 C 
ATOM      6  C   LIG    1        2.103   1.504   1.232  0.00  0.00    +0.210 C 
ENDROOT
BRANCH   1  11
ATOM      7  C   LIG    1        4.915  -0.567   3.533  0.00  0.00    +0.050 A 
ATOM      8  C   LIG    1        4.276  -1.458   4.406  0.00  0.00    -0.010 A 
ATOM      9  C   LIG    1        2.961  -1.802   4.172  0.00  0.00    +0.310 A 
ATOM     10  N   LIG    1        2.300  -1.300   3.146  0.00  0.00    -0.500 NA
ATOM     11  C   LIG    1        2.864  -0.460   2.292  0.00  0.00    +0.320 A 
ATOM     12  C   LIG    1        4.185  -0.062   2.455  0.00  0.00    +0.010 A 
BRANCH   7  14
ATOM     13  N   LIG    1        7.362   0.117   3.905  0.00  0.00    -0.390 NA
ATOM     14  C   LIG    1        6.279  -0.186   3.740  0.00  0.00    +0.250 C 
ENDBRANCH   7  14
ENDBRANCH   1  11
BRANCH   4  15
ATOM     15  C   LIG    1       -0.800   1.987  -1.118  0.00  0.00    +0.540 C 
BRANCH  15  16
ATOM     16  N   LIG    1       -1.304   3.323  -0.787  0.00  0.00    -0.400 N 
ATOM     17  N   LIG    1       -0.556   4.506  -0.759  0.00  0.00    +0.020 NA
ATOM     18  N   LIG    1       -1.293   5.447  -0.441  0.00  0.00    +0.020 NA
ATOM     19  N   LIG    1       -2.592   4.969  -0.231  0.00  0.00    -0.410 N 
ATOM     20  C   LIG    1       -2.575   3.638  -0.459  0.00  0.00    +0.470 A 
ATOM     21  S   LIG    1       -3.903   2.562  -0.350  0.00  0.00    -0.490 S 
BRANCH  19  22
ATOM     22  C   LIG    1       -3.757   5.767   0.159  0.00  0.00    +0.390 C 
BRANCH  22  23
ATOM     23  C   LIG    1       -3.854   5.816   1.685  0.00  0.00    +0.140 C 
ATOM     24  C   LIG    1       -5.120   6.596   2.119  0.00  0.00    +0.030 C 
ATOM     25  C   LIG    1       -5.370   5.993   3.528  0.00  0.00    +0.020 C 
ATOM     26  C   LIG    1       -4.910   4.531   3.345  0.00  0.00    +0.190 C 
ATOM     27  O   LIG    1       -4.028   4.493   2.217  0.00  0.00    -0.360 OA
ENDBRANCH  22  23
ENDBRANCH  19  22
ENDBRANCH  15  16
ENDBRANCH   4  15
TORSDOF 6
