REMARK  Name = ZINCrg00000SjStW.1
REMARK                            x       y       z     vdW  Elec       q    Type
REMARK                         _______ _______ _______ _____ _____    ______ ____
ROOT
ATOM      1  N   LIG    1       -2.177   0.949   1.321  0.00  0.00    -0.490 N 
ATOM      2  C   LIG    1       -2.502  -0.290   1.860  0.00  0.00    +0.450 A 
ATOM      3  C   LIG    1       -3.559  -1.064   1.175  0.00  0.00    -0.280 A 
ATOM      4  C   LIG    1       -4.484  -0.361   0.409  0.00  0.00    +0.230 A 
ATOM      5  C   LIG    1       -4.359   1.031   0.293  0.00  0.00    -0.360 A 
ATOM      6  C   LIG    1       -5.375   1.807  -0.321  0.00  0.00    +0.550 A 
ATOM      7  O   LIG    1       -6.367   1.277  -0.788  0.00  0.00    -0.500 OA
ATOM      8  N   LIG    1       -5.218   3.149  -0.376  0.00  0.00    -0.440 N 
ATOM      9  C   LIG    1       -6.194   3.909  -0.948  0.00  0.00    +0.300 A 
ATOM     10  C   LIG    1       -6.075   5.254  -1.011  0.00  0.00    +0.000 A 
ATOM     11  C   LIG    1       -4.938   5.885  -0.488  0.00  0.00    +0.150 A 
ATOM     12  C   LIG    1       -3.954   5.133   0.082  0.00  0.00    +0.020 A 
ATOM     13  C   LIG    1       -4.093   3.734   0.136  0.00  0.00    +0.440 A 
ATOM     14  N   LIG    1       -3.118   3.008   0.686  0.00  0.00    -0.570 NA
ATOM     15  N   LIG    1       -1.899  -0.750   2.927  0.00  0.00    -0.700 NA
ATOM     16  H   LIG    1       -2.198  -1.579   3.333  0.00  0.00    +0.370 HD
ATOM     17  C   LIG    1       -3.204   1.693   0.778  0.00  0.00    +0.510 A 
ENDROOT
BRANCH   3  18
ATOM     18  C   LIG    1       -3.630  -2.525   1.299  0.00  0.00    +0.580 C 
ATOM     19  N   LIG    1       -4.543  -3.217   0.590  0.00  0.00    -0.720 N 
ATOM     20  H   LIG    1       -5.103  -2.761  -0.057  0.00  0.00    +0.400 HD
ATOM     21  O   LIG    1       -2.864  -3.110   2.041  0.00  0.00    -0.550 OA
BRANCH  19  22
ATOM     22  C   LIG    1       -4.691  -4.660   0.797  0.00  0.00    +0.290 C 
BRANCH  22  23
ATOM     23  C   LIG    1       -5.787  -5.198  -0.124  0.00  0.00    +0.140 C 
ATOM     24  C   LIG    1       -6.047  -6.693   0.166  0.00  0.00    +0.010 C 
ATOM     25  C   LIG    1       -6.322  -7.303  -1.227  0.00  0.00    +0.000 C 
ATOM     26  C   LIG    1       -6.195  -6.105  -2.194  0.00  0.00    +0.190 C 
ATOM     27  O   LIG    1       -5.351  -5.159  -1.500  0.00  0.00    -0.370 OA
ENDBRANCH  22  23
ENDBRANCH  19  22
ENDBRANCH   3  18
BRANCH   1  29
ATOM     28  C   LIG    1       -0.084   1.001   0.057  0.00  0.00    +0.030 C 
ATOM     29  C   LIG    1       -0.800   1.447   1.333  0.00  0.00    +0.310 C 
ENDBRANCH   1  29
TORSDOF 4
