REMARK  Name = ZINCtV00000L6l3Q.0
REMARK                            x       y       z     vdW  Elec       q    Type
REMARK                         _______ _______ _______ _____ _____    ______ ____
ROOT
ATOM      1  N   LIG    1       -4.230  -5.214   1.124  0.00  0.00    -0.480 N 
ATOM      2  C   LIG    1       -5.434  -5.750   0.713  0.00  0.00    +0.060 A 
ATOM      3  C   LIG    1       -6.541  -6.260   1.376  0.00  0.00    +0.010 A 
ATOM      4  C   LIG    1       -7.611  -6.740   0.650  0.00  0.00    +0.040 A 
ATOM      5  C   LIG    1       -7.587  -6.716  -0.737  0.00  0.00    +0.000 A 
ATOM      6  C   LIG    1       -6.505  -6.217  -1.406  0.00  0.00    +0.070 A 
ATOM      7  C   LIG    1       -5.410  -5.726  -0.692  0.00  0.00    +0.040 A 
ATOM      8  N   LIG    1       -4.221  -5.182  -1.058  0.00  0.00    -0.460 NA
ATOM      9  C   LIG    1       -3.533  -4.880   0.004  0.00  0.00    +0.270 A 
ENDROOT
BRANCH   1  10
ATOM     10  C   LIG    1       -3.787  -5.034   2.509  0.00  0.00    +0.310 C 
BRANCH  10  11
ATOM     11  C   LIG    1       -4.230  -3.658   3.011  0.00  0.00    +0.070 C 
BRANCH  11  15
ATOM     12  C   LIG    1       -2.938  -3.133   7.049  0.00  0.00    +0.000 A 
ATOM     13  C   LIG    1       -2.119  -2.745   6.005  0.00  0.00    +0.000 A 
ATOM     14  C   LIG    1       -2.537  -2.915   4.699  0.00  0.00    +0.010 A 
ATOM     15  C   LIG    1       -3.774  -3.473   4.436  0.00  0.00    -0.090 A 
ATOM     16  C   LIG    1       -4.595  -3.857   5.479  0.00  0.00    +0.010 A 
ATOM     17  C   LIG    1       -4.175  -3.692   6.786  0.00  0.00    +0.000 A 
ENDBRANCH  11  15
ENDBRANCH  10  11
ENDBRANCH   1  10
BRANCH   9  18
ATOM     18  C   LIG    1       -2.161  -4.256  -0.004  0.00  0.00    +0.320 C 
BRANCH  18  19
ATOM     19  O   LIG    1       -2.284  -2.833   0.006  0.00  0.00    -0.310 OA
BRANCH  19  20
ATOM     20  C   LIG    1       -1.132  -2.113  -0.001  0.00  0.00    +0.130 A 
ATOM     21  C   LIG    1       -1.189  -0.749   0.008  0.00  0.00    -0.020 A 
ATOM     22  C   LIG    1        0.002  -0.004   0.002  0.00  0.00    -0.010 A 
ATOM     23  C   LIG    1       -0.017   1.401   0.010  0.00  0.00    +0.010 A 
ATOM     24  C   LIG    1        1.157   2.091   0.002  0.00  0.00    +0.020 A 
ATOM     25  C   LIG    1        2.380   1.424  -0.013  0.00  0.00    -0.010 A 
ATOM     26  C   LIG    1        2.437   0.064  -0.021  0.00  0.00    +0.040 A 
ATOM     27  C   LIG    1        1.247  -0.682  -0.013  0.00  0.00    -0.080 A 
ATOM     28  C   LIG    1        1.268  -2.088  -0.022  0.00  0.00    +0.070 A 
ATOM     29  C   LIG    1        0.098  -2.780  -0.015  0.00  0.00    -0.060 A 
ENDBRANCH  19  20
ENDBRANCH  18  19
ENDBRANCH   9  18
TORSDOF 6
