REMARK  Name = ZINCrH000004kf7L.0
REMARK                            x       y       z     vdW  Elec       q    Type
REMARK                         _______ _______ _______ _____ _____    ______ ____
ROOT
ATOM      1  C   LIG    1       -1.306   2.116   0.020  0.00  0.00    +0.560 C 
ATOM      2  N   LIG    1       -2.465   1.428   0.021  0.00  0.00    -0.640 N 
ATOM      3  H   LIG    1       -2.453   0.458   0.016  0.00  0.00    +0.410 HD
ATOM      4  O   LIG    1       -1.321   3.332   0.026  0.00  0.00    -0.450 OA
ENDROOT
BRANCH   2   5
ATOM      5  C   LIG    1       -3.671   2.105   0.031  0.00  0.00    +0.500 A 
ATOM      6  N   LIG    1       -3.802   3.407   0.044  0.00  0.00    -0.470 NA
ATOM      7  C   LIG    1       -5.121   3.733   0.048  0.00  0.00    +0.060 A 
ATOM      8  C   LIG    1       -5.810   4.948   0.059  0.00  0.00    +0.060 A 
ATOM      9  C   LIG    1       -7.187   4.954   0.066  0.00  0.00    +0.010 A 
ATOM     10  C   LIG    1       -7.896   3.762   0.063  0.00  0.00    +0.030 A 
ATOM     11  C   LIG    1       -7.231   2.553   0.052  0.00  0.00    +0.010 A 
ATOM     12  C   LIG    1       -5.844   2.528   0.044  0.00  0.00    +0.050 A 
ATOM     13  N   LIG    1       -4.902   1.514   0.034  0.00  0.00    -0.500 N 
BRANCH  13  14
ATOM     14  C   LIG    1       -5.174   0.075   0.027  0.00  0.00    +0.240 C 
ATOM     15  C   LIG    1       -4.494  -0.597   1.238  0.00  0.00    +0.010 C 
ATOM     16  C   LIG    1       -4.011  -1.964   0.692  0.00  0.00    +0.030 C 
ATOM     17  C   LIG    1       -3.542  -1.612  -0.742  0.00  0.00    +0.020 C 
ATOM     18  C   LIG    1       -4.569  -0.571  -1.232  0.00  0.00    +0.020 C 
ENDBRANCH  13  14
ENDBRANCH   2   5
BRANCH   1  23
ATOM     19  C   LIG    1        2.393   1.413  -0.014  0.00  0.00    -0.140 A 
ATOM     20  C   LIG    1        2.397   0.017  -0.020  0.00  0.00    +0.080 A 
ATOM     21  C   LIG    1        1.205  -0.681  -0.013  0.00  0.00    +0.010 A 
ATOM     22  C   LIG    1        0.002  -0.004   0.002  0.00  0.00    +0.060 A 
ATOM     23  C   LIG    1       -0.017   1.393   0.010  0.00  0.00    -0.140 A 
ATOM     24  C   LIG    1        1.182   2.103   0.002  0.00  0.00    +0.170 A 
BRANCH  19  28
ATOM     25  C   LIG    1        6.105   2.228  -0.044  0.00  0.00    +0.290 C 
ATOM     26  N   LIG    1        4.840   1.490  -0.036  0.00  0.00    -0.730 N 
ATOM     27  H   LIG    1        4.844   0.520  -0.040  0.00  0.00    +0.400 HD
ATOM     28  C   LIG    1        3.670   2.158  -0.022  0.00  0.00    +0.560 C 
ATOM     29  O   LIG    1        3.664   3.374  -0.016  0.00  0.00    -0.520 OA
ENDBRANCH  19  28
ENDBRANCH   1  23
TORSDOF 4
