REMARK  Name = ZINCqH0000001BuM.0
REMARK                            x       y       z     vdW  Elec       q    Type
REMARK                         _______ _______ _______ _____ _____    ______ ____
ROOT
ATOM      1  N   LIG    1        7.443  -3.618  -2.655  0.00  0.00    -0.720 N 
ATOM      2  H   LIG    1        6.590  -3.223  -2.893  0.00  0.00    +0.400 HD
ATOM      3  C   LIG    1        7.698  -3.949  -1.373  0.00  0.00    +0.600 C 
ATOM      4  O   LIG    1        8.769  -4.445  -1.074  0.00  0.00    -0.510 OA
ENDROOT
BRANCH   3   5
ATOM      5  C   LIG    1        6.686  -3.712  -0.339  0.00  0.00    -0.060 A 
ATOM      6  C   LIG    1        6.814  -3.998   0.990  0.00  0.00    +0.050 A 
ATOM      7  C   LIG    1        5.613  -3.609   1.604  0.00  0.00    -0.020 A 
ATOM      8  C   LIG    1        4.815  -3.108   0.635  0.00  0.00    +0.000 A 
ATOM      9  O   LIG    1        5.463  -3.177  -0.535  0.00  0.00    -0.160 OA
BRANCH   8  10
ATOM     10  C   LIG    1        3.423  -2.567   0.838  0.00  0.00    +0.330 C 
BRANCH  10  11
ATOM     11  O   LIG    1        3.492  -1.168   1.118  0.00  0.00    -0.300 OA
BRANCH  11  12
ATOM     12  C   LIG    1        2.314  -0.522   1.327  0.00  0.00    +0.100 A 
ATOM     13  C   LIG    1        1.118  -1.220   1.264  0.00  0.00    -0.040 A 
ATOM     14  C   LIG    1       -0.079  -0.560   1.472  0.00  0.00    +0.050 A 
ATOM     15  C   LIG    1       -0.084   0.793   1.752  0.00  0.00    +0.010 A 
ATOM     16  C   LIG    1        1.107   1.494   1.816  0.00  0.00    +0.020 A 
ATOM     17  C   LIG    1        2.307   0.840   1.604  0.00  0.00    +0.070 A 
ATOM     18  F   LIG    1        3.470   1.524   1.666  0.00  0.00    -0.130 F 
ENDBRANCH  11  12
ENDBRANCH  10  11
ENDBRANCH   8  10
ENDBRANCH   3   5
BRANCH   1  19
ATOM     19  C   LIG    1        8.454  -3.855  -3.688  0.00  0.00    +0.280 C 
BRANCH  19  20
ATOM     20  C   LIG    1        7.916  -3.394  -5.044  0.00  0.00    -0.110 C 
ATOM     21  C   LIG    1        7.590  -1.901  -4.982  0.00  0.00    +0.040 C 
ATOM     22  C   LIG    1        6.647  -4.179  -5.382  0.00  0.00    +0.030 C 
BRANCH  20  23
ATOM     23  C   LIG    1        8.972  -3.642  -6.122  0.00  0.00    +0.220 C 
BRANCH  23  25
ATOM     24  C   LIG    1        9.639  -3.116  -8.472  0.00  0.00    +0.020 C 
ATOM     25  C   LIG    1        8.518  -3.003  -7.437  0.00  0.00    -0.050 C 
ATOM     26  C   LIG    1        7.272  -3.726  -7.952  0.00  0.00    +0.020 C 
ENDBRANCH  23  25
BRANCH  23  27
ATOM     27  O   LIG    1       10.214  -3.064  -5.715  0.00  0.00    -0.550 OA
ATOM     28  H   LIG    1       10.174  -2.108  -5.569  0.00  0.00    +0.370 HD
ENDBRANCH  23  27
ENDBRANCH  20  23
ENDBRANCH  19  20
ENDBRANCH   1  19
TORSDOF 9
