REMARK  Name = ZINCpk000000n27m.0
REMARK                            x       y       z     vdW  Elec       q    Type
REMARK                         _______ _______ _______ _____ _____    ______ ____
ROOT
ATOM      1  C   LIG    1       -0.013   1.086   0.008  0.00  0.00    +0.210 C 
ENDROOT
BRANCH   1   2
ATOM      2  O   LIG    1       -0.704   1.559  -1.150  0.00  0.00    -0.540 OA
ATOM      3  H   LIG    1       -0.756   2.523  -1.210  0.00  0.00    +0.380 HD
ENDBRANCH   1   2
BRANCH   1   4
ATOM      4  C   LIG    1        1.423   1.615  -0.003  0.00  0.00    +0.180 C 
BRANCH   4   5
ATOM      5  O   LIG    1        2.126   1.061  -1.116  0.00  0.00    -0.300 OA
BRANCH   5  10
ATOM      6  C   LIG    1        5.499   1.318  -2.487  0.00  0.00    -0.130 A 
ATOM      7  C   LIG    1        6.076   2.206  -1.573  0.00  0.00    +0.030 A 
ATOM      8  C   LIG    1        5.327   2.696  -0.524  0.00  0.00    +0.040 A 
ATOM      9  C   LIG    1        4.006   2.318  -0.374  0.00  0.00    -0.050 A 
ATOM     10  C   LIG    1        3.425   1.433  -1.272  0.00  0.00    +0.120 A 
ATOM     11  C   LIG    1        4.164   0.933  -2.330  0.00  0.00    +0.050 A 
BRANCH   6  13
ATOM     12  C   LIG    1        7.732   1.209  -3.775  0.00  0.00    +0.090 C 
ATOM     13  C   LIG    1        6.293   0.791  -3.608  0.00  0.00    +0.390 C 
ATOM     14  O   LIG    1        5.790   0.021  -4.399  0.00  0.00    -0.450 OA
ENDBRANCH   6  13
ENDBRANCH   5  10
ENDBRANCH   4   5
ENDBRANCH   1   4
BRANCH   1  15
ATOM     15  C   LIG    1       -0.729   1.579   1.267  0.00  0.00    +0.320 C 
BRANCH  15  16
ATOM     16  N   LIG    1       -2.062   0.977   1.338  0.00  0.00    -0.450 N 
ATOM     17  N   LIG    1       -3.153   1.625   0.753  0.00  0.00    +0.090 NA
ATOM     18  N   LIG    1       -4.344   1.147   0.776  0.00  0.00    -0.200 NA
ATOM     19  C   LIG    1       -4.634  -0.029   1.386  0.00  0.00    +0.060 A 
ATOM     20  C   LIG    1       -5.936  -0.535   1.408  0.00  0.00    +0.080 A 
ATOM     21  C   LIG    1       -6.194  -1.732   2.038  0.00  0.00    +0.070 A 
ATOM     22  C   LIG    1       -5.174  -2.445   2.654  0.00  0.00    +0.040 A 
ATOM     23  C   LIG    1       -3.881  -1.968   2.645  0.00  0.00    +0.100 A 
ATOM     24  C   LIG    1       -3.599  -0.758   2.013  0.00  0.00    -0.150 A 
ATOM     25  C   LIG    1       -2.237  -0.205   1.976  0.00  0.00    +0.530 A 
ATOM     26  O   LIG    1       -1.304  -0.786   2.498  0.00  0.00    -0.500 OA
ENDBRANCH  15  16
ENDBRANCH   1  15
TORSDOF 7
