REMARK  Name = ZINCtV000002Kbne.0
REMARK                            x       y       z     vdW  Elec       q    Type
REMARK                         _______ _______ _______ _____ _____    ______ ____
ROOT
ATOM      1  N   LIG    1        3.014   8.049   0.016  0.00  0.00    -0.620 N 
ATOM      2  H   LIG    1        2.097   7.732   0.022  0.00  0.00    +0.430 HD
ATOM      3  C   LIG    1        4.032   7.166   0.003  0.00  0.00    +0.590 C 
ATOM      4  O   LIG    1        5.181   7.563  -0.004  0.00  0.00    -0.460 OA
ENDROOT
BRANCH   1  13
ATOM      5  C   LIG    1        2.382  17.179   0.066  0.00  0.00    +0.200 C 
ATOM      6  C   LIG    1        2.861  15.751   0.055  0.00  0.00    +0.090 A 
ATOM      7  N   LIG    1        4.093  15.404   0.043  0.00  0.00    -0.460 NA
ATOM      8  C   LIG    1        4.375  14.087   0.034  0.00  0.00    +0.100 A 
ATOM      9  C   LIG    1        3.219  13.307   0.040  0.00  0.00    -0.140 A 
ATOM     10  C   LIG    1        3.305  11.906   0.033  0.00  0.00    -0.140 A 
ATOM     11  C   LIG    1        4.547  11.276   0.019  0.00  0.00    +0.130 A 
ATOM     12  N   LIG    1        4.454   9.931   0.014  0.00  0.00    -0.460 NA
ATOM     13  C   LIG    1        3.276   9.409   0.021  0.00  0.00    +0.340 A 
ATOM     14  C   LIG    1        5.711  12.083   0.013  0.00  0.00    +0.100 A 
ATOM     15  S   LIG    1        2.051  10.669   0.031  0.00  0.00    +0.090 S 
ATOM     16  C   LIG    1        5.629  13.432   0.020  0.00  0.00    +0.100 A 
ATOM     17  S   LIG    1        1.831  14.390   0.057  0.00  0.00    +0.120 S 
ENDBRANCH   1  13
BRANCH   3  18
ATOM     18  C   LIG    1        3.753   5.720  -0.002  0.00  0.00    +0.000 A 
ATOM     19  C   LIG    1        4.736   4.792  -0.015  0.00  0.00    -0.040 A 
ATOM     20  S   LIG    1        4.033   3.232  -0.010  0.00  0.00    +0.250 S 
ATOM     21  C   LIG    1        2.421   3.939   0.000  0.00  0.00    +0.060 A 
ATOM     22  N   LIG    1        2.519   5.234   0.006  0.00  0.00    -0.410 NA
BRANCH  21  23
ATOM     23  C   LIG    1        1.154   3.177   0.008  0.00  0.00    -0.010 A 
ATOM     24  C   LIG    1        1.175   1.781   0.000  0.00  0.00    -0.020 A 
ATOM     25  C   LIG    1       -0.013   1.076   0.008  0.00  0.00    +0.050 A 
ATOM     26  C   LIG    1       -1.221   1.750   0.017  0.00  0.00    +0.070 A 
ATOM     27  C   LIG    1       -1.249   3.132   0.030  0.00  0.00    +0.050 A 
ATOM     28 CL   LIG    1        2.690   0.933  -0.018  0.00  0.00    -0.020 Cl
ATOM     29  C   LIG    1       -0.069   3.850   0.022  0.00  0.00    +0.010 A 
ATOM     30 CL   LIG    1       -0.107   5.586   0.031  0.00  0.00    -0.020 Cl
ENDBRANCH  21  23
ENDBRANCH   3  18
TORSDOF 3
