REMARK  Name = ZINCqH0000037PuO.0
REMARK                            x       y       z     vdW  Elec       q    Type
REMARK                         _______ _______ _______ _____ _____    ______ ____
ROOT
ATOM      1  C   LIG    1        2.216   0.816   0.958  0.00  0.00    -0.020 C 
ATOM      2  C   LIG    1        1.582   2.116   0.421  0.00  0.00    +0.040 C 
ATOM      3  C   LIG    1        0.060   1.907   0.624  0.00  0.00    +0.010 C 
ATOM      4  C   LIG    1       -0.127   0.406   0.290  0.00  0.00    -0.010 C 
ATOM      5  C   LIG    1        1.130  -0.271   0.874  0.00  0.00    +0.030 C 
ENDROOT
BRANCH   1   6
ATOM      6  C   LIG    1        2.655   1.008   2.411  0.00  0.00    +0.080 C 
BRANCH   6   9
ATOM      7  N   LIG    1        3.424  -0.409   4.287  0.00  0.00    -0.670 N 
ATOM      8  H   LIG    1        3.474   0.391   4.833  0.00  0.00    +0.410 HD
ATOM      9  C   LIG    1        3.081  -0.318   2.987  0.00  0.00    +0.510 C 
ATOM     10  O   LIG    1        3.115  -1.303   2.280  0.00  0.00    -0.510 OA
BRANCH   7  18
ATOM     11  C   LIG    1        5.062  -0.495   6.612  0.00  0.00    +0.110 C 
ATOM     12  C   LIG    1        4.503  -1.746   5.985  0.00  0.00    -0.110 A 
ATOM     13  C   LIG    1        4.778  -2.980   6.541  0.00  0.00    +0.050 A 
ATOM     14  C   LIG    1        4.269  -4.130   5.962  0.00  0.00    -0.050 A 
ATOM     15  C   LIG    1        3.480  -4.046   4.829  0.00  0.00    +0.050 A 
ATOM     16  C   LIG    1        3.199  -2.814   4.272  0.00  0.00    +0.040 A 
ATOM     17 CL   LIG    1        4.622  -5.680   6.660  0.00  0.00    -0.070 Cl
ATOM     18  C   LIG    1        3.707  -1.659   4.850  0.00  0.00    +0.150 A 
ENDBRANCH   7  18
ENDBRANCH   6   9
ENDBRANCH   1   6
BRANCH   1  19
ATOM     19  C   LIG    1        3.418   0.423   0.096  0.00  0.00    +0.060 C 
BRANCH  19  20
ATOM     20  C   LIG    1        4.413   1.555   0.076  0.00  0.00    +0.520 C 
ATOM     21  N   LIG    1        5.559   1.432  -0.622  0.00  0.00    -0.620 N 
ATOM     22  C   LIG    1        5.865   0.200  -1.366  0.00  0.00    +0.250 C 
ATOM     23  C   LIG    1        6.260   0.591  -2.799  0.00  0.00    +0.220 C 
ATOM     24  O   LIG    1        7.296   1.575  -2.748  0.00  0.00    -0.380 OA
ATOM     25  C   LIG    1        6.910   2.800  -2.119  0.00  0.00    +0.220 C 
ATOM     26  C   LIG    1        6.546   2.524  -0.656  0.00  0.00    +0.260 C 
ATOM     27  O   LIG    1        4.182   2.577   0.687  0.00  0.00    -0.540 OA
ENDBRANCH  19  20
ENDBRANCH   1  19
TORSDOF 5
