REMARK  Name = ZINCqH0000005rpF.0
REMARK                            x       y       z     vdW  Elec       q    Type
REMARK                         _______ _______ _______ _____ _____    ______ ____
ROOT
ATOM      1  C   LIG    1       -7.246  -2.606   0.911  0.00  0.00    -0.020 C 
ATOM      2  C   LIG    1       -7.419  -3.935   1.649  0.00  0.00    +0.050 C 
ATOM      3  C   LIG    1       -6.102  -4.713   1.617  0.00  0.00    +0.010 C 
ATOM      4  C   LIG    1       -5.017  -3.901   2.332  0.00  0.00    +0.300 C 
ATOM      5  N   LIG    1       -4.944  -2.567   1.720  0.00  0.00    -0.630 N 
ATOM      6  C   LIG    1       -3.772  -2.084   1.263  0.00  0.00    +0.710 C 
ATOM      7  N   LIG    1       -3.738  -0.905   0.611  0.00  0.00    -0.740 N 
ATOM      8  H   LIG    1       -4.542  -0.368   0.537  0.00  0.00    +0.390 HD
ATOM      9  O   LIG    1       -2.746  -2.712   1.439  0.00  0.00    -0.580 OA
ATOM     10  C   LIG    1       -6.173  -1.768   1.623  0.00  0.00    +0.280 C 
ENDROOT
BRANCH   1  14
ATOM     11  C   LIG    1       -9.909   0.080   0.321  0.00  0.00    +0.280 C 
ATOM     12  N   LIG    1       -8.639  -0.649   0.318  0.00  0.00    -0.740 N 
ATOM     13  H   LIG    1       -7.860  -0.265  -0.113  0.00  0.00    +0.400 HD
ATOM     14  C   LIG    1       -8.553  -1.855   0.914  0.00  0.00    +0.520 C 
ATOM     15  O   LIG    1       -9.527  -2.336   1.453  0.00  0.00    -0.530 OA
ENDBRANCH   1  14
BRANCH   7  16
ATOM     16  C   LIG    1       -2.486  -0.436   0.011  0.00  0.00    +0.310 C 
ATOM     17  C   LIG    1       -2.382  -0.954  -1.424  0.00  0.00    +0.040 C 
BRANCH  16  18
ATOM     18  C   LIG    1       -2.467   1.071   0.004  0.00  0.00    -0.070 A 
ATOM     19  C   LIG    1       -3.635   1.770  -0.023  0.00  0.00    +0.010 A 
ATOM     20  C   LIG    1       -3.638   3.163  -0.031  0.00  0.00    +0.040 A 
ATOM     21  C   LIG    1       -2.471   3.867  -0.011  0.00  0.00    -0.020 A 
ATOM     22  C   LIG    1       -1.245   3.179   0.018  0.00  0.00    -0.040 A 
ATOM     23  C   LIG    1       -0.022   3.869   0.039  0.00  0.00    +0.020 A 
ATOM     24  C   LIG    1        1.146   3.170   0.067  0.00  0.00    +0.020 A 
ATOM     25  C   LIG    1        1.148   1.777   0.075  0.00  0.00    +0.030 A 
ATOM     26  C   LIG    1       -0.018   1.075   0.055  0.00  0.00    +0.030 A 
ATOM     27 CL   LIG    1       -2.499   5.603  -0.022  0.00  0.00    -0.060 Cl
ATOM     28  C   LIG    1       -1.243   1.762   0.021  0.00  0.00    -0.030 A 
ENDBRANCH  16  18
ENDBRANCH   7  16
TORSDOF 3
