REMARK  Name = ZINCqH0000008qF1.0
REMARK                            x       y       z     vdW  Elec       q    Type
REMARK                         _______ _______ _______ _____ _____    ______ ____
ROOT
ATOM      1  N   LIG    1       -2.929   3.248  -2.151  0.00  0.00    -0.730 N 
ATOM      2  H   LIG    1       -2.978   2.280  -2.112  0.00  0.00    +0.390 HD
ATOM      3  C   LIG    1       -1.947   3.899  -1.496  0.00  0.00    +0.560 C 
ATOM      4  O   LIG    1       -1.885   5.112  -1.545  0.00  0.00    -0.490 OA
ENDROOT
BRANCH   3   5
ATOM      5  C   LIG    1       -0.948   3.140  -0.722  0.00  0.00    -0.160 A 
ATOM      6  C   LIG    1       -0.960   1.741  -0.721  0.00  0.00    +0.100 A 
ATOM      7  C   LIG    1       -0.004   1.076   0.026  0.00  0.00    -0.040 A 
ATOM      8  C   LIG    1        0.934   1.804   0.736  0.00  0.00    +0.300 A 
ATOM      9  N   LIG    1        0.932   3.123   0.718  0.00  0.00    -0.520 NA
ATOM     10  C   LIG    1        0.038   3.809   0.024  0.00  0.00    +0.340 A 
BRANCH  10  11
ATOM     11  N   LIG    1        0.073   5.191   0.034  0.00  0.00    -0.450 N 
ATOM     12  C   LIG    1        0.060   5.714   1.424  0.00  0.00    +0.180 C 
ATOM     13  C   LIG    1        0.623   7.149   1.269  0.00  0.00    +0.030 C 
ATOM     14  C   LIG    1        1.710   6.978   0.183  0.00  0.00    +0.010 C 
ATOM     15  C   LIG    1        1.324   5.694  -0.574  0.00  0.00    +0.180 C 
ENDBRANCH  10  11
ENDBRANCH   3   5
BRANCH   1  17
ATOM     16  C   LIG    1       -5.046   4.461  -1.990  0.00  0.00    +0.040 C 
ATOM     17  C   LIG    1       -3.921   4.002  -2.920  0.00  0.00    +0.290 C 
BRANCH  17  18
ATOM     18  C   LIG    1       -4.492   3.122  -4.003  0.00  0.00    -0.120 A 
ATOM     19  C   LIG    1       -4.764   1.792  -3.739  0.00  0.00    +0.050 A 
ATOM     20  C   LIG    1       -5.292   0.984  -4.728  0.00  0.00    -0.050 A 
ATOM     21  C   LIG    1       -5.540   1.506  -5.989  0.00  0.00    +0.110 A 
ATOM     22  C   LIG    1       -5.261   2.840  -6.253  0.00  0.00    +0.010 A 
ATOM     23  C   LIG    1       -4.738   3.644  -5.259  0.00  0.00    +0.070 A 
BRANCH  21  24
ATOM     24  O   LIG    1       -6.055   0.713  -6.965  0.00  0.00    -0.320 OA
BRANCH  24  25
ATOM     25  C   LIG    1       -6.317  -0.649  -6.622  0.00  0.00    +0.590 C 
ATOM     26  F   LIG    1       -7.241  -0.697  -5.572  0.00  0.00    -0.200 F 
ATOM     27  F   LIG    1       -5.127  -1.268  -6.224  0.00  0.00    -0.200 F 
ENDBRANCH  24  25
ENDBRANCH  21  24
ENDBRANCH  17  18
ENDBRANCH   1  17
TORSDOF 6
