REMARK  Name = ZINCvU0000000B61.0
REMARK                            x       y       z     vdW  Elec       q    Type
REMARK                         _______ _______ _______ _____ _____    ______ ____
ROOT
ATOM      1  C   LIG    1       -3.627   2.244  -0.499  0.00  0.00    +0.510 C 
ATOM      2  O   LIG    1       -3.529   3.282   0.127  0.00  0.00    -0.510 OA
ENDROOT
BRANCH   1   3
ATOM      3  C   LIG    1       -2.647   1.233  -0.352  0.00  0.00    -0.060 C 
ATOM      4  C   LIG    1       -1.602   1.422   0.486  0.00  0.00    +0.200 C 
BRANCH   4   5
ATOM      5  C   LIG    1       -0.586   0.374   0.639  0.00  0.00    -0.210 A 
ATOM      6  C   LIG    1       -0.819  -0.968   0.895  0.00  0.00    +0.150 A 
ATOM      7  N   LIG    1        0.381  -1.578   0.954  0.00  0.00    -0.300 N 
ATOM      8  N   LIG    1        1.377  -0.620   0.736  0.00  0.00    -0.260 NA
ATOM      9 CL   LIG    1       -2.369  -1.722   1.101  0.00  0.00    +0.020 Cl
ATOM     10  C   LIG    1        0.817   0.542   0.547  0.00  0.00    +0.120 A 
ATOM     11  C   LIG    1        1.537   1.838   0.277  0.00  0.00    +0.180 C 
BRANCH   7  12
ATOM     12  C   LIG    1        0.595  -2.942   1.194  0.00  0.00    +0.130 A 
ATOM     13  C   LIG    1       -0.238  -3.634   2.063  0.00  0.00    +0.010 A 
ATOM     14  C   LIG    1       -0.028  -4.980   2.293  0.00  0.00    +0.040 A 
ATOM     15  C   LIG    1        1.017  -5.635   1.668  0.00  0.00    +0.020 A 
ATOM     16  C   LIG    1        1.852  -4.947   0.807  0.00  0.00    +0.040 A 
ATOM     17  C   LIG    1        1.643  -3.602   0.568  0.00  0.00    +0.040 A 
ENDBRANCH   7  12
ENDBRANCH   4   5
ENDBRANCH   1   3
BRANCH   1  18
ATOM     18  O   LIG    1       -4.670   2.055  -1.335  0.00  0.00    -0.330 OA
BRANCH  18  19
ATOM     19  C   LIG    1       -5.621   3.117  -1.435  0.00  0.00    +0.230 C 
BRANCH  19  20
ATOM     20  C   LIG    1       -6.706   2.730  -2.406  0.00  0.00    +0.430 C 
ATOM     21  O   LIG    1       -6.668   1.650  -2.959  0.00  0.00    -0.450 OA
BRANCH  20  25
ATOM     22  C   LIG    1       -9.741   6.822  -2.350  0.00  0.00    +0.130 C 
ATOM     23  C   LIG    1       -9.136   5.474  -2.646  0.00  0.00    +0.020 A 
ATOM     24  C   LIG    1       -8.003   4.993  -2.107  0.00  0.00    -0.010 A 
ATOM     25  C   LIG    1       -7.805   3.657  -2.683  0.00  0.00    -0.270 A 
ATOM     26  C   LIG    1       -8.867   3.456  -3.546  0.00  0.00    +0.120 A 
ATOM     27  C   LIG    1       -9.104   2.226  -4.384  0.00  0.00    +0.150 C 
ATOM     28  N   LIG    1       -9.652   4.547  -3.506  0.00  0.00    -0.430 N 
BRANCH  28  29
ATOM     29  C   LIG    1      -10.883   4.720  -4.280  0.00  0.00    +0.220 C 
ATOM     30  C   LIG    1      -10.807   6.024  -5.076  0.00  0.00    +0.050 C 
ATOM     31  C   LIG    1      -12.081   4.772  -3.329  0.00  0.00    +0.050 C 
ENDBRANCH  28  29
ENDBRANCH  20  25
ENDBRANCH  19  20
ENDBRANCH  18  19
ENDBRANCH   1  18
TORSDOF 8
