REMARK  Name = ZINCrD000006Vkwk.0
REMARK                            x       y       z     vdW  Elec       q    Type
REMARK                         _______ _______ _______ _____ _____    ______ ____
ROOT
ATOM      1  C   LIG    1        0.305   8.285  -0.318  0.00  0.00    +0.560 C 
ATOM      2  N   LIG    1        1.456   7.596  -0.188  0.00  0.00    -0.670 N 
ATOM      3  H   LIG    1        2.300   8.069  -0.122  0.00  0.00    +0.410 HD
ATOM      4  O   LIG    1       -0.760   7.698  -0.303  0.00  0.00    -0.510 OA
ENDROOT
BRANCH   1  11
ATOM      5  C   LIG    1       -0.599  16.019  -1.215  0.00  0.00    +0.160 C 
ATOM      6  C   LIG    1       -0.643  14.521  -1.052  0.00  0.00    +0.120 A 
ATOM      7  N   LIG    1        0.477  13.848  -0.925  0.00  0.00    -0.430 NA
ATOM      8  C   LIG    1        0.441  12.519  -0.780  0.00  0.00    +0.100 A 
ATOM      9  C   LIG    1        1.627  11.775  -0.641  0.00  0.00    +0.070 A 
ATOM     10  C   LIG    1        1.571  10.428  -0.489  0.00  0.00    +0.060 A 
ATOM     11  C   LIG    1        0.337   9.754  -0.479  0.00  0.00    -0.120 A 
ATOM     12  C   LIG    1       -0.848  10.457  -0.612  0.00  0.00    +0.160 A 
ATOM     13  C   LIG    1       -0.811  11.852  -0.764  0.00  0.00    +0.070 A 
ATOM     14  N   LIG    1       -1.939  12.560  -0.895  0.00  0.00    -0.420 NA
ATOM     15  C   LIG    1       -1.877  13.864  -1.037  0.00  0.00    +0.110 A 
ATOM     16  C   LIG    1       -3.148  14.659  -1.185  0.00  0.00    +0.160 C 
ENDBRANCH   1  11
BRANCH   2  17
ATOM     17  C   LIG    1        1.433   6.196  -0.146  0.00  0.00    +0.120 A 
ATOM     18  C   LIG    1        2.360   5.508   0.627  0.00  0.00    +0.010 A 
ATOM     19  C   LIG    1        2.337   4.129   0.667  0.00  0.00    +0.010 A 
ATOM     20  C   LIG    1        1.388   3.428  -0.065  0.00  0.00    +0.100 A 
ATOM     21  C   LIG    1        0.465   4.115  -0.843  0.00  0.00    -0.020 A 
ATOM     22  C   LIG    1        0.484   5.495  -0.879  0.00  0.00    +0.050 A 
BRANCH  20  23
ATOM     23  N   LIG    1        1.365   2.030  -0.024  0.00  0.00    -0.490 N 
ATOM     24  C   LIG    1        0.286   1.495  -0.868  0.00  0.00    +0.160 C 
ATOM     25  C   LIG    1        0.335  -0.035  -0.841  0.00  0.00    +0.220 C 
ATOM     26  O   LIG    1        0.237  -0.486   0.513  0.00  0.00    -0.380 OA
ATOM     27  C   LIG    1        1.273   0.015   1.363  0.00  0.00    +0.220 C 
ATOM     28  C   LIG    1        1.234   1.545   1.358  0.00  0.00    +0.160 C 
ENDBRANCH  20  23
ENDBRANCH   2  17
TORSDOF 3
