REMARK  Name = ZINCtV000002pxkr.0
REMARK                            x       y       z     vdW  Elec       q    Type
REMARK                         _______ _______ _______ _____ _____    ______ ____
ROOT
ATOM      1  C   LIG    1        0.447  -8.201   0.171  0.00  0.00    +0.190 A 
ATOM      2  N   LIG    1        0.750  -6.927   0.166  0.00  0.00    -0.470 NA
ATOM      3  C   LIG    1       -0.433  -6.272   0.111  0.00  0.00    +0.210 A 
ATOM      4  N   LIG    1       -1.375  -7.179   0.092  0.00  0.00    -0.370 NA
ATOM      5  O   LIG    1       -0.886  -8.289   0.120  0.00  0.00    +0.090 OA
ENDROOT
BRANCH   3   6
ATOM      6  C   LIG    1       -0.625  -4.802   0.084  0.00  0.00    -0.020 A 
ATOM      7  C   LIG    1       -1.911  -4.267   0.027  0.00  0.00    +0.070 A 
ATOM      8  C   LIG    1       -2.086  -2.900   0.002  0.00  0.00    +0.020 A 
ATOM      9  C   LIG    1       -0.984  -2.056   0.034  0.00  0.00    +0.100 A 
ATOM     10  C   LIG    1        0.299  -2.586   0.085  0.00  0.00    +0.010 A 
ATOM     11  C   LIG    1        0.480  -3.953   0.116  0.00  0.00    +0.090 A 
BRANCH   9  12
ATOM     12  O   LIG    1       -1.160  -0.709   0.009  0.00  0.00    -0.250 OA
BRANCH  12  13
ATOM     13  C   LIG    1       -1.289  -0.061   1.196  0.00  0.00    +0.070 A 
ATOM     14  C   LIG    1       -1.482   1.317   1.230  0.00  0.00    +0.050 A 
ATOM     15  C   LIG    1       -1.608   1.934   2.465  0.00  0.00    +0.020 A 
ATOM     16  C   LIG    1       -1.538   1.167   3.612  0.00  0.00    +0.230 A 
ATOM     17  N   LIG    1       -1.355  -0.138   3.545  0.00  0.00    -0.450 NA
ATOM     18  C   LIG    1       -1.230  -0.763   2.392  0.00  0.00    +0.190 A 
ENDBRANCH  12  13
ENDBRANCH   9  12
ENDBRANCH   3   6
BRANCH   1  19
ATOM     19  C   LIG    1        1.418  -9.352   0.225  0.00  0.00    +0.210 C 
BRANCH  19  20
ATOM     20  C   LIG    1        1.690  -9.722   1.685  0.00  0.00    +0.080 C 
BRANCH  20  21
ATOM     21  C   LIG    1        2.676 -10.890   1.739  0.00  0.00    +0.090 C 
BRANCH  21  22
ATOM     22  S   LIG    1        2.999 -11.329   3.470  0.00  0.00    -0.090 S 
BRANCH  22  27
ATOM     23 BR   LIG    1        7.139 -16.211   2.974  0.00  0.00    -0.050 Br
ATOM     24  C   LIG    1        5.920 -14.773   3.120  0.00  0.00    -0.100 A 
ATOM     25  C   LIG    1        5.515 -14.335   4.369  0.00  0.00    +0.070 A 
ATOM     26  C   LIG    1        4.625 -13.286   4.479  0.00  0.00    +0.040 A 
ATOM     27  C   LIG    1        4.135 -12.669   3.334  0.00  0.00    -0.070 A 
ATOM     28  C   LIG    1        4.540 -13.114   2.081  0.00  0.00    +0.000 A 
ATOM     29  C   LIG    1        5.435 -14.161   1.978  0.00  0.00    +0.070 A 
ENDBRANCH  22  27
ENDBRANCH  21  22
ENDBRANCH  20  21
ENDBRANCH  19  20
ENDBRANCH   1  19
TORSDOF 8
