REMARK  Name = ZINC9p0000002o1k.0
REMARK                            x       y       z     vdW  Elec       q    Type
REMARK                         _______ _______ _______ _____ _____    ______ ____
ROOT
ATOM      1  C   LIG    1       -0.750   3.109   1.275  0.00  0.00    -0.040 C 
ATOM      2  C   LIG    1       -1.595   3.614   0.104  0.00  0.00    +0.030 C 
ATOM      3  C   LIG    1       -1.616   5.144   0.113  0.00  0.00    +0.010 C 
ATOM      4  C   LIG    1       -2.220   5.639   1.429  0.00  0.00    +0.050 C 
ATOM      5  C   LIG    1       -1.374   5.133   2.599  0.00  0.00    +0.170 C 
ATOM      6  C   LIG    1       -1.354   3.604   2.591  0.00  0.00    +0.060 C 
ENDROOT
BRANCH   5   7
ATOM      7  N   LIG    1       -0.003   5.643   2.468  0.00  0.00    -0.640 N 
ATOM      8  H   LIG    1        0.555   5.309   3.241  0.00  0.00    +0.440 HD
ATOM      9  H   LIG    1       -0.016   6.652   2.474  0.00  0.00    +0.440 HD
ATOM     10  H   LIG    1        0.396   5.316   1.601  0.00  0.00    +0.430 HD
ENDBRANCH   5   7
BRANCH   1  12
ATOM     11  C   LIG    1       -0.013   1.086   0.008  0.00  0.00    +0.010 C 
ATOM     12  C   LIG    1       -0.729   1.579   1.267  0.00  0.00    +0.020 C 
ENDBRANCH   1  12
TORSDOF 2
