REMARK  Name = ZINCpe000000VwSR.0
REMARK                            x       y       z     vdW  Elec       q    Type
REMARK                         _______ _______ _______ _____ _____    ______ ____
ROOT
ATOM      1  C   LIG    1        1.184   2.096   0.002  0.00  0.00    -0.120 A 
ATOM      2  C   LIG    1       -0.017   1.389   0.010  0.00  0.00    +0.220 A 
ATOM      3  C   LIG    1        0.002  -0.004   0.002  0.00  0.00    -0.140 A 
ATOM      4  C   LIG    1        1.223  -0.683  -0.013  0.00  0.00    +0.170 A 
ATOM      5  C   LIG    1        2.409   0.024  -0.020  0.00  0.00    -0.060 A 
ATOM      6  C   LIG    1        2.398   1.404  -0.012  0.00  0.00    +0.200 A 
ENDROOT
BRANCH   3   7
ATOM      7  C   LIG    1       -1.267  -0.762   0.011  0.00  0.00    +0.560 C 
ATOM      8  N   LIG    1       -1.247  -2.110   0.003  0.00  0.00    -0.720 N 
ATOM      9  H   LIG    1       -0.400  -2.582  -0.008  0.00  0.00    +0.400 HD
ATOM     10  O   LIG    1       -2.329  -0.170   0.024  0.00  0.00    -0.520 OA
BRANCH   8  11
ATOM     11  C   LIG    1       -2.505  -2.861   0.012  0.00  0.00    +0.270 C 
BRANCH  11  12
ATOM     12  C   LIG    1       -2.203  -4.361   0.001  0.00  0.00    +0.020 C 
BRANCH  12  13
ATOM     13  C   LIG    1       -3.517  -5.146   0.009  0.00  0.00    +0.180 C 
BRANCH  13  14
ATOM     14  N   LIG    1       -3.227  -6.586  -0.001  0.00  0.00    -0.540 NA
ATOM     15  C   LIG    1       -2.596  -6.987  -1.267  0.00  0.00    +0.140 C 
ATOM     16  C   LIG    1       -2.258  -8.479  -1.212  0.00  0.00    +0.220 C 
ATOM     17  O   LIG    1       -3.449  -9.223  -0.941  0.00  0.00    -0.390 OA
ATOM     18  C   LIG    1       -4.089  -8.858   0.285  0.00  0.00    +0.220 C 
ATOM     19  C   LIG    1       -4.446  -7.370   0.245  0.00  0.00    +0.150 C 
ENDBRANCH  13  14
ENDBRANCH  12  13
ENDBRANCH  11  12
ENDBRANCH   8  11
ENDBRANCH   3   7
BRANCH   5  20
ATOM     20  N   LIG    1        3.699  -0.703  -0.036  0.00  0.00    +0.030 N 
ATOM     21  O   LIG    1        4.747  -0.082  -0.042  0.00  0.00    -0.140 OA
ATOM     22  O   LIG    1        3.712  -1.921  -0.043  0.00  0.00    -0.150 OA
ENDBRANCH   5  20
BRANCH   1  23
ATOM     23  C   LIG    1        1.174   3.573   0.010  0.00  0.00    +0.510 C 
ATOM     24  O   LIG    1        0.118   4.173   0.022  0.00  0.00    -0.480 OA
BRANCH  23  26
ATOM     25  C   LIG    1        2.249   5.704   0.010  0.00  0.00    +0.290 C 
ATOM     26  O   LIG    1        2.336   4.255   0.002  0.00  0.00    -0.350 OA
ENDBRANCH  23  26
ENDBRANCH   1  23
TORSDOF 8
