REMARK  Name = ZINCrg000000sAfp.0
REMARK                            x       y       z     vdW  Elec       q    Type
REMARK                         _______ _______ _______ _____ _____    ______ ____
ROOT
ATOM      1  C   LIG    1       -2.325  -0.015   4.121  0.00  0.00    +0.360 C 
ATOM      2  N   LIG    1       -1.825   1.023   3.217  0.00  0.00    -0.560 N 
ATOM      3  C   LIG    1       -2.014   2.324   3.530  0.00  0.00    +0.570 A 
ATOM      4  C   LIG    1       -1.499   3.346   2.600  0.00  0.00    -0.220 A 
ATOM      5  C   LIG    1       -1.652   4.708   2.847  0.00  0.00    +0.200 A 
ATOM      6  C   LIG    1       -1.137   5.599   1.919  0.00  0.00    +0.020 A 
ATOM      7  C   LIG    1       -0.492   5.108   0.785  0.00  0.00    +0.160 A 
ATOM      8  N   LIG    1       -0.362   3.804   0.577  0.00  0.00    -0.490 NA
ATOM      9  C   LIG    1       -0.832   2.918   1.436  0.00  0.00    +0.400 A 
ATOM     10  N   LIG    1       -0.698   1.558   1.213  0.00  0.00    -0.530 N 
ATOM     11  C   LIG    1       -0.013   1.086   0.008  0.00  0.00    +0.350 C 
ATOM     12  O   LIG    1       -2.593   2.643   4.551  0.00  0.00    -0.480 OA
ATOM     13  C   LIG    1       -1.185   0.667   2.092  0.00  0.00    +0.710 A 
ATOM     14  O   LIG    1       -1.041  -0.517   1.857  0.00  0.00    -0.530 OA
ENDROOT
BRANCH   7  15
ATOM     15  C   LIG    1        0.059   6.062  -0.208  0.00  0.00    +0.570 C 
ATOM     16  N   LIG    1        0.685   5.601  -1.309  0.00  0.00    -0.710 N 
ATOM     17  H   LIG    1        0.775   4.646  -1.452  0.00  0.00    +0.420 HD
ATOM     18  O   LIG    1       -0.054   7.258  -0.030  0.00  0.00    -0.520 OA
BRANCH  16  19
ATOM     19  C   LIG    1        1.230   6.543  -2.291  0.00  0.00    +0.310 C 
BRANCH  19  20
ATOM     20  C   LIG    1        1.883   5.766  -3.435  0.00  0.00    +0.210 C 
BRANCH  20  21
ATOM     21  O   LIG    1        0.885   5.022  -4.138  0.00  0.00    -0.310 OA
BRANCH  21  22
ATOM     22  C   LIG    1        1.302   4.272  -5.191  0.00  0.00    +0.140 A 
ATOM     23  C   LIG    1        2.643   4.256  -5.545  0.00  0.00    -0.080 A 
ATOM     24  C   LIG    1        3.066   3.488  -6.613  0.00  0.00    +0.070 A 
ATOM     25  C   LIG    1        2.153   2.745  -7.336  0.00  0.00    -0.010 A 
ATOM     26  C   LIG    1        0.813   2.763  -6.989  0.00  0.00    +0.000 A 
ATOM     27 CL   LIG    1       -0.332   1.828  -7.899  0.00  0.00    -0.060 Cl
ATOM     28  C   LIG    1        0.386   3.525  -5.918  0.00  0.00    +0.000 A 
ENDBRANCH  21  22
ENDBRANCH  20  21
ENDBRANCH  19  20
ENDBRANCH  16  19
ENDBRANCH   7  15
TORSDOF 5
