REMARK  Name = ZINCrg00000SjSFa.0
REMARK                            x       y       z     vdW  Elec       q    Type
REMARK                         _______ _______ _______ _____ _____    ______ ____
ROOT
ATOM      1  C   LIG    1       -5.402   0.944   0.033  0.00  0.00    +0.410 A 
ATOM      2  N   LIG    1       -5.255  -0.346   0.025  0.00  0.00    -0.490 NA
ATOM      3  C   LIG    1       -6.322  -1.183   0.026  0.00  0.00    +0.150 A 
ATOM      4  C   LIG    1       -6.164  -2.570   0.018  0.00  0.00    +0.040 A 
ATOM      5  C   LIG    1       -7.276  -3.383   0.020  0.00  0.00    +0.070 A 
ATOM      6  C   LIG    1       -8.554  -2.841   0.029  0.00  0.00    +0.010 A 
ATOM      7  C   LIG    1       -8.735  -1.475   0.037  0.00  0.00    +0.100 A 
ATOM      8  C   LIG    1       -7.624  -0.635   0.036  0.00  0.00    -0.190 A 
ATOM      9  C   LIG    1       -7.755   0.830   0.044  0.00  0.00    +0.560 A 
ATOM     10  O   LIG    1       -8.848   1.367   0.053  0.00  0.00    -0.500 OA
ATOM     11  N   LIG    1       -6.614   1.558   0.048  0.00  0.00    -0.520 N 
ENDROOT
BRANCH   1  12
ATOM     12  C   LIG    1       -4.165   1.805   0.032  0.00  0.00    +0.140 C 
BRANCH  12  13
ATOM     13  S   LIG    1       -2.692   0.747   0.019  0.00  0.00    -0.060 S 
BRANCH  13  14
ATOM     14  C   LIG    1       -1.330   1.944   0.019  0.00  0.00    +0.080 C 
BRANCH  14  17
ATOM     15  N   LIG    1        1.143   1.898   0.001  0.00  0.00    -0.630 N 
ATOM     16  H   LIG    1        1.130   2.868   0.007  0.00  0.00    +0.420 HD
ATOM     17  C   LIG    1       -0.014   1.209   0.009  0.00  0.00    +0.540 C 
ATOM     18  O   LIG    1        0.002  -0.004   0.002  0.00  0.00    -0.490 OA
BRANCH  15  22
ATOM     19  C   LIG    1        4.658  -1.638  -0.052  0.00  0.00    +0.190 C 
ATOM     20  C   LIG    1        3.895  -0.338  -0.038  0.00  0.00    -0.020 A 
ATOM     21  C   LIG    1        2.550  -0.190  -0.023  0.00  0.00    -0.040 A 
ATOM     22  C   LIG    1        2.361   1.217  -0.014  0.00  0.00    +0.250 A 
ATOM     23  N   LIG    1        3.556   1.747  -0.028  0.00  0.00    -0.390 NA
ATOM     24  O   LIG    1        4.416   0.897  -0.037  0.00  0.00    +0.100 OA
ENDBRANCH  15  22
ENDBRANCH  14  17
ENDBRANCH  13  14
ENDBRANCH  12  13
ENDBRANCH   1  12
BRANCH  11  25
ATOM     25  C   LIG    1       -6.687   3.021   0.061  0.00  0.00    +0.340 C 
BRANCH  25  26
ATOM     26  C   LIG    1       -6.723   3.536  -1.354  0.00  0.00    +0.500 C 
ATOM     27  O   LIG    1       -6.690   2.757  -2.284  0.00  0.00    -0.520 OA
ATOM     28  N   LIG    1       -6.790   4.862  -1.588  0.00  0.00    -0.850 N 
ATOM     29  H   LIG    1       -6.813   5.193  -2.499  0.00  0.00    +0.410 HD
ATOM     30  H   LIG    1       -6.816   5.484  -0.845  0.00  0.00    +0.400 HD
ENDBRANCH  25  26
ENDBRANCH  11  25
TORSDOF 7
