REMARK  Name = ZINCrD00000kIV52.0
REMARK                            x       y       z     vdW  Elec       q    Type
REMARK                         _______ _______ _______ _____ _____    ______ ____
ROOT
ATOM      1  C   LIG    1       -0.550  -2.985   1.036  0.00  0.00    +0.170 C 
ATOM      2  C   LIG    1        0.187  -3.157  -0.267  0.00  0.00    +0.150 A 
ATOM      3  C   LIG    1        0.638  -2.143  -1.085  0.00  0.00    -0.290 A 
ATOM      4  C   LIG    1        0.601  -0.683  -1.046  0.00  0.00    +0.350 A 
ATOM      5  C   LIG    1        1.185  -0.005  -2.104  0.00  0.00    -0.150 A 
ATOM      6  C   LIG    1        1.784  -0.708  -3.140  0.00  0.00    +0.190 A 
ATOM      7  N   LIG    1        1.828  -2.015  -3.194  0.00  0.00    -0.470 NA
ATOM      8  C   LIG    1        1.294  -2.787  -2.234  0.00  0.00    +0.310 A 
ATOM      9  N   LIG    1        1.198  -4.089  -2.039  0.00  0.00    -0.270 NA
ATOM     10  N   LIG    1        0.521  -4.322  -0.837  0.00  0.00    -0.410 N 
ATOM     11  H   LIG    1        0.323  -5.198  -0.470  0.00  0.00    +0.450 HD
ENDROOT
BRANCH   6  12
ATOM     12  C   LIG    1        2.412   0.075  -4.265  0.00  0.00    +0.520 C 
ATOM     13  F   LIG    1        3.500   0.804  -3.776  0.00  0.00    -0.170 F 
ATOM     14  F   LIG    1        1.467   0.954  -4.806  0.00  0.00    -0.170 F 
ATOM     15  F   LIG    1        2.850  -0.807  -5.259  0.00  0.00    -0.160 F 
ENDBRANCH   6  12
BRANCH   4  16
ATOM     16  N   LIG    1        0.002  -0.004   0.002  0.00  0.00    -0.710 N 
ATOM     17  H   LIG    1       -0.404  -0.499   0.731  0.00  0.00    +0.410 HD
BRANCH  16  18
ATOM     18  C   LIG    1       -0.018   1.461   0.010  0.00  0.00    +0.310 C 
BRANCH  18  19
ATOM     19  C   LIG    1       -0.734   1.954   1.269  0.00  0.00    -0.370 C 
BRANCH  19  20
ATOM     20  S   LIG    1       -0.758   3.768   1.279  0.00  0.00    +2.420 S 
ATOM     21  O   LIG    1       -1.558   4.216   0.192  0.00  0.00    -0.920 OA
ATOM     22  O   LIG    1        0.577   4.238   1.398  0.00  0.00    -0.920 OA
BRANCH  20  23
ATOM     23  C   LIG    1       -1.636   4.122   2.826  0.00  0.00    -0.280 C 
BRANCH  23  24
ATOM     24  C   LIG    1       -1.754   5.614   3.007  0.00  0.00    -0.100 A 
ATOM     25  C   LIG    1       -0.768   6.308   3.683  0.00  0.00    +0.030 A 
ATOM     26  C   LIG    1       -0.874   7.677   3.845  0.00  0.00    +0.010 A 
ATOM     27  C   LIG    1       -1.970   8.350   3.339  0.00  0.00    +0.020 A 
ATOM     28  C   LIG    1       -2.958   7.655   2.667  0.00  0.00    +0.010 A 
ATOM     29  C   LIG    1       -2.850   6.287   2.501  0.00  0.00    +0.030 A 
ENDBRANCH  23  24
ENDBRANCH  20  23
ENDBRANCH  19  20
ENDBRANCH  18  19
ENDBRANCH  16  18
ENDBRANCH   4  16
TORSDOF 7
