REMARK  Name = ZINCrH00000tj10d.0
REMARK                            x       y       z     vdW  Elec       q    Type
REMARK                         _______ _______ _______ _____ _____    ______ ____
ROOT
ATOM      1  C   LIG    1        1.518   2.312  -1.811  0.00  0.00    +0.350 C 
ATOM      2  N   LIG    1        2.514   1.726  -0.912  0.00  0.00    -0.540 N 
ATOM      3  C   LIG    1        3.818   1.862  -1.197  0.00  0.00    +0.580 C 
ATOM      4  N   LIG    1        4.785   1.362  -0.414  0.00  0.00    -0.590 N 
ATOM      5  C   LIG    1        4.468   0.618   0.806  0.00  0.00    +0.330 C 
ATOM      6  C   LIG    1        3.137   1.123   1.371  0.00  0.00    -0.010 C 
ATOM      7  C   LIG    1        6.187   1.564  -0.788  0.00  0.00    +0.350 C 
ATOM      8  S   LIG    1        4.264   2.708  -2.617  0.00  0.00    -0.610 S 
ATOM      9  C   LIG    1        2.067   1.004   0.280  0.00  0.00    +0.300 C 
ENDROOT
BRANCH   9  10
ATOM     10  C   LIG    1        0.774   1.599   0.775  0.00  0.00    -0.120 A 
ATOM     11  C   LIG    1       -0.210   0.780   1.295  0.00  0.00    +0.030 A 
ATOM     12  C   LIG    1       -1.398   1.326   1.744  0.00  0.00    +0.010 A 
ATOM     13  C   LIG    1       -1.597   2.693   1.682  0.00  0.00    +0.030 A 
ATOM     14  C   LIG    1       -0.613   3.512   1.162  0.00  0.00    +0.010 A 
ATOM     15  C   LIG    1        0.573   2.965   0.708  0.00  0.00    +0.040 A 
ENDBRANCH   9  10
BRANCH   5  16
ATOM     16  C   LIG    1        4.355  -0.873   0.482  0.00  0.00    +0.420 C 
ATOM     17  F   LIG    1        3.338  -1.068  -0.460  0.00  0.00    -0.160 F 
ATOM     18  F   LIG    1        4.052  -1.582   1.649  0.00  0.00    -0.160 F 
ATOM     19  F   LIG    1        5.569  -1.330  -0.041  0.00  0.00    -0.170 F 
ENDBRANCH   5  16
BRANCH   6  20
ATOM     20  C   LIG    1        3.278   2.565   1.786  0.00  0.00    +0.450 C 
ATOM     21  O   LIG    1        3.250   3.443   0.948  0.00  0.00    -0.420 OA
BRANCH  20  22
ATOM     22  C   LIG    1        3.442   2.895   3.149  0.00  0.00    -0.300 A 
ATOM     23  C   LIG    1        3.580   4.164   3.651  0.00  0.00    +0.120 A 
ATOM     24  C   LIG    1        3.723   4.195   5.015  0.00  0.00    -0.010 A 
ATOM     25  C   LIG    1        3.705   2.998   5.617  0.00  0.00    -0.050 A 
ATOM     26  S   LIG    1        3.494   1.745   4.478  0.00  0.00    +0.240 S 
ENDBRANCH  20  22
ENDBRANCH   6  20
BRANCH   5  27
ATOM     27  O   LIG    1        5.504   0.819   1.770  0.00  0.00    -0.500 OA
ATOM     28  H   LIG    1        6.377   0.526   1.476  0.00  0.00    +0.400 HD
ENDBRANCH   5  27
TORSDOF 5
