REMARK  Name = ZINCvU0000000F9E.0
REMARK                            x       y       z     vdW  Elec       q    Type
REMARK                         _______ _______ _______ _____ _____    ______ ____
ROOT
ATOM      1  O   LIG    1        1.315  -4.642  -0.037  0.00  0.00    -0.480 OA
ATOM      2  C   LIG    1        0.192  -4.198  -0.024  0.00  0.00    +0.470 C 
ENDROOT
BRANCH   2   3
ATOM      3  O   LIG    1       -0.860  -5.032  -0.019  0.00  0.00    -0.350 OA
BRANCH   3   4
ATOM      4  C   LIG    1       -0.572  -6.455  -0.029  0.00  0.00    +0.300 C 
BRANCH   4   5
ATOM      5  C   LIG    1       -1.865  -7.229  -0.022  0.00  0.00    -0.080 A 
ATOM      6  C   LIG    1       -2.468  -7.576  -1.216  0.00  0.00    +0.070 A 
ATOM      7  C   LIG    1       -3.656  -8.286  -1.217  0.00  0.00    -0.040 A 
ATOM      8  C   LIG    1       -4.240  -8.648  -0.014  0.00  0.00    +0.090 A 
ATOM      9  O   LIG    1       -5.412  -9.348   0.000  0.00  0.00    -0.310 OA
ATOM     10  C   LIG    1       -5.330 -10.695   0.471  0.00  0.00    +0.230 C 
ATOM     11  C   LIG    1       -5.412 -10.742   1.989  0.00  0.00    +0.000 C 
ATOM     12  C   LIG    1       -4.226 -10.061   2.654  0.00  0.00    +0.230 C 
ATOM     13  O   LIG    1       -4.217  -8.662   2.365  0.00  0.00    -0.310 OA
ATOM     14  C   LIG    1       -3.634  -8.300   1.185  0.00  0.00    +0.080 A 
ATOM     15 CL   LIG    1       -4.412  -8.721  -2.719  0.00  0.00    -0.040 Cl
ATOM     16  C   LIG    1       -2.443  -7.595   1.181  0.00  0.00    +0.060 A 
ENDBRANCH   4   5
ENDBRANCH   3   4
ENDBRANCH   2   3
BRANCH   2  17
ATOM     17  C   LIG    1       -0.029  -2.707  -0.013  0.00  0.00    +0.290 C 
BRANCH  17  18
ATOM     18  O   LIG    1        1.234  -2.039  -0.021  0.00  0.00    -0.290 OA
BRANCH  18  19
ATOM     19  C   LIG    1        1.213  -0.680  -0.013  0.00  0.00    +0.130 A 
ATOM     20  C   LIG    1        0.002  -0.004   0.002  0.00  0.00    -0.080 A 
ATOM     21  C   LIG    1       -0.017   1.377   0.010  0.00  0.00    +0.050 A 
ATOM     22  C   LIG    1        1.170   2.086   0.002  0.00  0.00    -0.020 A 
ATOM     23  C   LIG    1        2.379   1.415  -0.013  0.00  0.00    +0.050 A 
ATOM     24  C   LIG    1        2.403   0.034  -0.021  0.00  0.00    -0.100 A 
BRANCH  24  25
ATOM     25  C   LIG    1        3.721  -0.698  -0.037  0.00  0.00    +0.130 C 
BRANCH  25  26
ATOM     26  C   LIG    1        4.087  -1.042  -1.457  0.00  0.00    -0.080 A 
ATOM     27  C   LIG    1        3.682  -2.247  -2.002  0.00  0.00    +0.020 A 
ATOM     28  C   LIG    1        4.013  -2.561  -3.307  0.00  0.00    +0.000 A 
ATOM     29  C   LIG    1        4.758  -1.675  -4.063  0.00  0.00    +0.000 A 
ATOM     30  C   LIG    1        5.168  -0.474  -3.516  0.00  0.00    +0.000 A 
ATOM     31  C   LIG    1        4.832  -0.157  -2.213  0.00  0.00    +0.000 A 
ENDBRANCH  25  26
ENDBRANCH  24  25
ENDBRANCH  18  19
ENDBRANCH  17  18
ENDBRANCH   2  17
TORSDOF 8
