REMARK  Name = ZINCrD0000073mej.0
REMARK                            x       y       z     vdW  Elec       q    Type
REMARK                         _______ _______ _______ _____ _____    ______ ____
ROOT
ATOM      1  N   LIG    1       -0.978  -0.979   0.006  0.00  0.00    -0.430 N 
ATOM      2  C   LIG    1        0.002  -0.004   0.002  0.00  0.00    +0.060 A 
ATOM      3  C   LIG    1       -0.017   1.383   0.010  0.00  0.00    +0.010 A 
ATOM      4  C   LIG    1        1.170   2.085   0.002  0.00  0.00    +0.040 A 
ATOM      5  C   LIG    1        2.384   1.414  -0.012  0.00  0.00    +0.000 A 
ATOM      6  C   LIG    1        2.422   0.038  -0.021  0.00  0.00    +0.070 A 
ATOM      7  C   LIG    1        1.229  -0.689  -0.013  0.00  0.00    +0.050 A 
ATOM      8  N   LIG    1        0.943  -2.016  -0.018  0.00  0.00    -0.460 NA
ATOM      9  C   LIG    1       -0.347  -2.186  -0.006  0.00  0.00    +0.280 A 
ENDROOT
BRANCH   1  13
ATOM     10  C   LIG    1       -5.101  -0.342   0.051  0.00  0.00    +0.150 A 
ATOM     11  C   LIG    1       -4.503  -0.944  -1.048  0.00  0.00    +0.000 A 
ATOM     12  C   LIG    1       -3.139  -1.154  -1.063  0.00  0.00    +0.080 A 
ATOM     13  C   LIG    1       -2.364  -0.764   0.021  0.00  0.00    +0.070 A 
ATOM     14  C   LIG    1       -2.963  -0.168   1.122  0.00  0.00    +0.070 A 
ATOM     15  C   LIG    1       -4.327   0.047   1.134  0.00  0.00    -0.060 A 
BRANCH  10  17
ATOM     16  C   LIG    1       -6.992   0.489   1.228  0.00  0.00    +0.250 C 
ATOM     17  O   LIG    1       -6.444  -0.135   0.065  0.00  0.00    -0.310 OA
ENDBRANCH  10  17
ENDBRANCH   1  13
BRANCH   9  18
ATOM     18  C   LIG    1       -1.042  -3.523  -0.008  0.00  0.00    +0.350 C 
BRANCH  18  19
ATOM     19  O   LIG    1       -1.278  -3.945  -1.377  0.00  0.00    -0.350 OA
BRANCH  19  20
ATOM     20  C   LIG    1       -1.893  -5.125  -1.554  0.00  0.00    +0.450 C 
ATOM     21  O   LIG    1       -2.224  -5.784  -0.597  0.00  0.00    -0.490 OA
BRANCH  20  22
ATOM     22  C   LIG    1       -2.171  -5.628  -2.947  0.00  0.00    +0.150 C 
ATOM     23  C   LIG    1       -3.522  -5.077  -3.448  0.00  0.00    +0.030 C 
ATOM     24  C   LIG    1       -4.131  -6.247  -4.262  0.00  0.00    +0.040 C 
ATOM     25  C   LIG    1       -3.721  -7.490  -3.434  0.00  0.00    +0.030 C 
ATOM     26  C   LIG    1       -2.297  -7.162  -2.938  0.00  0.00    +0.070 C 
BRANCH  22  27
ATOM     27  O   LIG    1       -1.121  -5.229  -3.830  0.00  0.00    -0.540 OA
ATOM     28  H   LIG    1       -0.999  -4.271  -3.888  0.00  0.00    +0.390 HD
ENDBRANCH  22  27
ENDBRANCH  20  22
ENDBRANCH  19  20
ENDBRANCH  18  19
ENDBRANCH   9  18
TORSDOF 7
