REMARK  Name = ZINCrH000004toG4.0
REMARK                            x       y       z     vdW  Elec       q    Type
REMARK                         _______ _______ _______ _____ _____    ______ ____
ROOT
ATOM      1  C   LIG    1        0.011   1.394  -0.048  0.00  0.00    +0.060 A 
ATOM      2  C   LIG    1        0.046   0.008   0.008  0.00  0.00    +0.040 A 
ATOM      3  C   LIG    1        1.259  -0.651   0.056  0.00  0.00    +0.010 A 
ATOM      4  C   LIG    1        2.443   0.073   0.047  0.00  0.00    +0.170 A 
ATOM      5  C   LIG    1        2.408   1.460  -0.009  0.00  0.00    +0.040 A 
ATOM      6  C   LIG    1        1.195   2.118  -0.057  0.00  0.00    +0.040 A 
ENDROOT
BRANCH   4   7
ATOM      7  N   LIG    1        3.674  -0.595   0.096  0.00  0.00    -0.690 N 
ATOM      8  H   LIG    1        3.770  -1.466  -0.321  0.00  0.00    +0.410 HD
ATOM      9  C   LIG    1        4.724  -0.029   0.724  0.00  0.00    +0.700 C 
ATOM     10  N   LIG    1        5.936  -0.616   0.674  0.00  0.00    -0.740 N 
ATOM     11  H   LIG    1        6.053  -1.447   0.186  0.00  0.00    +0.400 HD
ATOM     12  O   LIG    1        4.577   1.012   1.335  0.00  0.00    -0.570 OA
BRANCH  10  13
ATOM     13  C   LIG    1        7.077  -0.001   1.356  0.00  0.00    +0.280 C 
BRANCH  13  14
ATOM     14  C   LIG    1        8.323  -0.862   1.143  0.00  0.00    +0.030 C 
BRANCH  14  15
ATOM     15  C   LIG    1        9.515  -0.220   1.855  0.00  0.00    +0.330 C 
BRANCH  15  16
ATOM     16  N   LIG    1       10.709  -1.044   1.652  0.00  0.00    -0.380 N 
ATOM     17  C   LIG    1       11.885  -0.626   1.141  0.00  0.00    +0.220 A 
ATOM     18  C   LIG    1       12.726  -1.686   1.119  0.00  0.00    -0.120 A 
ATOM     19  C   LIG    1       12.039  -2.791   1.634  0.00  0.00    +0.230 A 
ATOM     20  N   LIG    1       10.832  -2.406   1.959  0.00  0.00    -0.300 NA
ENDBRANCH  15  16
ENDBRANCH  14  15
ENDBRANCH  13  14
ENDBRANCH  10  13
ENDBRANCH   4   7
BRANCH   1  21
ATOM     21  O   LIG    1       -1.183   2.042  -0.089  0.00  0.00    -0.250 OA
BRANCH  21  26
ATOM     22  C   LIG    1       -3.619   2.989  -2.634  0.00  0.00    +0.010 A 
ATOM     23  C   LIG    1       -2.930   2.624  -3.792  0.00  0.00    +0.040 A 
ATOM     24  C   LIG    1       -1.669   2.070  -3.698  0.00  0.00    +0.060 A 
ATOM     25  C   LIG    1       -1.085   1.876  -2.461  0.00  0.00    -0.030 A 
ATOM     26  C   LIG    1       -1.762   2.236  -1.303  0.00  0.00    +0.120 A 
ATOM     27  C   LIG    1       -3.030   2.787  -1.385  0.00  0.00    +0.040 A 
BRANCH  22  29
ATOM     28  N   LIG    1       -5.965   4.019  -2.800  0.00  0.00    -0.410 NA
ATOM     29  C   LIG    1       -4.928   3.563  -2.727  0.00  0.00    +0.250 C 
ENDBRANCH  22  29
ENDBRANCH  21  26
ENDBRANCH   1  21
TORSDOF 8
