REMARK  Name = ZINCqH0000038c0q.1
REMARK                            x       y       z     vdW  Elec       q    Type
REMARK                         _______ _______ _______ _____ _____    ______ ____
ROOT
ATOM      1  C   LIG    1        0.761   5.997   5.751  0.00  0.00    +0.530 C 
ATOM      2  N   LIG    1        0.376   4.748   5.420  0.00  0.00    -0.650 N 
ATOM      3  H   LIG    1        1.003   4.146   4.989  0.00  0.00    +0.420 HD
ATOM      4  O   LIG    1        0.005   6.722   6.362  0.00  0.00    -0.500 OA
ENDROOT
BRANCH   2   5
ATOM      5  C   LIG    1       -0.929   4.320   5.700  0.00  0.00    +0.170 A 
ATOM      6  C   LIG    1       -1.577   4.764   6.841  0.00  0.00    +0.020 A 
ATOM      7  C   LIG    1       -2.864   4.340   7.115  0.00  0.00    +0.030 A 
ATOM      8  C   LIG    1       -3.509   3.473   6.253  0.00  0.00    +0.000 A 
ATOM      9  C   LIG    1       -2.872   3.029   5.109  0.00  0.00    -0.010 A 
ATOM     10  C   LIG    1       -1.579   3.444   4.830  0.00  0.00    +0.060 A 
BRANCH  10  11
ATOM     11  N   LIG    1       -0.930   2.992   3.675  0.00  0.00    -0.500 N 
ATOM     12  C   LIG    1       -0.806   1.528   3.681  0.00  0.00    +0.190 C 
ATOM     13  C   LIG    1       -0.023   1.080   2.444  0.00  0.00    +0.180 C 
ATOM     14  N   LIG    1       -0.718   1.542   1.234  0.00  0.00    -0.550 NA
ATOM     15  C   LIG    1       -0.842   3.006   1.229  0.00  0.00    +0.180 C 
ATOM     16  C   LIG    1       -0.037   1.067   0.023  0.00  0.00    +0.190 C 
ATOM     17  C   LIG    1       -1.625   3.454   2.466  0.00  0.00    +0.190 C 
ENDBRANCH  10  11
ENDBRANCH   2   5
BRANCH   1  18
ATOM     18  C   LIG    1        2.130   6.492   5.362  0.00  0.00    +0.080 C 
BRANCH  18  19
ATOM     19  S   LIG    1        2.346   8.195   5.945  0.00  0.00    -0.020 S 
BRANCH  19  24
ATOM     20  C   LIG    1        7.927   9.566   4.100  0.00  0.00    +0.090 C 
ATOM     21  C   LIG    1        6.534   9.224   4.561  0.00  0.00    -0.090 A 
ATOM     22  C   LIG    1        6.005   7.975   4.291  0.00  0.00    +0.010 A 
ATOM     23  C   LIG    1        4.731   7.655   4.717  0.00  0.00    -0.010 A 
ATOM     24  C   LIG    1        3.975   8.595   5.407  0.00  0.00    -0.110 A 
ATOM     25  C   LIG    1        4.510   9.850   5.676  0.00  0.00    -0.060 A 
ATOM     26  C   LIG    1        3.696  10.871   6.429  0.00  0.00    +0.100 C 
ATOM     27  C   LIG    1        5.787  10.160   5.252  0.00  0.00    +0.030 A 
ENDBRANCH  19  24
ENDBRANCH  18  19
ENDBRANCH   1  18
TORSDOF 5
