REMARK  Name = ZINCrD000000fQdo.0
REMARK                            x       y       z     vdW  Elec       q    Type
REMARK                         _______ _______ _______ _____ _____    ______ ____
ROOT
ATOM      1  C   LIG    1       -0.131  -1.099   0.157  0.00  0.00    -0.050 A 
ATOM      2  C   LIG    1       -1.500  -0.979  -0.089  0.00  0.00    +0.040 A 
ATOM      3  C   LIG    1       -2.114   0.251   0.028  0.00  0.00    +0.070 A 
ATOM      4  C   LIG    1       -1.376   1.364   0.390  0.00  0.00    +0.040 A 
ATOM      5  C   LIG    1       -0.019   1.252   0.635  0.00  0.00    +0.100 A 
ATOM      6  C   LIG    1        0.608   0.028   0.521  0.00  0.00    -0.620 A 
ENDROOT
BRANCH   1   9
ATOM      7  N   LIG    1       -0.202  -3.522  -0.186  0.00  0.00    -0.660 N 
ATOM      8  H   LIG    1       -1.158  -3.449  -0.333  0.00  0.00    +0.420 HD
ATOM      9  C   LIG    1        0.533  -2.413   0.033  0.00  0.00    +0.550 C 
ATOM     10  O   LIG    1        1.742  -2.495   0.127  0.00  0.00    -0.490 OA
BRANCH   7  14
ATOM     11  C   LIG    1        1.628  -7.252  -0.231  0.00  0.00    -0.190 A 
ATOM     12  C   LIG    1        0.351  -7.103   0.326  0.00  0.00    +0.100 A 
ATOM     13  C   LIG    1       -0.246  -5.874   0.338  0.00  0.00    -0.020 A 
ATOM     14  C   LIG    1        0.411  -4.772  -0.201  0.00  0.00    +0.170 A 
ATOM     15  C   LIG    1        1.678  -4.917  -0.760  0.00  0.00    +0.020 A 
ATOM     16  C   LIG    1        2.286  -6.140  -0.772  0.00  0.00    +0.090 A 
BRANCH  11  18
ATOM     17  C   LIG    1        3.591  -8.755  -0.957  0.00  0.00    +0.070 C 
ATOM     18  C   LIG    1        2.274  -8.570  -0.247  0.00  0.00    +0.400 C 
ATOM     19  O   LIG    1        1.749  -9.510   0.312  0.00  0.00    -0.460 OA
ENDBRANCH  11  18
ENDBRANCH   7  14
ENDBRANCH   1   9
BRANCH   6  20
ATOM     20  S   LIG    1        2.336  -0.112   0.836  0.00  0.00    +2.700 S 
ATOM     21  O   LIG    1        2.972  -0.159  -0.434  0.00  0.00    -0.940 OA
ATOM     22  O   LIG    1        2.484  -1.129   1.817  0.00  0.00    -0.930 OA
BRANCH  20  23
ATOM     23  N   LIG    1        2.820   1.301   1.550  0.00  0.00    -1.010 NA
ATOM     24  C   LIG    1        3.397   2.387   0.745  0.00  0.00    +0.290 C 
ATOM     25  C   LIG    1        2.610   3.676   1.029  0.00  0.00    -0.000 C 
ATOM     26  C   LIG    1        2.608   3.944   2.536  0.00  0.00    +0.020 C 
ATOM     27  C   LIG    1        1.915   2.787   3.260  0.00  0.00    +0.010 C 
ATOM     28  C   LIG    1        2.688   1.491   3.001  0.00  0.00    +0.290 C 
ENDBRANCH  20  23
ENDBRANCH   6  20
TORSDOF 5
