REMARK  Name = ZINCrg00000IZWAZ.0
REMARK                            x       y       z     vdW  Elec       q    Type
REMARK                         _______ _______ _______ _____ _____    ______ ____
ROOT
ATOM      1  O   LIG    1       -4.481  -3.784  -0.986  0.00  0.00    -0.500 OA
ATOM      2  C   LIG    1       -4.511  -2.583  -1.158  0.00  0.00    +0.530 C 
ATOM      3  N   LIG    1       -3.366  -1.903  -1.364  0.00  0.00    -0.620 N 
ATOM      4  C   LIG    1       -2.087  -2.614  -1.497  0.00  0.00    +0.290 C 
ATOM      5  C   LIG    1       -1.103  -2.049  -0.464  0.00  0.00    +0.300 C 
ATOM      6  N   LIG    1       -1.112  -0.583  -0.560  0.00  0.00    -0.600 N 
ATOM      7  C   LIG    1       -2.391   0.129  -0.422  0.00  0.00    +0.290 C 
ATOM      8  C   LIG    1       -3.375  -0.436  -1.460  0.00  0.00    +0.270 C 
ENDROOT
BRANCH   2   9
ATOM      9  C   LIG    1       -5.830  -1.853  -1.141  0.00  0.00    +0.210 C 
ATOM     10  O   LIG    1       -6.836  -2.682  -1.722  0.00  0.00    -0.350 OA
ATOM     11  C   LIG    1       -8.156  -2.144  -1.584  0.00  0.00    +0.230 C 
ATOM     12  C   LIG    1       -8.568  -2.242  -0.114  0.00  0.00    +0.060 C 
ATOM     13  C   LIG    1       -7.473  -1.686   0.760  0.00  0.00    -0.060 A 
ATOM     14  C   LIG    1       -7.771  -1.353   2.071  0.00  0.00    +0.020 A 
ATOM     15  C   LIG    1       -6.790  -0.850   2.902  0.00  0.00    +0.020 A 
ATOM     16  C   LIG    1       -5.505  -0.677   2.423  0.00  0.00    +0.010 A 
ATOM     17  C   LIG    1       -5.207  -1.007   1.116  0.00  0.00    +0.010 A 
ATOM     18  C   LIG    1       -6.192  -1.510   0.280  0.00  0.00    -0.120 A 
ENDBRANCH   2   9
BRANCH   6  19
ATOM     19  C   LIG    1        0.064   0.116  -0.771  0.00  0.00    +0.410 A 
ATOM     20  C   LIG    1        1.264  -0.532  -0.739  0.00  0.00    +0.120 A 
ATOM     21  N   LIG    1        2.403   0.124  -0.940  0.00  0.00    -0.370 NA
ATOM     22  C   LIG    1        2.415   1.417  -1.176  0.00  0.00    +0.270 A 
ATOM     23  C   LIG    1        1.206   2.131  -1.219  0.00  0.00    +0.280 A 
ATOM     24  N   LIG    1        0.899   3.404  -1.429  0.00  0.00    -0.530 NA
ATOM     25  C   LIG    1       -0.415   3.564  -1.364  0.00  0.00    +0.480 A 
ATOM     26  N   LIG    1       -0.989   2.410  -1.107  0.00  0.00    -0.350 NA
ATOM     27  N   LIG    1        0.031   1.458  -1.012  0.00  0.00    -0.310 N 
ENDBRANCH   6  19
TORSDOF 2
