REMARK  Name = ZINCrH000004rREz.0
REMARK                            x       y       z     vdW  Elec       q    Type
REMARK                         _______ _______ _______ _____ _____    ______ ____
ROOT
ATOM      1  C   LIG    1       -7.380   3.623  -0.342  0.00  0.00    -0.030 A 
ATOM      2  C   LIG    1       -8.075   3.951   0.806  0.00  0.00    -0.010 A 
ATOM      3  C   LIG    1       -9.272   4.638   0.717  0.00  0.00    +0.120 A 
ATOM      4  C   LIG    1       -9.778   4.986  -0.521  0.00  0.00    -0.680 A 
ATOM      5  C   LIG    1       -9.085   4.652  -1.670  0.00  0.00    +0.120 A 
ATOM      6  C   LIG    1       -7.886   3.971  -1.580  0.00  0.00    -0.010 A 
ENDROOT
BRANCH   4   7
ATOM      7  S   LIG    1      -11.307   5.855  -0.635  0.00  0.00    +2.690 S 
ATOM      8  O   LIG    1      -11.290   6.535  -1.883  0.00  0.00    -0.950 OA
ATOM      9  O   LIG    1      -11.485   6.519   0.609  0.00  0.00    -0.950 OA
BRANCH   7  10
ATOM     10  N   LIG    1      -12.509   4.721  -0.736  0.00  0.00    -1.000 NA
ATOM     11  C   LIG    1      -12.959   4.221  -2.043  0.00  0.00    +0.290 C 
ATOM     12  C   LIG    1      -12.879   2.687  -2.033  0.00  0.00    +0.010 C 
ATOM     13  C   LIG    1      -13.680   2.148  -0.845  0.00  0.00    +0.020 C 
ATOM     14  C   LIG    1      -13.074   2.671   0.460  0.00  0.00    +0.010 C 
ATOM     15  C   LIG    1      -13.152   4.200   0.478  0.00  0.00    +0.290 C 
ENDBRANCH   7  10
ENDBRANCH   4   7
BRANCH   1  16
ATOM     16  C   LIG    1       -6.072   2.880  -0.244  0.00  0.00    +0.110 C 
BRANCH  16  17
ATOM     17  C   LIG    1       -4.921   3.883  -0.148  0.00  0.00    +0.060 C 
BRANCH  17  20
ATOM     18  N   LIG    1       -2.456   3.823   0.044  0.00  0.00    -0.680 N 
ATOM     19  H   LIG    1       -2.468   4.790   0.127  0.00  0.00    +0.410 HD
ATOM     20  C   LIG    1       -3.614   3.140  -0.051  0.00  0.00    +0.510 C 
ATOM     21  O   LIG    1       -3.604   1.927  -0.057  0.00  0.00    -0.520 OA
BRANCH  18  27
ATOM     22  C   LIG    1        0.255   0.054  -1.574  0.00  0.00    +0.090 C 
ATOM     23  C   LIG    1        0.106   1.309  -0.752  0.00  0.00    -0.070 A 
ATOM     24  C   LIG    1        1.177   1.784  -0.018  0.00  0.00    -0.020 A 
ATOM     25  C   LIG    1        1.044   2.936   0.737  0.00  0.00    +0.030 A 
ATOM     26  C   LIG    1       -0.160   3.611   0.764  0.00  0.00    -0.030 A 
ATOM     27  C   LIG    1       -1.236   3.139   0.024  0.00  0.00    +0.150 A 
ATOM     28  C   LIG    1       -1.100   1.983  -0.734  0.00  0.00    +0.010 A 
ENDBRANCH  18  27
ENDBRANCH  17  20
ENDBRANCH  16  17
ENDBRANCH   1  16
TORSDOF 6
