REMARK  Name = ZINCkj000005kLZ4.1
REMARK                            x       y       z     vdW  Elec       q    Type
REMARK                         _______ _______ _______ _____ _____    ______ ____
ROOT
ATOM      1  C   LIG    1       -1.683   2.612   4.995  0.00  0.00    +0.620 C 
ATOM      2  N   LIG    1       -0.981   2.214   3.916  0.00  0.00    -0.630 N 
ATOM      3  C   LIG    1       -0.683   3.149   2.821  0.00  0.00    +0.300 C 
ATOM      4  C   LIG    1        0.819   3.080   2.521  0.00  0.00    +0.270 C 
ATOM      5  N   LIG    1        1.199   1.688   2.248  0.00  0.00    -0.380 N 
ATOM      6  C   LIG    1        1.000   0.872   3.452  0.00  0.00    +0.260 C 
ATOM      7  H   LIG    1        0.627   1.325   1.499  0.00  0.00    +0.420 HD
ATOM      8  C   LIG    1       -0.492   0.831   3.800  0.00  0.00    +0.230 C 
ATOM      9  C   LIG    1       -0.689   0.103   5.131  0.00  0.00    +0.100 C 
ATOM     10  O   LIG    1       -1.995   1.804   5.850  0.00  0.00    -0.480 OA
ENDROOT
BRANCH   1  13
ATOM     11  C   LIG    1       -1.383   4.234   7.551  0.00  0.00    +0.160 C 
ATOM     12  C   LIG    1       -1.951   4.771   6.262  0.00  0.00    +0.160 A 
ATOM     13  C   LIG    1       -2.071   4.019   5.139  0.00  0.00    -0.330 A 
ATOM     14  S   LIG    1       -2.769   5.038   3.883  0.00  0.00    +0.160 S 
ATOM     15  C   LIG    1       -2.840   6.352   4.975  0.00  0.00    +0.270 A 
ATOM     16  N   LIG    1       -2.372   6.004   6.130  0.00  0.00    -0.470 NA
ENDBRANCH   1  13
BRANCH   5  17
ATOM     17  C   LIG    1        2.612   1.637   1.851  0.00  0.00    +0.240 C 
BRANCH  17  18
ATOM     18  C   LIG    1        2.775   2.257   0.462  0.00  0.00    +0.110 C 
ATOM     19  C   LIG    1        1.629   1.796  -0.440  0.00  0.00    +0.080 C 
ATOM     20  C   LIG    1        4.109   1.814  -0.141  0.00  0.00    +0.060 C 
BRANCH  18  21
ATOM     21  O   LIG    1        2.752   3.682   0.571  0.00  0.00    -0.550 OA
ATOM     22  H   LIG    1        3.452   4.045   1.130  0.00  0.00    +0.390 HD
ENDBRANCH  18  21
ENDBRANCH  17  18
ENDBRANCH   5  17
TORSDOF 4
