REMARK  Name = ZINCkj000005kLZ4.2
REMARK                            x       y       z     vdW  Elec       q    Type
REMARK                         _______ _______ _______ _____ _____    ______ ____
ROOT
ATOM      1  C   LIG    1       -0.250   1.587  -6.156  0.00  0.00    +0.620 C 
ATOM      2  N   LIG    1        0.391   0.977  -5.140  0.00  0.00    -0.620 N 
ATOM      3  C   LIG    1        1.049   1.758  -4.082  0.00  0.00    +0.310 C 
ATOM      4  C   LIG    1        2.481   1.238  -3.913  0.00  0.00    +0.260 C 
ATOM      5  N   LIG    1        2.449  -0.209  -3.667  0.00  0.00    -0.380 N 
ATOM      6  C   LIG    1        1.913  -0.903  -4.844  0.00  0.00    +0.270 C 
ATOM      7  H   LIG    1        1.861  -0.400  -2.869  0.00  0.00    +0.420 HD
ATOM      8  C   LIG    1        0.453  -0.491  -5.058  0.00  0.00    +0.270 C 
ATOM      9  C   LIG    1       -0.402  -0.976  -3.886  0.00  0.00    +0.050 C 
ATOM     10  O   LIG    1       -0.820   0.924  -7.002  0.00  0.00    -0.490 OA
ENDROOT
BRANCH   1  13
ATOM     11  C   LIG    1        0.497   3.178  -8.638  0.00  0.00    +0.160 C 
ATOM     12  C   LIG    1        0.066   3.792  -7.331  0.00  0.00    +0.160 A 
ATOM     13  C   LIG    1       -0.261   3.052  -6.242  0.00  0.00    -0.330 A 
ATOM     14  S   LIG    1       -0.693   4.165  -4.947  0.00  0.00    +0.170 S 
ATOM     15  C   LIG    1       -0.404   5.495  -5.981  0.00  0.00    +0.270 A 
ATOM     16  N   LIG    1       -0.029   5.085  -7.149  0.00  0.00    -0.470 NA
ENDBRANCH   1  13
BRANCH   5  17
ATOM     17  C   LIG    1        3.811  -0.688  -3.396  0.00  0.00    +0.240 C 
BRANCH  17  18
ATOM     18  C   LIG    1        4.297  -0.115  -2.063  0.00  0.00    +0.110 C 
ATOM     19  C   LIG    1        3.254  -0.391  -0.978  0.00  0.00    +0.080 C 
ATOM     20  C   LIG    1        5.622  -0.776  -1.677  0.00  0.00    +0.060 C 
BRANCH  18  21
ATOM     21  O   LIG    1        4.488   1.296  -2.192  0.00  0.00    -0.550 OA
ATOM     22  H   LIG    1        5.138   1.544  -2.864  0.00  0.00    +0.390 HD
ENDBRANCH  18  21
ENDBRANCH  17  18
ENDBRANCH   5  17
TORSDOF 4
