REMARK  Name = ZINCnE00000hdcyx.1
REMARK                            x       y       z     vdW  Elec       q    Type
REMARK                         _______ _______ _______ _____ _____    ______ ____
ROOT
ATOM      1  O   LIG    1        4.175   5.517  -0.008  0.00  0.00    -0.590 OA
ATOM      2  C   LIG    1        3.547   6.554   0.003  0.00  0.00    +0.480 C 
ATOM      3  N   LIG    1        2.200   6.527   0.016  0.00  0.00    -0.650 NA
ENDROOT
BRANCH   2   4
ATOM      4  C   LIG    1        4.274   7.874   0.004  0.00  0.00    +0.060 C 
ATOM      5  C   LIG    1        5.784   7.625  -0.018  0.00  0.00    +0.020 C 
ATOM      6  C   LIG    1        6.496   8.951   0.279  0.00  0.00    +0.220 C 
ATOM      7  O   LIG    1        6.167   9.350   1.611  0.00  0.00    -0.320 OA
ATOM      8  C   LIG    1        4.857   9.343   1.970  0.00  0.00    +0.130 A 
ATOM      9  C   LIG    1        4.476  10.052   3.104  0.00  0.00    -0.050 A 
ATOM     10  C   LIG    1        3.156  10.062   3.507  0.00  0.00    +0.030 A 
ATOM     11  C   LIG    1        2.208   9.366   2.780  0.00  0.00    -0.040 A 
ATOM     12  C   LIG    1        2.582   8.663   1.651  0.00  0.00    +0.100 A 
ATOM     13  C   LIG    1        3.905   8.650   1.243  0.00  0.00    -0.140 A 
ENDBRANCH   2   4
BRANCH   3  14
ATOM     14  C   LIG    1        1.533   5.315   0.016  0.00  0.00    +0.510 A 
ATOM     15  N   LIG    1        0.234   5.176   0.028  0.00  0.00    -0.560 NA
ATOM     16  C   LIG    1       -0.064   3.848   0.023  0.00  0.00    +0.100 A 
ATOM     17  C   LIG    1       -1.259   3.128   0.031  0.00  0.00    -0.010 A 
ATOM     18  C   LIG    1       -1.227   1.749   0.017  0.00  0.00    +0.100 A 
ATOM     19  C   LIG    1       -0.013   1.076   0.008  0.00  0.00    -0.040 A 
ATOM     20  C   LIG    1        1.176   1.778   0.000  0.00  0.00    +0.080 A 
ATOM     21  F   LIG    1       -2.383   1.050   0.019  0.00  0.00    -0.150 F 
ATOM     22  C   LIG    1        1.161   3.163   0.008  0.00  0.00    -0.040 A 
ATOM     23  O   LIG    1        2.127   4.109   0.004  0.00  0.00    -0.240 OA
ENDBRANCH   3  14
TORSDOF 2
