REMARK  Name = ZINCvU00000006p4.0
REMARK                            x       y       z     vdW  Elec       q    Type
REMARK                         _______ _______ _______ _____ _____    ______ ____
ROOT
ATOM      1  C   LIG    1       -1.955   0.935   1.047  0.00  0.00    +0.160 A 
ATOM      2  C   LIG    1       -2.701   0.165   0.170  0.00  0.00    -0.040 A 
ATOM      3  C   LIG    1       -4.026  -0.127   0.456  0.00  0.00    +0.230 A 
ATOM      4  C   LIG    1       -4.609   0.359   1.636  0.00  0.00    -0.190 A 
ATOM      5  C   LIG    1       -3.849   1.135   2.517  0.00  0.00    +0.020 A 
ATOM      6  C   LIG    1       -2.530   1.415   2.225  0.00  0.00    +0.070 A 
ENDROOT
BRANCH   4   7
ATOM      7  C   LIG    1       -6.016   0.052   1.946  0.00  0.00    +0.580 C 
ATOM      8  N   LIG    1       -6.604   0.607   3.024  0.00  0.00    -0.720 N 
ATOM      9  H   LIG    1       -6.101   1.208   3.596  0.00  0.00    +0.400 HD
ATOM     10  O   LIG    1       -6.646  -0.701   1.229  0.00  0.00    -0.540 OA
BRANCH   8  11
ATOM     11  C   LIG    1       -8.004   0.303   3.333  0.00  0.00    +0.320 C 
BRANCH  11  12
ATOM     12  C   LIG    1       -8.416   1.044   4.578  0.00  0.00    -0.100 A 
ATOM     13  C   LIG    1       -8.261   0.453   5.817  0.00  0.00    +0.030 A 
ATOM     14  C   LIG    1       -8.635   1.135   6.961  0.00  0.00    +0.030 A 
ATOM     15  C   LIG    1       -9.174   2.404   6.864  0.00  0.00    +0.040 A 
ATOM     16  C   LIG    1       -9.334   2.994   5.623  0.00  0.00    -0.040 A 
ATOM     17 CL   LIG    1      -10.011   4.588   5.500  0.00  0.00    -0.060 Cl
ATOM     18  C   LIG    1       -8.956   2.313   4.480  0.00  0.00    +0.050 A 
ENDBRANCH  11  12
ENDBRANCH   8  11
ENDBRANCH   4   7
BRANCH   3  19
ATOM     19  N   LIG    1       -4.777  -0.903  -0.427  0.00  0.00    -0.660 N 
ATOM     20  H   LIG    1       -5.743  -0.816  -0.448  0.00  0.00    +0.430 HD
ATOM     21  C   LIG    1       -4.161  -1.772  -1.252  0.00  0.00    +0.510 C 
ATOM     22  O   LIG    1       -2.966  -1.955  -1.158  0.00  0.00    -0.520 OA
BRANCH  21  23
ATOM     23  C   LIG    1       -4.957  -2.517  -2.293  0.00  0.00    +0.060 C 
BRANCH  23  24
ATOM     24  C   LIG    1       -4.025  -3.432  -3.090  0.00  0.00    +0.040 C 
BRANCH  24  25
ATOM     25  C   LIG    1       -4.833  -4.188  -4.146  0.00  0.00    -0.020 C 
ATOM     26  C   LIG    1       -5.802  -5.175  -3.463  0.00  0.00    +0.010 C 
ATOM     27  C   LIG    1       -5.801  -6.413  -4.395  0.00  0.00    +0.000 C 
ATOM     28  C   LIG    1       -4.322  -6.502  -4.846  0.00  0.00    -0.010 C 
ATOM     29  C   LIG    1       -3.893  -5.031  -5.025  0.00  0.00    +0.010 C 
ENDBRANCH  24  25
ENDBRANCH  23  24
ENDBRANCH  21  23
ENDBRANCH   3  19
BRANCH   1  31
ATOM     30  C   LIG    1       -0.130   0.691  -0.456  0.00  0.00    +0.240 C 
ATOM     31  O   LIG    1       -0.658   1.219   0.763  0.00  0.00    -0.300 OA
ENDBRANCH   1  31
BRANCH   6  32
ATOM     32  O   LIG    1       -1.789   2.166   3.084  0.00  0.00    -0.300 OA
ATOM     33  C   LIG    1       -2.440   2.625   4.271  0.00  0.00    +0.220 C 
ENDBRANCH   6  32
TORSDOF 9
