REMARK  Name = ZINCvU00000007BS.0
REMARK                            x       y       z     vdW  Elec       q    Type
REMARK                         _______ _______ _______ _____ _____    ______ ____
ROOT
ATOM      1  C   LIG    1        5.107   5.852  -1.426  0.00  0.00    +0.290 A 
ATOM      2  N   LIG    1        4.561   7.030  -1.505  0.00  0.00    -0.480 NA
ATOM      3  C   LIG    1        5.334   7.841  -2.273  0.00  0.00    +0.050 A 
ATOM      4  C   LIG    1        5.226   9.173  -2.678  0.00  0.00    +0.070 A 
ATOM      5  C   LIG    1        6.192   9.723  -3.473  0.00  0.00    +0.000 A 
ATOM      6  C   LIG    1        7.283   8.972  -3.884  0.00  0.00    +0.030 A 
ATOM      7  C   LIG    1        7.410   7.654  -3.496  0.00  0.00    +0.010 A 
ATOM      8  C   LIG    1        6.439   7.079  -2.689  0.00  0.00    +0.060 A 
ATOM      9  N   LIG    1        6.269   5.827  -2.132  0.00  0.00    -0.480 N 
ENDROOT
BRANCH   1  12
ATOM     10  N   LIG    1        2.366   3.906  -0.007  0.00  0.00    -0.570 N 
ATOM     11  C   LIG    1        3.139   4.305  -1.190  0.00  0.00    +0.300 C 
ATOM     12  C   LIG    1        4.538   4.686  -0.658  0.00  0.00    +0.090 C 
ATOM     13  C   LIG    1        4.223   5.086   0.802  0.00  0.00    +0.090 C 
ATOM     14  C   LIG    1        2.946   4.342   1.125  0.00  0.00    +0.530 C 
ATOM     15  O   LIG    1        2.511   4.161   2.242  0.00  0.00    -0.510 OA
BRANCH  10  21
ATOM     16  C   LIG    1       -0.048   3.828  -0.015  0.00  0.00    -0.070 A 
ATOM     17  C   LIG    1       -1.221   3.100  -0.059  0.00  0.00    +0.020 A 
ATOM     18  C   LIG    1       -1.178   1.721  -0.146  0.00  0.00    +0.020 A 
ATOM     19  C   LIG    1        0.039   1.065  -0.178  0.00  0.00    +0.010 A 
ATOM     20  C   LIG    1        1.216   1.786  -0.134  0.00  0.00    +0.010 A 
ATOM     21  C   LIG    1        1.176   3.172  -0.052  0.00  0.00    +0.140 A 
BRANCH  16  23
ATOM     22  C   LIG    1       -0.034   5.928  -1.333  0.00  0.00    +0.030 C 
ATOM     23  C   LIG    1       -0.096   5.331   0.074  0.00  0.00    +0.060 C 
ENDBRANCH  16  23
ENDBRANCH  10  21
ENDBRANCH   1  12
BRANCH   9  24
ATOM     24  C   LIG    1        7.172   4.682  -2.278  0.00  0.00    +0.370 C 
BRANCH  24  25
ATOM     25  C   LIG    1        6.769   3.876  -3.486  0.00  0.00    -0.120 A 
ATOM     26  C   LIG    1        5.862   2.841  -3.355  0.00  0.00    +0.040 A 
ATOM     27  C   LIG    1        5.488   2.105  -4.463  0.00  0.00    +0.030 A 
ATOM     28  C   LIG    1        6.030   2.396  -5.702  0.00  0.00    -0.020 A 
ATOM     29  C   LIG    1        6.943   3.427  -5.832  0.00  0.00    +0.030 A 
ATOM     30 CL   LIG    1        5.566   1.467  -7.093  0.00  0.00    -0.060 Cl
ATOM     31  C   LIG    1        7.312   4.167  -4.724  0.00  0.00    +0.050 A 
ENDBRANCH  24  25
ENDBRANCH   9  24
TORSDOF 5
