REMARK  Name = ZINCqH0000001hfH.0
REMARK                            x       y       z     vdW  Elec       q    Type
REMARK                         _______ _______ _______ _____ _____    ______ ____
ROOT
ATOM      1  C   LIG    1       -0.749   1.600  -1.202  0.00  0.00    -0.080 A 
ATOM      2  C   LIG    1       -1.629   0.766  -1.865  0.00  0.00    +0.050 A 
ATOM      3  C   LIG    1       -2.300   1.216  -2.985  0.00  0.00    -0.010 A 
ATOM      4  C   LIG    1       -2.081   2.506  -3.452  0.00  0.00    +0.160 A 
ATOM      5  C   LIG    1       -1.192   3.340  -2.787  0.00  0.00    +0.020 A 
ATOM      6  C   LIG    1       -0.529   2.885  -1.664  0.00  0.00    +0.040 A 
ENDROOT
BRANCH   4   7
ATOM      7  N   LIG    1       -2.755   2.964  -4.590  0.00  0.00    -0.650 N 
ATOM      8  H   LIG    1       -3.656   2.656  -4.777  0.00  0.00    +0.420 HD
ATOM      9  C   LIG    1       -2.152   3.832  -5.426  0.00  0.00    +0.650 C 
ATOM     10  O   LIG    1       -0.991   4.143  -5.246  0.00  0.00    -0.550 OA
BRANCH   9  11
ATOM     11  O   LIG    1       -2.836   4.355  -6.461  0.00  0.00    -0.360 OA
BRANCH  11  12
ATOM     12  C   LIG    1       -2.123   5.283  -7.321  0.00  0.00    +0.140 C 
ATOM     13  C   LIG    1       -1.647   6.480  -6.495  0.00  0.00    +0.030 C 
ATOM     14  C   LIG    1       -3.055   5.768  -8.432  0.00  0.00    +0.080 C 
ATOM     15  C   LIG    1       -0.914   4.579  -7.941  0.00  0.00    +0.030 C 
ENDBRANCH  11  12
ENDBRANCH   9  11
ENDBRANCH   4   7
BRANCH   1  16
ATOM     16  C   LIG    1       -0.022   1.107   0.022  0.00  0.00    +0.100 C 
BRANCH  16  19
ATOM     17  N   LIG    1       -0.384   1.067   2.469  0.00  0.00    -0.730 N 
ATOM     18  H   LIG    1        0.469   0.613   2.556  0.00  0.00    +0.400 HD
ATOM     19  C   LIG    1       -0.839   1.418   1.250  0.00  0.00    +0.510 C 
ATOM     20  O   LIG    1       -1.906   1.985   1.141  0.00  0.00    -0.530 OA
BRANCH  17  21
ATOM     21  C   LIG    1       -1.178   1.369   3.663  0.00  0.00    +0.260 C 
BRANCH  21  22
ATOM     22  C   LIG    1       -0.440   0.868   4.906  0.00  0.00    +0.030 C 
BRANCH  22  23
ATOM     23  C   LIG    1       -1.269   1.184   6.152  0.00  0.00    +0.170 C 
BRANCH  23  24
ATOM     24  O   LIG    1       -0.581   0.716   7.314  0.00  0.00    -0.390 OA
BRANCH  24  25
ATOM     25  C   LIG    1       -1.273   0.963   8.539  0.00  0.00    +0.170 C 
BRANCH  25  27
ATOM     26  C   LIG    1        0.859   1.210   9.817  0.00  0.00    +0.010 C 
ATOM     27  C   LIG    1       -0.448   0.423   9.709  0.00  0.00    -0.020 C 
ATOM     28  C   LIG    1       -1.244   0.574  11.007  0.00  0.00    +0.030 C 
ENDBRANCH  25  27
ENDBRANCH  24  25
ENDBRANCH  23  24
ENDBRANCH  22  23
ENDBRANCH  21  22
ENDBRANCH  17  21
ENDBRANCH  16  19
ENDBRANCH   1  16
TORSDOF 11
