REMARK  Name = ZINCnE000001L0rv.1
REMARK                            x       y       z     vdW  Elec       q    Type
REMARK                         _______ _______ _______ _____ _____    ______ ____
ROOT
ATOM      1  C   LIG    1        0.036  -2.824   0.002  0.00  0.00    +0.110 C 
ENDROOT
BRANCH   1   7
ATOM      2  C   LIG    1        0.625  -0.617   1.040  0.00  0.00    +0.180 A 
ATOM      3  C   LIG    1        1.206   0.145   2.047  0.00  0.00    -0.100 A 
ATOM      4  C   LIG    1        1.838  -0.475   3.101  0.00  0.00    +0.090 A 
ATOM      5  C   LIG    1        1.892  -1.873   3.154  0.00  0.00    -0.220 A 
ATOM      6  C   LIG    1        1.303  -2.631   2.134  0.00  0.00    +0.130 A 
ATOM      7  C   LIG    1        0.674  -2.006   1.095  0.00  0.00    -0.090 A 
BRANCH   5   8
ATOM      8  C   LIG    1        2.565  -2.543   4.275  0.00  0.00    +0.400 C 
ATOM      9  O   LIG    1        2.611  -3.754   4.318  0.00  0.00    -0.470 OA
ATOM     10  C   LIG    1        3.199  -1.725   5.370  0.00  0.00    +0.060 C 
ENDBRANCH   5   8
BRANCH   2  12
ATOM     11  C   LIG    1       -0.017   1.425   0.010  0.00  0.00    +0.240 C 
ATOM     12  O   LIG    1        0.002  -0.004   0.002  0.00  0.00    -0.300 OA
ENDBRANCH   2  12
ENDBRANCH   1   7
BRANCH   1  13
ATOM     13  C   LIG    1        1.006  -2.979  -1.141  0.00  0.00    +0.460 C 
ATOM     14  N   LIG    1        0.650  -3.678  -2.237  0.00  0.00    -0.670 NA
ATOM     15  O   LIG    1        2.107  -2.474  -1.075  0.00  0.00    -0.600 OA
BRANCH  14  16
ATOM     16  C   LIG    1        1.545  -3.820  -3.291  0.00  0.00    +0.350 A 
ATOM     17  N   LIG    1        1.304  -4.470  -4.387  0.00  0.00    -0.560 NA
ATOM     18  C   LIG    1        2.269  -4.504  -5.286  0.00  0.00    +0.130 A 
ATOM     19  C   LIG    1        3.379  -3.852  -4.933  0.00  0.00    -0.240 A 
ATOM     20  S   LIG    1        3.120  -3.158  -3.335  0.00  0.00    +0.020 S 
BRANCH  18  21
ATOM     21  C   LIG    1        2.130  -5.221  -6.604  0.00  0.00    +0.040 C 
ATOM     22  C   LIG    1        3.138  -4.880  -7.704  0.00  0.00    +0.000 C 
ATOM     23  C   LIG    1        1.691  -4.395  -7.815  0.00  0.00    +0.010 C 
ENDBRANCH  18  21
ENDBRANCH  14  16
ENDBRANCH   1  13
TORSDOF 6
