REMARK  Name = ZINCpk00000e9BMP.0
REMARK                            x       y       z     vdW  Elec       q    Type
REMARK                         _______ _______ _______ _____ _____    ______ ____
ROOT
ATOM      1  N   LIG    1        1.143   1.898   0.001  0.00  0.00    -0.510 N 
ATOM      2  H   LIG    1        1.130   2.868   0.007  0.00  0.00    +0.440 HD
ATOM      3  C   LIG    1       -0.014   1.209   0.009  0.00  0.00    +0.500 C 
ATOM      4  O   LIG    1        0.002  -0.004   0.002  0.00  0.00    -0.510 OA
ENDROOT
BRANCH   1   6
ATOM      5  C   LIG    1        3.524   1.904  -0.021  0.00  0.00    +0.570 C 
ATOM      6  N   LIG    1        2.366   1.214  -0.014  0.00  0.00    -0.520 N 
ATOM      7  H   LIG    1        2.379   0.244  -0.019  0.00  0.00    +0.430 HD
ATOM      8  O   LIG    1        3.508   3.119  -0.015  0.00  0.00    -0.530 OA
BRANCH   5  12
ATOM      9  C   LIG    1        7.231  -0.169  -0.068  0.00  0.00    -0.050 A 
ATOM     10  C   LIG    1        7.216   1.214  -0.060  0.00  0.00    +0.010 A 
ATOM     11  C   LIG    1        6.015   1.894  -0.045  0.00  0.00    +0.090 A 
ATOM     12  C   LIG    1        4.814   1.182  -0.038  0.00  0.00    -0.140 A 
ATOM     13  C   LIG    1        4.837  -0.213  -0.040  0.00  0.00    +0.050 A 
ATOM     14  C   LIG    1        6.044  -0.880  -0.060  0.00  0.00    +0.010 A 
BRANCH   9  16
ATOM     15  C   LIG    1        9.005  -1.162   1.352  0.00  0.00    +0.030 C 
ATOM     16  C   LIG    1        8.546  -0.905  -0.085  0.00  0.00    +0.070 C 
ENDBRANCH   9  16
ENDBRANCH   5  12
ENDBRANCH   1   6
BRANCH   3  17
ATOM     17  C   LIG    1       -1.330   1.944   0.019  0.00  0.00    +0.420 C 
BRANCH  17  18
ATOM     18  N   LIG    1       -2.430   0.977   0.019  0.00  0.00    -0.340 N 
ATOM     19  N   LIG    1       -3.044   0.427   1.152  0.00  0.00    -0.260 NA
ATOM     20  C   LIG    1       -3.982  -0.393   0.751  0.00  0.00    +0.140 A 
ATOM     21  C   LIG    1       -3.994  -0.392  -0.648  0.00  0.00    -0.180 A 
ATOM     22  C   LIG    1       -4.890  -1.200   1.642  0.00  0.00    +0.170 C 
ATOM     23  C   LIG    1       -3.035   0.463  -1.072  0.00  0.00    +0.180 A 
ATOM     24  C   LIG    1       -2.700   0.781  -2.507  0.00  0.00    +0.180 C 
BRANCH  21  25
ATOM     25  N   LIG    1       -4.902  -1.181  -1.511  0.00  0.00    +0.050 N 
ATOM     26  O   LIG    1       -4.579  -2.298  -1.873  0.00  0.00    -0.130 OA
ATOM     27  O   LIG    1       -5.971  -0.713  -1.859  0.00  0.00    -0.140 OA
ENDBRANCH  21  25
ENDBRANCH  17  18
ENDBRANCH   3  17
TORSDOF 6
