REMARK  Name = ZINCqH0000001MKN.0
REMARK                            x       y       z     vdW  Elec       q    Type
REMARK                         _______ _______ _______ _____ _____    ______ ____
ROOT
ATOM      1  N   LIG    1       -2.135   1.196   0.051  0.00  0.00    -0.720 N 
ATOM      2  H   LIG    1       -3.013   1.603  -0.025  0.00  0.00    +0.430 HD
ENDROOT
BRANCH   1   3
ATOM      3  C   LIG    1       -0.998   1.994   0.052  0.00  0.00    +0.280 A 
ATOM      4  C   LIG    1        0.263   1.412   0.050  0.00  0.00    -0.080 A 
ATOM      5  C   LIG    1        1.391   2.207   0.045  0.00  0.00    +0.090 A 
ATOM      6  C   LIG    1        1.276   3.588   0.049  0.00  0.00    -0.060 A 
ATOM      7  C   LIG    1        0.034   4.184   0.058  0.00  0.00    +0.090 A 
ATOM      8  C   LIG    1       -1.118   3.393   0.062  0.00  0.00    -0.230 A 
BRANCH   8   9
ATOM      9  C   LIG    1       -2.451   4.023   0.072  0.00  0.00    +0.570 C 
ATOM     10  N   LIG    1       -2.562   5.362   0.187  0.00  0.00    -0.700 N 
ATOM     11  H   LIG    1       -1.766   5.910   0.264  0.00  0.00    +0.400 HD
ATOM     12  O   LIG    1       -3.449   3.336  -0.024  0.00  0.00    -0.540 OA
BRANCH  10  13
ATOM     13  C   LIG    1       -3.886   5.988   0.197  0.00  0.00    +0.220 C 
ATOM     14  C   LIG    1       -4.074   7.255  -0.640  0.00  0.00    +0.010 C 
ATOM     15  C   LIG    1       -4.020   7.347   0.887  0.00  0.00    +0.020 C 
ENDBRANCH  10  13
ENDBRANCH   8   9
ENDBRANCH   1   3
BRANCH   1  16
ATOM     16  C   LIG    1       -2.009  -0.259   0.165  0.00  0.00    +0.300 C 
BRANCH  16  19
ATOM     17  N   LIG    1       -3.510  -2.224   0.231  0.00  0.00    -0.670 N 
ATOM     18  H   LIG    1       -2.728  -2.779   0.378  0.00  0.00    +0.410 HD
ATOM     19  C   LIG    1       -3.379  -0.885   0.139  0.00  0.00    +0.510 C 
ATOM     20  O   LIG    1       -4.364  -0.185   0.035  0.00  0.00    -0.500 OA
BRANCH  17  25
ATOM     21  C   LIG    1       -6.160  -4.628  -0.616  0.00  0.00    -0.060 A 
ATOM     22  C   LIG    1       -7.273  -3.977  -0.118  0.00  0.00    -0.010 A 
ATOM     23  C   LIG    1       -7.140  -2.745   0.496  0.00  0.00    +0.030 A 
ATOM     24  C   LIG    1       -5.893  -2.164   0.619  0.00  0.00    +0.020 A 
ATOM     25  C   LIG    1       -4.774  -2.813   0.114  0.00  0.00    +0.140 A 
ATOM     26  C   LIG    1       -4.911  -4.049  -0.502  0.00  0.00    -0.020 A 
BRANCH  21  28
ATOM     27  C   LIG    1       -6.909  -6.970  -0.294  0.00  0.00    +0.040 C 
ATOM     28  C   LIG    1       -6.309  -5.970  -1.285  0.00  0.00    +0.020 C 
ATOM     29  C   LIG    1       -7.234  -5.836  -2.497  0.00  0.00    +0.030 C 
ENDBRANCH  21  28
ENDBRANCH  17  25
ENDBRANCH  16  19
ENDBRANCH   1  16
TORSDOF 7
