REMARK  Name = ZINCpk00000xI9bY.0
REMARK                            x       y       z     vdW  Elec       q    Type
REMARK                         _______ _______ _______ _____ _____    ______ ____
ROOT
ATOM      1  S   LIG    1       -1.087   1.816  -6.234  0.00  0.00    +2.710 S 
ATOM      2  O   LIG    1       -2.190   2.616  -5.831  0.00  0.00    -0.960 OA
ATOM      3  O   LIG    1       -1.221   0.667  -7.060  0.00  0.00    -0.940 OA
ENDROOT
BRANCH   1   8
ATOM      4  C   LIG    1       -0.194   1.207  -2.360  0.00  0.00    +0.080 A 
ATOM      5  C   LIG    1        0.951   0.428  -2.430  0.00  0.00    +0.030 A 
ATOM      6  C   LIG    1        1.466   0.066  -3.660  0.00  0.00    -0.050 A 
ATOM      7  C   LIG    1        0.845   0.491  -4.824  0.00  0.00    +0.190 A 
ATOM      8  C   LIG    1       -0.297   1.276  -4.754  0.00  0.00    -0.670 A 
ATOM      9  C   LIG    1       -0.815   1.633  -3.525  0.00  0.00    +0.140 A 
BRANCH   4  10
ATOM     10  O   LIG    1       -0.704   1.559  -1.150  0.00  0.00    -0.310 OA
BRANCH  10  12
ATOM     11  C   LIG    1       -0.729   1.579   1.267  0.00  0.00    +0.070 C 
ATOM     12  C   LIG    1       -0.013   1.086   0.008  0.00  0.00    +0.170 C 
ENDBRANCH  10  12
ENDBRANCH   4  10
BRANCH   7  13
ATOM     13  O   LIG    1        1.355   0.139  -6.035  0.00  0.00    -0.310 OA
BRANCH  13  14
ATOM     14  C   LIG    1        2.533  -0.670  -6.032  0.00  0.00    +0.190 C 
ATOM     15  C   LIG    1        2.954  -0.962  -7.473  0.00  0.00    +0.060 C 
ENDBRANCH  13  14
ENDBRANCH   7  13
ENDBRANCH   1   8
BRANCH   1  16
ATOM     16  N   LIG    1       -0.033   2.830  -7.010  0.00  0.00    -1.110 NA
ATOM     17  H   LIG    1       -0.256   3.767  -7.124  0.00  0.00    +0.420 HD
BRANCH  16  18
ATOM     18  C   LIG    1        1.237   2.312  -7.526  0.00  0.00    +0.280 C 
BRANCH  18  19
ATOM     19  C   LIG    1        1.841   3.322  -8.502  0.00  0.00    +0.020 C 
BRANCH  19  20
ATOM     20  C   LIG    1        3.168   2.781  -9.040  0.00  0.00    +0.180 C 
BRANCH  20  21
ATOM     21  N   LIG    1        3.748   3.752  -9.978  0.00  0.00    -0.540 NA
ATOM     22  C   LIG    1        2.916   3.882 -11.183  0.00  0.00    +0.140 C 
ATOM     23  C   LIG    1        3.524   4.944 -12.103  0.00  0.00    +0.220 C 
ATOM     24  O   LIG    1        4.873   4.584 -12.413  0.00  0.00    -0.390 OA
ATOM     25  C   LIG    1        5.712   4.448 -11.262  0.00  0.00    +0.220 C 
ATOM     26  C   LIG    1        5.126   3.382 -10.333  0.00  0.00    +0.150 C 
ENDBRANCH  20  21
ENDBRANCH  19  20
ENDBRANCH  18  19
ENDBRANCH  16  18
ENDBRANCH   1  16
TORSDOF 10
