REMARK  Name = ZINCqH00000007zg.0
REMARK                            x       y       z     vdW  Elec       q    Type
REMARK                         _______ _______ _______ _____ _____    ______ ____
ROOT
ATOM      1  N   LIG    1       -2.796  -5.997  -2.579  0.00  0.00    -0.690 N 
ATOM      2  H   LIG    1       -2.293  -5.354  -3.103  0.00  0.00    +0.410 HD
ATOM      3  C   LIG    1       -2.618  -6.065  -1.244  0.00  0.00    +0.710 C 
ATOM      4  N   LIG    1       -1.856  -5.147  -0.618  0.00  0.00    -0.620 N 
ATOM      5  C   LIG    1       -1.727  -5.153   0.845  0.00  0.00    +0.300 C 
ATOM      6  C   LIG    1       -2.086  -3.763   1.378  0.00  0.00    +0.020 C 
ATOM      7  C   LIG    1       -1.222  -2.713   0.676  0.00  0.00    +0.230 C 
ATOM      8  C   LIG    1       -1.504  -2.741  -0.828  0.00  0.00    +0.000 C 
ATOM      9  C   LIG    1       -1.138  -4.121  -1.386  0.00  0.00    +0.270 C 
ATOM     10  O   LIG    1       -3.145  -6.955  -0.606  0.00  0.00    -0.570 OA
ENDROOT
BRANCH   1  15
ATOM     11  C   LIG    1       -4.365  -8.162  -5.116  0.00  0.00    +0.030 A 
ATOM     12  C   LIG    1       -5.523  -8.553  -4.442  0.00  0.00    +0.020 A 
ATOM     13  C   LIG    1       -5.763  -8.095  -3.162  0.00  0.00    +0.030 A 
ATOM     14  C   LIG    1       -4.861  -7.249  -2.544  0.00  0.00    +0.030 A 
ATOM     15  C   LIG    1       -3.706  -6.854  -3.208  0.00  0.00    +0.170 A 
ATOM     16  C   LIG    1       -3.458  -7.303  -4.495  0.00  0.00    +0.000 A 
BRANCH  11  18
ATOM     17  C   LIG    1       -3.907  -9.022  -7.533  0.00  0.00    +0.060 C 
ATOM     18  C   LIG    1       -4.113  -8.634  -6.444  0.00  0.00    -0.150 C 
ENDBRANCH  11  18
ENDBRANCH   1  15
BRANCH   7  19
ATOM     19  N   LIG    1       -1.540  -1.385   1.206  0.00  0.00    -0.740 N 
ATOM     20  H   LIG    1       -2.409  -1.216   1.602  0.00  0.00    +0.400 HD
BRANCH  19  21
ATOM     21  C   LIG    1       -0.590  -0.362   1.143  0.00  0.00    +0.250 A 
ATOM     22  C   LIG    1        0.656  -0.604   0.578  0.00  0.00    -0.110 A 
ATOM     23  C   LIG    1        1.595   0.408   0.517  0.00  0.00    +0.090 A 
ATOM     24  C   LIG    1        1.298   1.661   1.016  0.00  0.00    -0.140 A 
ATOM     25  C   LIG    1        0.055   1.908   1.582  0.00  0.00    +0.170 A 
ATOM     26  C   LIG    1       -0.890   0.896   1.646  0.00  0.00    -0.100 A 
BRANCH  25  27
ATOM     27  O   LIG    1       -0.236   3.142   2.073  0.00  0.00    -0.320 OA
ATOM     28  C   LIG    1        0.785   4.136   1.974  0.00  0.00    +0.250 C 
ENDBRANCH  25  27
ENDBRANCH  19  21
ENDBRANCH   7  19
TORSDOF 5
