REMARK  Name = ZINCrD0000044Do3.0
REMARK                            x       y       z     vdW  Elec       q    Type
REMARK                         _______ _______ _______ _____ _____    ______ ____
ROOT
ATOM      1  C   LIG    1        4.975   5.328  -0.014  0.00  0.00    -0.040 C 
ATOM      2  C   LIG    1        5.802   6.612  -0.137  0.00  0.00    +0.310 C 
ATOM      3  N   LIG    1        7.226   6.270  -0.021  0.00  0.00    -0.620 N 
ATOM      4  C   LIG    1        7.676   5.499   1.146  0.00  0.00    +0.290 C 
ATOM      5  C   LIG    1        6.828   4.228   1.254  0.00  0.00    +0.030 C 
ATOM      6  C   LIG    1        8.104   6.656  -0.969  0.00  0.00    +0.530 C 
ATOM      7  O   LIG    1        7.707   7.207  -1.974  0.00  0.00    -0.520 OA
ATOM      8  C   LIG    1        5.346   4.609   1.285  0.00  0.00    +0.290 C 
ATOM      9  F   LIG    1        4.570   3.452   1.415  0.00  0.00    -0.190 F 
ATOM     10  F   LIG    1        5.106   5.456   2.372  0.00  0.00    -0.190 F 
ENDROOT
BRANCH   6  11
ATOM     11  C   LIG    1        9.577   6.402  -0.780  0.00  0.00    +0.020 C 
ATOM     12  C   LIG    1        9.981   5.084  -1.476  0.00  0.00    +0.030 C 
ATOM     13  C   LIG    1       11.388   5.376  -2.055  0.00  0.00    +0.020 C 
ATOM     14  C   LIG    1       11.268   6.847  -2.527  0.00  0.00    +0.050 C 
ATOM     15  C   LIG    1       10.394   7.515  -1.451  0.00  0.00    -0.120 C 
ATOM     16  C   LIG    1       10.915   8.702  -0.647  0.00  0.00    +0.020 C 
ATOM     17  C   LIG    1        9.799   8.901  -1.676  0.00  0.00    +0.050 C 
ENDBRANCH   6  11
BRANCH   1  18
ATOM     18  C   LIG    1        3.486   5.679   0.005  0.00  0.00    +0.290 C 
BRANCH  18  20
ATOM     19  C   LIG    1        1.348   4.512   0.018  0.00  0.00    +0.590 C 
ATOM     20  N   LIG    1        2.694   4.447   0.003  0.00  0.00    -0.730 N 
ATOM     21  H   LIG    1        3.138   3.585  -0.008  0.00  0.00    +0.400 HD
ATOM     22  O   LIG    1        0.791   5.593   0.032  0.00  0.00    -0.540 OA
BRANCH  19  25
ATOM     23  C   LIG    1       -1.783   4.316   0.049  0.00  0.00    +0.190 C 
ATOM     24  C   LIG    1       -0.810   3.166   0.030  0.00  0.00    +0.090 A 
ATOM     25  C   LIG    1        0.550   3.272   0.017  0.00  0.00    -0.250 A 
ATOM     26  C   LIG    1        1.055   1.891   0.001  0.00  0.00    -0.030 A 
ATOM     27  C   LIG    1       -0.031   1.102   0.007  0.00  0.00    +0.180 A 
ATOM     28  O   LIG    1       -1.132   1.869   0.019  0.00  0.00    -0.170 OA
ENDBRANCH  19  25
ENDBRANCH  18  20
ENDBRANCH   1  18
TORSDOF 4
