REMARK  Name = ZINCkj000005k1hs.0
REMARK                            x       y       z     vdW  Elec       q    Type
REMARK                         _______ _______ _______ _____ _____    ______ ____
ROOT
ATOM      1  N   LIG    1        3.935   4.664   1.283  0.00  0.00    -0.720 N 
ATOM      2  H   LIG    1        3.696   5.109   2.111  0.00  0.00    +0.410 HD
ATOM      3  C   LIG    1        2.985   4.050   0.550  0.00  0.00    +0.510 C 
ATOM      4  O   LIG    1        3.283   3.494  -0.485  0.00  0.00    -0.540 OA
ENDROOT
BRANCH   1   5
ATOM      5  C   LIG    1        5.327   4.660   0.828  0.00  0.00    +0.250 C 
BRANCH   5   7
ATOM      6  C   LIG    1        6.102   4.742   3.202  0.00  0.00    +0.070 C 
ATOM      7  C   LIG    1        6.194   5.420   1.834  0.00  0.00    +0.170 C 
BRANCH   7   8
ATOM      8  C   LIG    1        7.627   5.416   1.366  0.00  0.00    -0.130 A 
ATOM      9  C   LIG    1        8.107   4.356   0.621  0.00  0.00    +0.010 A 
ATOM     10  C   LIG    1        9.420   4.354   0.188  0.00  0.00    +0.010 A 
ATOM     11  C   LIG    1       10.255   5.408   0.508  0.00  0.00    +0.020 A 
ATOM     12  C   LIG    1        9.776   6.466   1.259  0.00  0.00    +0.010 A 
ATOM     13  C   LIG    1        8.462   6.470   1.687  0.00  0.00    +0.030 A 
ENDBRANCH   7   8
BRANCH   7  14
ATOM     14  O   LIG    1        5.731   6.768   1.939  0.00  0.00    -0.550 OA
ATOM     15  H   LIG    1        5.761   7.260   1.107  0.00  0.00    +0.380 HD
ENDBRANCH   7  14
ENDBRANCH   5   7
ENDBRANCH   1   5
BRANCH   3  16
ATOM     16  C   LIG    1        1.552   4.054   1.018  0.00  0.00    +0.070 C 
BRANCH  16  17
ATOM     17  C   LIG    1        0.685   3.294   0.013  0.00  0.00    +0.060 C 
ATOM     18  C   LIG    1        1.054   1.829   0.002  0.00  0.00    +0.090 C 
ATOM     19  C   LIG    1       -0.013   1.076   0.008  0.00  0.00    -0.100 C 
ATOM     20  C   LIG    1       -1.270   1.913   0.018  0.00  0.00    +0.210 C 
ATOM     21  C   LIG    1       -0.798   3.323   0.450  0.00  0.00    +0.070 C 
BRANCH  20  22
ATOM     22  N   LIG    1       -2.234   1.378   0.989  0.00  0.00    -0.630 N 
ATOM     23  H   LIG    1       -2.490   0.439   0.725  0.00  0.00    +0.440 HD
ATOM     24  H   LIG    1       -3.057   1.961   1.002  0.00  0.00    +0.440 HD
ATOM     25  H   LIG    1       -1.815   1.368   1.907  0.00  0.00    +0.430 HD
ENDBRANCH  20  22
ENDBRANCH  16  17
ENDBRANCH   3  16
TORSDOF 7
