REMARK  Name = ZINCrg000000sOBO.0
REMARK                            x       y       z     vdW  Elec       q    Type
REMARK                         _______ _______ _______ _____ _____    ______ ____
ROOT
ATOM      1  N   LIG    1        4.683  -3.749   0.739  0.00  0.00    -0.670 N 
ATOM      2  H   LIG    1        5.252  -3.019   1.030  0.00  0.00    +0.420 HD
ATOM      3  C   LIG    1        5.187  -4.994   0.626  0.00  0.00    +0.510 C 
ATOM      4  O   LIG    1        4.460  -5.918   0.332  0.00  0.00    -0.500 OA
ENDROOT
BRANCH   1   9
ATOM      5  C   LIG    1        1.041  -4.224   0.422  0.00  0.00    -0.020 A 
ATOM      6  C   LIG    1        0.674  -3.017  -0.172  0.00  0.00    +0.010 A 
ATOM      7  C   LIG    1        1.635  -2.068  -0.459  0.00  0.00    +0.040 A 
ATOM      8  C   LIG    1        2.962  -2.309  -0.158  0.00  0.00    +0.020 A 
ATOM      9  C   LIG    1        3.337  -3.509   0.435  0.00  0.00    +0.150 A 
ATOM     10  C   LIG    1        2.379  -4.466   0.731  0.00  0.00    +0.090 A 
BRANCH   5  16
ATOM     11  C   LIG    1       -1.806  -4.463  -0.846  0.00  0.00    +0.400 C 
ATOM     12  N   LIG    1       -1.220  -5.337   0.174  0.00  0.00    -0.380 N 
ATOM     13  N   LIG    1       -1.816  -6.454   0.786  0.00  0.00    -0.080 NA
ATOM     14  N   LIG    1       -0.955  -6.928   1.619  0.00  0.00    -0.040 NA
ATOM     15  N   LIG    1        0.122  -6.228   1.597  0.00  0.00    -0.320 NA
ATOM     16  C   LIG    1        0.013  -5.243   0.731  0.00  0.00    +0.290 A 
ENDBRANCH   5  16
ENDBRANCH   1   9
BRANCH   3  17
ATOM     17  C   LIG    1        6.655  -5.236   0.867  0.00  0.00    +0.120 C 
BRANCH  17  18
ATOM     18  C   LIG    1        6.959  -6.700   0.680  0.00  0.00    -0.060 A 
ATOM     19  C   LIG    1        6.881  -7.565   1.757  0.00  0.00    +0.060 A 
ATOM     20  C   LIG    1        7.154  -8.908   1.587  0.00  0.00    +0.020 A 
ATOM     21  C   LIG    1        7.518  -9.388   0.336  0.00  0.00    +0.130 A 
ATOM     22  C   LIG    1        7.601  -8.517  -0.742  0.00  0.00    +0.040 A 
ATOM     23  C   LIG    1        7.321  -7.176  -0.567  0.00  0.00    +0.060 A 
BRANCH  21  24
ATOM     24  N   LIG    1        7.802 -10.751   0.162  0.00  0.00    -0.330 N 
ATOM     25  C   LIG    1        7.774 -11.721   1.101  0.00  0.00    +0.470 A 
ATOM     26  N   LIG    1        8.101 -12.841   0.512  0.00  0.00    -0.330 NA
ATOM     27  N   LIG    1        8.343 -12.644  -0.734  0.00  0.00    -0.030 NA
ATOM     28  N   LIG    1        8.184 -11.398  -1.026  0.00  0.00    -0.080 NA
ENDBRANCH  21  24
ENDBRANCH  17  18
ENDBRANCH   3  17
TORSDOF 5
