REMARK  Name = ZINCqH0000034n6E.0
REMARK                            x       y       z     vdW  Elec       q    Type
REMARK                         _______ _______ _______ _____ _____    ______ ____
ROOT
ATOM      1  C   LIG    1       -0.468   1.226   3.653  0.00  0.00    +0.530 C 
ATOM      2  N   LIG    1        0.099   1.352   2.437  0.00  0.00    -0.710 N 
ATOM      3  H   LIG    1        1.062   1.289   2.341  0.00  0.00    +0.410 HD
ATOM      4  O   LIG    1       -1.672   1.304   3.772  0.00  0.00    -0.520 OA
ENDROOT
BRANCH   2   5
ATOM      5  C   LIG    1       -0.741   1.585   1.259  0.00  0.00    +0.290 C 
ATOM      6  C   LIG    1       -0.013   1.086   0.008  0.00  0.00    +0.010 C 
ATOM      7  C   LIG    1       -0.766   1.600  -1.226  0.00  0.00    +0.260 C 
ATOM      8  O   LIG    1       -0.679   3.025  -1.245  0.00  0.00    -0.310 OA
ATOM      9  C   LIG    1       -0.981   3.695  -0.103  0.00  0.00    +0.140 A 
ATOM     10  C   LIG    1       -1.253   5.057  -0.185  0.00  0.00    -0.020 A 
ATOM     11  C   LIG    1       -1.561   5.774   0.954  0.00  0.00    +0.050 A 
ATOM     12  C   LIG    1       -1.599   5.137   2.181  0.00  0.00    -0.040 A 
ATOM     13  C   LIG    1       -1.330   3.785   2.265  0.00  0.00    +0.060 A 
ATOM     14  C   LIG    1       -1.023   3.060   1.126  0.00  0.00    -0.180 A 
ENDBRANCH   2   5
BRANCH   1  15
ATOM     15  C   LIG    1        0.395   0.986   4.865  0.00  0.00    +0.110 C 
BRANCH  15  16
ATOM     16  S   LIG    1       -0.651   0.862   6.336  0.00  0.00    +0.080 S 
BRANCH  16  25
ATOM     17  N   LIG    1        0.335   0.422   8.900  0.00  0.00    -0.470 N 
ATOM     18  C   LIG    1        1.559   0.236   9.522  0.00  0.00    +0.060 A 
ATOM     19  C   LIG    1        1.946   0.020  10.836  0.00  0.00    +0.010 A 
ATOM     20  C   LIG    1        3.283  -0.131  11.142  0.00  0.00    +0.030 A 
ATOM     21  C   LIG    1        4.244  -0.067  10.144  0.00  0.00    +0.000 A 
ATOM     22  C   LIG    1        3.877   0.148   8.834  0.00  0.00    +0.060 A 
ATOM     23  C   LIG    1        2.528   0.302   8.507  0.00  0.00    +0.060 A 
ATOM     24  N   LIG    1        1.869   0.515   7.338  0.00  0.00    -0.500 NA
ATOM     25  C   LIG    1        0.581   0.591   7.566  0.00  0.00    +0.250 A 
BRANCH  17  27
ATOM     26  C   LIG    1       -1.548  -0.985   9.575  0.00  0.00    +0.040 C 
ATOM     27  C   LIG    1       -0.978   0.435   9.550  0.00  0.00    +0.300 C 
ENDBRANCH  17  27
ENDBRANCH  16  25
ENDBRANCH  15  16
ENDBRANCH   1  15
TORSDOF 5
