REMARK  Name = ZINCqH0000006dSU.0
REMARK                            x       y       z     vdW  Elec       q    Type
REMARK                         _______ _______ _______ _____ _____    ______ ____
ROOT
ATOM      1  C   LIG    1        1.771   1.518   5.502  0.00  0.00    +0.000 A 
ATOM      2  C   LIG    1        1.111   0.989   4.368  0.00  0.00    -0.180 A 
ATOM      3  C   LIG    1        0.861  -0.320   3.907  0.00  0.00    +0.300 A 
ATOM      4  N   LIG    1        0.194  -0.248   2.791  0.00  0.00    -0.230 NA
ATOM      5  N   LIG    1       -0.020   1.094   2.454  0.00  0.00    -0.380 N 
ATOM      6  C   LIG    1        0.543   1.875   3.430  0.00  0.00    +0.320 A 
ATOM      7  N   LIG    1        0.627   3.184   3.610  0.00  0.00    -0.480 NA
ATOM      8  C   LIG    1        1.238   3.708   4.660  0.00  0.00    +0.240 A 
ATOM      9  C   LIG    1        1.827   2.901   5.637  0.00  0.00    +0.020 A 
ENDROOT
BRANCH   8  10
ATOM     10  C   LIG    1        1.298   5.182   4.804  0.00  0.00    -0.070 A 
ATOM     11  C   LIG    1        1.932   5.753   5.906  0.00  0.00    +0.040 A 
ATOM     12  C   LIG    1        1.990   7.126   6.032  0.00  0.00    +0.010 A 
ATOM     13  C   LIG    1        1.410   7.936   5.072  0.00  0.00    -0.070 A 
ATOM     14  C   LIG    1        0.774   7.375   3.979  0.00  0.00    +0.000 A 
ATOM     15  C   LIG    1        1.471   9.434   5.218  0.00  0.00    +0.090 C 
ATOM     16  C   LIG    1        0.715   6.003   3.840  0.00  0.00    +0.060 A 
ENDBRANCH   8  10
BRANCH   5  17
ATOM     17  C   LIG    1       -0.729   1.579   1.267  0.00  0.00    +0.270 C 
ATOM     18  C   LIG    1       -2.164   1.050   1.278  0.00  0.00    +0.050 C 
ATOM     19  C   LIG    1       -0.013   1.086   0.008  0.00  0.00    +0.050 C 
ENDBRANCH   5  17
BRANCH   1  20
ATOM     20  C   LIG    1        2.382   0.628   6.512  0.00  0.00    +0.510 C 
ATOM     21  O   LIG    1        2.321  -0.578   6.375  0.00  0.00    -0.490 OA
BRANCH  20  22
ATOM     22  O   LIG    1        3.005   1.154   7.584  0.00  0.00    -0.340 OA
BRANCH  22  23
ATOM     23  C   LIG    1        3.582   0.220   8.534  0.00  0.00    +0.240 C 
BRANCH  23  24
ATOM     24  C   LIG    1        4.242   0.997   9.675  0.00  0.00    +0.200 C 
BRANCH  24  26
ATOM     25  C   LIG    1        3.757   2.474  11.500  0.00  0.00    +0.200 C 
ATOM     26  O   LIG    1        3.243   1.711  10.406  0.00  0.00    -0.390 OA
ENDBRANCH  24  26
ENDBRANCH  23  24
ENDBRANCH  22  23
ENDBRANCH  20  22
ENDBRANCH   1  20
TORSDOF 7
