REMARK  Name = ZINCtV000002PsL1.0
REMARK                            x       y       z     vdW  Elec       q    Type
REMARK                         _______ _______ _______ _____ _____    ______ ____
ROOT
ATOM      1  C   LIG    1        1.238   1.841  -0.002  0.00  0.00    -0.010 A 
ATOM      2  C   LIG    1        2.136   0.822  -0.016  0.00  0.00    -0.060 A 
ATOM      3  C   LIG    1        1.350  -0.411  -0.017  0.00  0.00    -0.130 A 
ATOM      4  C   LIG    1        1.671  -1.770  -0.027  0.00  0.00    +0.080 A 
ATOM      5  C   LIG    1        0.671  -2.702  -0.024  0.00  0.00    +0.010 A 
ATOM      6  C   LIG    1       -0.659  -2.307  -0.009  0.00  0.00    +0.060 A 
ATOM      7  C   LIG    1       -0.997  -0.970   0.002  0.00  0.00    +0.030 A 
ATOM      8  C   LIG    1        0.002  -0.004  -0.002  0.00  0.00    +0.070 A 
ATOM      9  O   LIG    1       -0.016   1.343   0.007  0.00  0.00    -0.180 OA
ENDROOT
BRANCH   1  11
ATOM     10  O   LIG    1        2.744   3.616   0.088  0.00  0.00    -0.480 OA
ATOM     11  C   LIG    1        1.581   3.270   0.004  0.00  0.00    +0.610 C 
ATOM     12  N   LIG    1        0.606   4.197  -0.082  0.00  0.00    -0.540 N 
ATOM     13  C   LIG    1       -0.830   3.908  -0.081  0.00  0.00    +0.280 C 
ATOM     14  C   LIG    1       -1.517   5.278  -0.198  0.00  0.00    +0.090 C 
ATOM     15  C   LIG    1       -0.378   6.271  -0.259  0.00  0.00    -0.130 A 
ATOM     16  C   LIG    1       -0.381   7.648  -0.367  0.00  0.00    +0.050 A 
ATOM     17  C   LIG    1        0.812   8.345  -0.387  0.00  0.00    -0.010 A 
ATOM     18  C   LIG    1        2.011   7.660  -0.314  0.00  0.00    +0.040 A 
ATOM     19  C   LIG    1        2.019   6.285  -0.212  0.00  0.00    +0.010 A 
ATOM     20  C   LIG    1        0.818   5.574  -0.181  0.00  0.00    +0.140 A 
ENDBRANCH   1  11
BRANCH   2  21
ATOM     21  C   LIG    1        3.639   0.938  -0.029  0.00  0.00    +0.180 C 
BRANCH  21  22
ATOM     22  S   LIG    1        4.226   0.996  -1.745  0.00  0.00    -0.220 S 
BRANCH  22  23
ATOM     23  C   LIG    1        6.025   1.134  -1.556  0.00  0.00    +0.130 C 
BRANCH  23  24
ATOM     24  C   LIG    1        6.669   1.194  -2.917  0.00  0.00    -0.080 A 
ATOM     25  C   LIG    1        7.063   0.028  -3.547  0.00  0.00    +0.020 A 
ATOM     26  C   LIG    1        7.650   0.082  -4.798  0.00  0.00    +0.000 A 
ATOM     27  C   LIG    1        7.853   1.303  -5.413  0.00  0.00    +0.010 A 
ATOM     28  C   LIG    1        7.465   2.469  -4.781  0.00  0.00    +0.000 A 
ATOM     29  C   LIG    1        6.873   2.414  -3.533  0.00  0.00    +0.020 A 
ENDBRANCH  23  24
ENDBRANCH  22  23
ENDBRANCH  21  22
ENDBRANCH   2  21
TORSDOF 5
