REMARK  Name = ZINCqH0000007lC7.0
REMARK                            x       y       z     vdW  Elec       q    Type
REMARK                         _______ _______ _______ _____ _____    ______ ____
ROOT
ATOM      1  C   LIG    1        2.517   5.584   0.011  0.00  0.00    +0.190 C 
ATOM      2  C   LIG    1        2.620   6.113  -1.431  0.00  0.00    +0.020 C 
ATOM      3  C   LIG    1        1.384   7.023  -1.617  0.00  0.00    +0.020 C 
ATOM      4  C   LIG    1        1.005   7.394  -0.162  0.00  0.00    +0.180 C 
ATOM      5  N   LIG    1        1.275   6.141   0.589  0.00  0.00    -0.490 NA
ENDROOT
BRANCH   1  10
ATOM      6  C   LIG    1        1.159   2.057  -0.004  0.00  0.00    +0.090 A 
ATOM      7  C   LIG    1        2.327   1.310  -0.011  0.00  0.00    -0.040 A 
ATOM      8  C   LIG    1        3.553   1.946  -0.021  0.00  0.00    -0.040 A 
ATOM      9  C   LIG    1        3.616   3.331  -0.012  0.00  0.00    +0.090 A 
ATOM     10  C   LIG    1        2.448   4.079   0.001  0.00  0.00    -0.070 A 
ATOM     11  C   LIG    1        1.222   3.443   0.005  0.00  0.00    +0.070 A 
BRANCH   6  13
ATOM     12  C   LIG    1       -0.039   0.003  -0.009  0.00  0.00    +0.230 C 
ATOM     13  O   LIG    1       -0.049   1.432   0.000  0.00  0.00    -0.320 OA
ENDBRANCH   6  13
BRANCH   9  14
ATOM     14  O   LIG    1        4.824   3.957  -0.016  0.00  0.00    -0.320 OA
ATOM     15  C   LIG    1        5.986   3.125  -0.030  0.00  0.00    +0.230 C 
ENDBRANCH   9  14
ENDBRANCH   1  10
BRANCH   5  16
ATOM     16  C   LIG    1        1.438   6.412   2.024  0.00  0.00    +0.210 C 
BRANCH  16  17
ATOM     17  C   LIG    1        0.254   7.199   2.524  0.00  0.00    +0.520 C 
ATOM     18  N   LIG    1        0.186   7.564   3.820  0.00  0.00    -0.680 N 
ATOM     19  H   LIG    1        0.865   7.264   4.444  0.00  0.00    +0.410 HD
ATOM     20  O   LIG    1       -0.638   7.504   1.761  0.00  0.00    -0.500 OA
BRANCH  18  21
ATOM     21  C   LIG    1       -0.864   8.376   4.264  0.00  0.00    +0.150 A 
ATOM     22  C   LIG    1       -0.642   9.316   5.261  0.00  0.00    -0.030 A 
ATOM     23  C   LIG    1       -1.679  10.120   5.694  0.00  0.00    +0.030 A 
ATOM     24  C   LIG    1       -2.939   9.981   5.142  0.00  0.00    -0.020 A 
ATOM     25  C   LIG    1       -3.164   9.042   4.153  0.00  0.00    -0.070 A 
ATOM     26  C   LIG    1       -4.539   8.895   3.554  0.00  0.00    +0.090 C 
ATOM     27  C   LIG    1       -2.131   8.239   3.712  0.00  0.00    +0.020 A 
ENDBRANCH  18  21
ENDBRANCH  16  17
ENDBRANCH   5  16
TORSDOF 6
