REMARK  Name = ZINCkj00000KMPpZ.1
REMARK                            x       y       z     vdW  Elec       q    Type
REMARK                         _______ _______ _______ _____ _____    ______ ____
ROOT
ATOM      1  O   LIG    1       -1.190   7.121   0.050  0.00  0.00    -0.510 OA
ATOM      2  C   LIG    1       -1.206   5.902   0.043  0.00  0.00    +0.530 A 
ATOM      3  C   LIG    1       -2.447   5.230   0.052  0.00  0.00    +0.030 A 
ATOM      4  C   LIG    1       -2.491   3.875   0.045  0.00  0.00    -0.070 A 
ATOM      5  C   LIG    1       -1.228   3.135   0.030  0.00  0.00    -0.140 A 
ATOM      6  C   LIG    1       -1.208   1.737   0.017  0.00  0.00    +0.050 A 
ATOM      7  C   LIG    1       -0.013   1.076   0.008  0.00  0.00    +0.010 A 
ATOM      8  C   LIG    1        1.183   1.780   0.000  0.00  0.00    +0.090 A 
ATOM      9  C   LIG    1        1.188   3.158   0.007  0.00  0.00    -0.010 A 
ATOM     10  C   LIG    1       -0.017   3.853   0.022  0.00  0.00    +0.200 A 
ATOM     11  N   LIG    1       -0.041   5.231   0.030  0.00  0.00    -0.620 N 
ATOM     12  H   LIG    1        0.794   5.724   0.024  0.00  0.00    +0.430 HD
ENDROOT
BRANCH   4  13
ATOM     13  C   LIG    1       -3.810   3.147   0.053  0.00  0.00    +0.340 C 
BRANCH  13  14
ATOM     14  N   LIG    1       -4.193   2.812  -1.325  0.00  0.00    -0.500 N 
ATOM     15  H   LIG    1       -3.486   2.222  -1.736  0.00  0.00    +0.440 HD
ATOM     16  H   LIG    1       -4.280   3.659  -1.865  0.00  0.00    +0.440 HD
BRANCH  14  17
ATOM     17  C   LIG    1       -5.479   2.102  -1.317  0.00  0.00    +0.240 C 
ATOM     18  C   LIG    1       -6.549   3.017  -0.811  0.00  0.00    +0.030 C 
ATOM     19  C   LIG    1       -7.714   3.015  -1.395  0.00  0.00    -0.370 C 
ATOM     20  S   LIG    1       -7.648   1.832  -2.721  0.00  0.00    +2.460 S 
ATOM     21  O   LIG    1       -8.288   0.665  -2.225  0.00  0.00    -0.890 OA
ATOM     22  O   LIG    1       -8.122   2.520  -3.870  0.00  0.00    -0.890 OA
ATOM     23  C   LIG    1       -5.821   1.638  -2.755  0.00  0.00    -0.280 C 
ENDBRANCH  14  17
ENDBRANCH  13  14
ENDBRANCH   4  13
TORSDOF 3
