REMARK  Name = ZINCrH000004vBXV.0
REMARK                            x       y       z     vdW  Elec       q    Type
REMARK                         _______ _______ _______ _____ _____    ______ ____
ROOT
ATOM      1  O   LIG    1        1.182   2.350   0.041  0.00  0.00    -0.500 OA
ATOM      2  C   LIG    1        1.172   3.565   0.009  0.00  0.00    +0.570 C 
ATOM      3  N   LIG    1        2.331   4.246  -0.100  0.00  0.00    -0.550 N 
ATOM      4  C   LIG    1        2.337   5.715  -0.100  0.00  0.00    +0.290 C 
ATOM      5  C   LIG    1        3.275   6.184  -1.215  0.00  0.00    +0.030 C 
ATOM      6  C   LIG    1        4.693   5.707  -0.904  0.00  0.00    +0.090 C 
ATOM      7  C   LIG    1        4.700   4.230  -0.610  0.00  0.00    -0.140 A 
ATOM      8  C   LIG    1        5.888   3.529  -0.727  0.00  0.00    +0.140 A 
ATOM      9  C   LIG    1        5.929   2.175  -0.454  0.00  0.00    -0.700 A 
ATOM     10  C   LIG    1        4.782   1.511  -0.062  0.00  0.00    +0.140 A 
ATOM     11  C   LIG    1        3.592   2.202   0.055  0.00  0.00    +0.000 A 
ATOM     12  C   LIG    1        3.549   3.563  -0.221  0.00  0.00    +0.210 A 
ENDROOT
BRANCH   2  13
ATOM     13  C   LIG    1       -0.109   4.297   0.091  0.00  0.00    -0.120 A 
ATOM     14  C   LIG    1       -0.227   5.415   0.918  0.00  0.00    +0.050 A 
ATOM     15  C   LIG    1       -1.426   6.094   0.990  0.00  0.00    +0.030 A 
ATOM     16  C   LIG    1       -2.511   5.668   0.245  0.00  0.00    +0.060 A 
ATOM     17  C   LIG    1       -2.402   4.559  -0.577  0.00  0.00    -0.040 A 
ATOM     18 CL   LIG    1       -3.770   4.033  -1.508  0.00  0.00    -0.050 Cl
ATOM     19  C   LIG    1       -1.208   3.872  -0.658  0.00  0.00    +0.080 A 
ENDBRANCH   2  13
BRANCH   9  20
ATOM     20  S   LIG    1        7.447   1.293  -0.605  0.00  0.00    +2.710 S 
ATOM     21  O   LIG    1        7.330   0.148   0.228  0.00  0.00    -0.950 OA
ATOM     22  O   LIG    1        8.485   2.254  -0.465  0.00  0.00    -0.950 OA
BRANCH  20  23
ATOM     23  N   LIG    1        7.535   0.732  -2.161  0.00  0.00    -1.010 NA
ATOM     24  C   LIG    1        7.035  -0.567  -2.633  0.00  0.00    +0.270 C 
ATOM     25  C   LIG    1        7.357  -0.663  -4.139  0.00  0.00    +0.030 C 
ATOM     26  C   LIG    1        8.530   0.340  -4.305  0.00  0.00    +0.030 C 
ATOM     27  C   LIG    1        8.134   1.450  -3.300  0.00  0.00    +0.270 C 
ENDBRANCH  20  23
ENDBRANCH   9  20
TORSDOF 3
