REMARK  Name = ZINCrD0000071prC.0
REMARK                            x       y       z     vdW  Elec       q    Type
REMARK                         _______ _______ _______ _____ _____    ______ ____
ROOT
ATOM      1  C   LIG    1        7.622   3.929  -2.990  0.00  0.00    +0.410 C 
ENDROOT
BRANCH   1   2
ATOM      2  N   LIG    1        8.995   4.435  -2.925  0.00  0.00    -0.570 N 
ATOM      3  C   LIG    1       10.083   3.656  -2.901  0.00  0.00    +0.710 C 
ATOM      4  N   LIG    1       11.224   4.369  -2.841  0.00  0.00    -0.710 N 
ATOM      5  H   LIG    1       12.128   4.018  -2.814  0.00  0.00    +0.440 HD
ATOM      6  C   LIG    1       10.829   5.783  -2.823  0.00  0.00    +0.130 C 
ATOM      7  C   LIG    1       11.391   6.509  -4.041  0.00  0.00    +0.050 C 
ATOM      8  C   LIG    1       12.921   6.506  -3.978  0.00  0.00    +0.030 C 
ATOM      9  C   LIG    1       13.378   7.200  -2.693  0.00  0.00    +0.010 C 
ATOM     10  C   LIG    1       12.825   6.449  -1.480  0.00  0.00    +0.040 C 
ATOM     11  C   LIG    1       11.294   6.451  -1.534  0.00  0.00    +0.020 C 
ATOM     12  C   LIG    1       10.741   5.683  -0.333  0.00  0.00    +0.040 C 
ATOM     13  O   LIG    1       10.046   2.441  -2.930  0.00  0.00    -0.540 OA
ATOM     14  C   LIG    1        9.320   5.744  -2.887  0.00  0.00    +0.540 C 
ATOM     15  O   LIG    1        8.561   6.689  -2.900  0.00  0.00    -0.460 OA
ENDBRANCH   1   2
BRANCH   1  16
ATOM     16  C   LIG    1        7.095   3.722  -1.593  0.00  0.00    +0.450 C 
ATOM     17  O   LIG    1        7.796   3.972  -0.641  0.00  0.00    -0.490 OA
BRANCH  16  18
ATOM     18  O   LIG    1        5.849   3.261  -1.407  0.00  0.00    -0.350 OA
BRANCH  18  19
ATOM     19  C   LIG    1        5.409   3.086  -0.035  0.00  0.00    +0.270 C 
BRANCH  19  23
ATOM     20  C   LIG    1        1.401   1.607  -0.003  0.00  0.00    -0.060 A 
ATOM     21  C   LIG    1        1.635   2.970  -0.003  0.00  0.00    +0.010 A 
ATOM     22  C   LIG    1        2.932   3.448  -0.008  0.00  0.00    +0.030 A 
ATOM     23  C   LIG    1        3.995   2.564  -0.023  0.00  0.00    -0.110 A 
ATOM     24  C   LIG    1        3.761   1.202  -0.028  0.00  0.00    +0.030 A 
ATOM     25  C   LIG    1        2.464   0.724  -0.018  0.00  0.00    +0.010 A 
BRANCH  20  27
ATOM     26  C   LIG    1       -0.753   1.593  -1.232  0.00  0.00    +0.030 C 
ATOM     27  C   LIG    1       -0.013   1.086   0.008  0.00  0.00    +0.020 C 
ATOM     28  C   LIG    1       -0.729   1.579   1.267  0.00  0.00    +0.030 C 
ENDBRANCH  20  27
ENDBRANCH  19  23
ENDBRANCH  18  19
ENDBRANCH  16  18
ENDBRANCH   1  16
TORSDOF 6
