REMARK  Name = ZINCrD00000l0O4h.0
REMARK                            x       y       z     vdW  Elec       q    Type
REMARK                         _______ _______ _______ _____ _____    ______ ____
ROOT
ATOM      1  C   LIG    1        3.696  -0.713  -0.037  0.00  0.00    +0.570 C 
ATOM      2  N   LIG    1        3.726  -2.060  -0.045  0.00  0.00    -0.710 N 
ATOM      3  H   LIG    1        2.897  -2.563  -0.040  0.00  0.00    +0.400 HD
ATOM      4  O   LIG    1        4.735  -0.082  -0.044  0.00  0.00    -0.530 OA
ENDROOT
BRANCH   1  11
ATOM      5  O   LIG    1        3.232   4.669  -0.005  0.00  0.00    -0.530 OA
ATOM      6  C   LIG    1        2.678   3.586  -0.005  0.00  0.00    +0.690 A 
ATOM      7  N   LIG    1        1.345   3.397   0.007  0.00  0.00    -0.620 N 
ATOM      8  H   LIG    1        0.673   4.096   0.017  0.00  0.00    +0.440 HD
ATOM      9  C   LIG    1        1.095   2.030   0.003  0.00  0.00    +0.300 A 
ATOM     10  C   LIG    1        2.344   1.397  -0.013  0.00  0.00    +0.110 A 
ATOM     11  C   LIG    1        2.400  -0.002  -0.021  0.00  0.00    -0.080 A 
ATOM     12  C   LIG    1        1.190  -0.707  -0.014  0.00  0.00    +0.020 A 
ATOM     13  C   LIG    1        0.002  -0.004   0.002  0.00  0.00    +0.300 A 
ATOM     14  N   LIG    1       -0.016   1.315   0.009  0.00  0.00    -0.450 NA
ATOM     15  N   LIG    1        3.305   2.394  -0.017  0.00  0.00    -0.620 N 
ATOM     16  H   LIG    1        4.265   2.257  -0.027  0.00  0.00    +0.450 HD
ENDBRANCH   1  11
BRANCH   2  17
ATOM     17  C   LIG    1        5.010  -2.764  -0.061  0.00  0.00    +0.340 C 
BRANCH  17  18
ATOM     18  C   LIG    1        4.767  -4.252  -0.067  0.00  0.00    -0.150 A 
ATOM     19  C   LIG    1        4.879  -4.972   1.108  0.00  0.00    +0.080 A 
ATOM     20  C   LIG    1        4.652  -6.334   1.110  0.00  0.00    +0.020 A 
ATOM     21  C   LIG    1        4.321  -6.985  -0.077  0.00  0.00    +0.000 A 
ATOM     22  C   LIG    1        4.216  -6.257  -1.260  0.00  0.00    -0.010 A 
ATOM     23  C   LIG    1        4.439  -4.893  -1.250  0.00  0.00    +0.120 A 
ATOM     24  F   LIG    1        4.338  -4.185  -2.396  0.00  0.00    -0.130 F 
BRANCH  21  25
ATOM     25  C   LIG    1        4.083  -8.450  -0.080  0.00  0.00    -0.060 A 
ATOM     26  C   LIG    1        3.747  -9.101  -1.266  0.00  0.00    +0.030 A 
ATOM     27  C   LIG    1        3.531 -10.464  -1.264  0.00  0.00    +0.010 A 
ATOM     28  C   LIG    1        3.637 -11.182  -0.087  0.00  0.00    +0.020 A 
ATOM     29  C   LIG    1        3.966 -10.541   1.094  0.00  0.00    +0.010 A 
ATOM     30  C   LIG    1        4.189  -9.179   1.103  0.00  0.00    +0.030 A 
ENDBRANCH  21  25
ENDBRANCH  17  18
ENDBRANCH   2  17
TORSDOF 4
