REMARK  Name = ZINCnE000001GbaY.0
REMARK                            x       y       z     vdW  Elec       q    Type
REMARK                         _______ _______ _______ _____ _____    ______ ____
ROOT
ATOM      1  C   LIG    1        2.554   3.662  -0.324  0.00  0.00    +0.560 C 
ATOM      2  N   LIG    1        2.674   5.002  -0.404  0.00  0.00    -0.600 N 
ATOM      3  C   LIG    1        1.505   5.871  -0.210  0.00  0.00    +0.260 C 
ATOM      4  C   LIG    1        1.832   6.903   0.874  0.00  0.00    +0.000 C 
ATOM      5  C   LIG    1        3.113   7.648   0.493  0.00  0.00    +0.020 C 
ATOM      6  C   LIG    1        4.275   6.656   0.404  0.00  0.00    -0.030 C 
ATOM      7  C   LIG    1        3.977   5.622  -0.680  0.00  0.00    +0.280 C 
ATOM      8  O   LIG    1        3.543   2.958  -0.387  0.00  0.00    -0.540 OA
ENDROOT
BRANCH   1  15
ATOM      9  C   LIG    1        1.003   2.095   0.845  0.00  0.00    +0.270 A 
ATOM     10  C   LIG    1       -0.256   1.525   0.989  0.00  0.00    -0.050 A 
ATOM     11  C   LIG    1       -1.282   1.893   0.143  0.00  0.00    +0.090 A 
ATOM     12  C   LIG    1       -1.071   2.839  -0.848  0.00  0.00    -0.100 A 
ATOM     13  C   LIG    1        0.172   3.416  -1.006  0.00  0.00    +0.110 A 
ATOM     14 CL   LIG    1       -2.375   3.296  -1.899  0.00  0.00    -0.080 Cl
ATOM     15  C   LIG    1        1.222   3.049  -0.161  0.00  0.00    -0.200 A 
BRANCH   9  16
ATOM     16  N   LIG    1        2.039   1.721   1.691  0.00  0.00    -0.730 N 
ATOM     17  H   LIG    1        2.894   2.177   1.642  0.00  0.00    +0.410 HD
BRANCH  16  19
ATOM     18  C   LIG    1        3.127   0.430   3.460  0.00  0.00    +0.030 C 
ATOM     19  C   LIG    1        1.841   0.639   2.658  0.00  0.00    +0.240 C 
ENDBRANCH  16  19
ENDBRANCH   9  16
ENDBRANCH   1  15
BRANCH   6  20
ATOM     20  C   LIG    1        5.562   7.407   0.056  0.00  0.00    +0.040 C 
BRANCH  20  21
ATOM     21  C   LIG    1        6.744   6.436   0.089  0.00  0.00    -0.070 C 
BRANCH  21  22
ATOM     22  C   LIG    1        8.011   7.176  -0.254  0.00  0.00    +0.490 C 
ATOM     23  O   LIG    1        9.075   6.581  -0.283  0.00  0.00    -0.710 OA
ATOM     24  O   LIG    1        7.973   8.369  -0.502  0.00  0.00    -0.700 OA
ENDBRANCH  21  22
ENDBRANCH  20  21
ENDBRANCH   6  20
TORSDOF 6
