REMARK  Name = ZINCtj0000003IYX.2
REMARK                            x       y       z     vdW  Elec       q    Type
REMARK                         _______ _______ _______ _____ _____    ______ ____
ROOT
ATOM      1  N   LIG    1        5.899   6.627  -0.888  0.00  0.00    -0.700 N 
ATOM      2  H   LIG    1        6.690   6.810  -0.358  0.00  0.00    +0.410 HD
ATOM      3  C   LIG    1        4.811   6.082  -0.310  0.00  0.00    +0.600 C 
ATOM      4  O   LIG    1        3.820   5.852  -0.975  0.00  0.00    -0.550 OA
ENDROOT
BRANCH   3   5
ATOM      5  C   LIG    1        4.823   5.764   1.133  0.00  0.00    +0.000 A 
ATOM      6  N   LIG    1        5.822   5.957   1.971  0.00  0.00    -0.240 NA
ATOM      7  N   LIG    1        5.491   5.567   3.149  0.00  0.00    -0.270 N 
ATOM      8  C   LIG    1        4.227   5.092   3.146  0.00  0.00    +0.230 A 
ATOM      9  C   LIG    1        6.358   5.634   4.328  0.00  0.00    +0.390 C 
ATOM     10  C   LIG    1        3.764   5.193   1.878  0.00  0.00    -0.230 A 
BRANCH  10  11
ATOM     11  C   LIG    1        2.404   4.790   1.369  0.00  0.00    +0.380 C 
BRANCH  11  12
ATOM     12  N   LIG    1        2.499   3.484   0.702  0.00  0.00    -0.390 N 
ATOM     13  C   LIG    1        2.834   2.432   1.687  0.00  0.00    +0.260 C 
ATOM     14  C   LIG    1        2.085   1.157   1.259  0.00  0.00    +0.040 C 
ATOM     15  C   LIG    1        1.286   1.562  -0.002  0.00  0.00    +0.180 C 
ATOM     16  C   LIG    1        1.180   3.102   0.135  0.00  0.00    +0.290 C 
ATOM     17  H   LIG    1        3.196   3.514  -0.026  0.00  0.00    +0.430 HD
BRANCH  15  18
ATOM     18  O   LIG    1       -0.011   0.963   0.007  0.00  0.00    -0.540 OA
ATOM     19  H   LIG    1        0.002  -0.004   0.002  0.00  0.00    +0.400 HD
ENDBRANCH  15  18
ENDBRANCH  11  12
ENDBRANCH  10  11
ENDBRANCH   3   5
BRANCH   1  20
ATOM     20  C   LIG    1        5.888   6.942  -2.319  0.00  0.00    +0.330 C 
BRANCH  20  26
ATOM     21  C   LIG    1        8.311   6.707  -2.941  0.00  0.00    +0.020 A 
ATOM     22  C   LIG    1        9.535   7.264  -3.305  0.00  0.00    +0.020 A 
ATOM     23  C   LIG    1        9.656   8.632  -3.439  0.00  0.00    +0.030 A 
ATOM     24  C   LIG    1        8.565   9.451  -3.211  0.00  0.00    +0.010 A 
ATOM     25  C   LIG    1        7.346   8.903  -2.855  0.00  0.00    +0.040 A 
ATOM     26  C   LIG    1        7.215   7.537  -2.713  0.00  0.00    -0.110 A 
BRANCH  21  30
ATOM     27  C   LIG    1        8.518   1.794  -3.838  0.00  0.00    +0.360 C 
ATOM     28  N   LIG    1        8.268   3.085  -3.192  0.00  0.00    -0.370 N 
ATOM     29  C   LIG    1        8.563   4.296  -3.705  0.00  0.00    +0.260 A 
ATOM     30  C   LIG    1        8.176   5.236  -2.795  0.00  0.00    -0.210 A 
ATOM     31  C   LIG    1        7.618   4.557  -1.694  0.00  0.00    +0.240 A 
ATOM     32  N   LIG    1        7.676   3.274  -1.937  0.00  0.00    -0.300 NA
ENDBRANCH  21  30
ENDBRANCH  20  26
ENDBRANCH   1  20
TORSDOF 7
