REMARK  Name = ZINCtj0000003IYX.1
REMARK                            x       y       z     vdW  Elec       q    Type
REMARK                         _______ _______ _______ _____ _____    ______ ____
ROOT
ATOM      1  N   LIG    1        3.732   4.606   1.763  0.00  0.00    -0.700 N 
ATOM      2  H   LIG    1        4.136   5.359   1.304  0.00  0.00    +0.410 HD
ATOM      3  C   LIG    1        3.679   3.400   1.164  0.00  0.00    +0.600 C 
ATOM      4  O   LIG    1        3.172   2.457   1.740  0.00  0.00    -0.540 OA
ENDROOT
BRANCH   3   5
ATOM      5  C   LIG    1        4.236   3.224  -0.193  0.00  0.00    +0.000 A 
ATOM      6  N   LIG    1        4.725   4.171  -0.969  0.00  0.00    -0.240 NA
ATOM      7  N   LIG    1        5.122   3.667  -2.081  0.00  0.00    -0.270 N 
ATOM      8  C   LIG    1        4.915   2.333  -2.091  0.00  0.00    +0.240 A 
ATOM      9  C   LIG    1        5.720   4.430  -3.180  0.00  0.00    +0.390 C 
ATOM     10  C   LIG    1        4.346   2.007  -0.907  0.00  0.00    -0.230 A 
BRANCH  10  11
ATOM     11  C   LIG    1        3.923   0.637  -0.444  0.00  0.00    +0.380 C 
BRANCH  11  12
ATOM     12  N   LIG    1        4.917   0.112   0.502  0.00  0.00    -0.390 N 
ATOM     13  C   LIG    1        6.184  -0.202  -0.205  0.00  0.00    +0.270 C 
ATOM     14  C   LIG    1        6.874  -1.220   0.738  0.00  0.00    +0.050 C 
ATOM     15  C   LIG    1        5.689  -2.060   1.267  0.00  0.00    +0.190 C 
ATOM     16  C   LIG    1        4.448  -1.168   1.077  0.00  0.00    +0.290 C 
ATOM     17  H   LIG    1        5.086   0.782   1.238  0.00  0.00    +0.430 HD
BRANCH  15  18
ATOM     18  O   LIG    1        5.875  -2.363   2.651  0.00  0.00    -0.550 OA
ATOM     19  H   LIG    1        6.667  -2.886   2.836  0.00  0.00    +0.400 HD
ENDBRANCH  15  18
ENDBRANCH  11  12
ENDBRANCH  10  11
ENDBRANCH   3   5
BRANCH   1  20
ATOM     20  C   LIG    1        3.179   4.780   3.109  0.00  0.00    +0.340 C 
BRANCH  20  26
ATOM     21  C   LIG    1        2.491   7.197   3.092  0.00  0.00    +0.020 A 
ATOM     22  C   LIG    1        2.663   8.516   3.505  0.00  0.00    +0.020 A 
ATOM     23  C   LIG    1        3.704   8.842   4.351  0.00  0.00    +0.030 A 
ATOM     24  C   LIG    1        4.571   7.859   4.794  0.00  0.00    +0.010 A 
ATOM     25  C   LIG    1        4.401   6.547   4.392  0.00  0.00    +0.030 A 
ATOM     26  C   LIG    1        3.363   6.211   3.546  0.00  0.00    -0.120 A 
BRANCH  21  30
ATOM     27  C   LIG    1       -2.057   6.805   1.054  0.00  0.00    +0.360 C 
ATOM     28  N   LIG    1       -0.616   6.674   1.287  0.00  0.00    -0.370 N 
ATOM     29  C   LIG    1        0.065   7.184   2.332  0.00  0.00    +0.260 A 
ATOM     30  C   LIG    1        1.377   6.843   2.176  0.00  0.00    -0.210 A 
ATOM     31  C   LIG    1        1.482   6.088   0.992  0.00  0.00    +0.240 A 
ATOM     32  N   LIG    1        0.289   5.990   0.466  0.00  0.00    -0.290 NA
ENDBRANCH  21  30
ENDBRANCH  20  26
ENDBRANCH   1  20
TORSDOF 7
