REMARK  Name = ZINCpk00000y6wFm.0
REMARK                            x       y       z     vdW  Elec       q    Type
REMARK                         _______ _______ _______ _____ _____    ______ ____
ROOT
ATOM      1  C   LIG    1       -0.154  -0.762   1.057  0.00  0.00    +0.350 C 
ENDROOT
BRANCH   1   6
ATOM      2  C   LIG    1        1.239  -2.751   1.758  0.00  0.00    +0.410 A 
ATOM      3  N   LIG    1        0.997  -4.031   1.932  0.00  0.00    -0.350 NA
ATOM      4  N   LIG    1       -0.234  -4.295   1.679  0.00  0.00    -0.030 NA
ATOM      5  N   LIG    1       -0.861  -3.221   1.336  0.00  0.00    -0.070 NA
ATOM      6  N   LIG    1        0.078  -2.175   1.370  0.00  0.00    -0.360 N 
BRANCH   2  10
ATOM      7  C   LIG    1        4.742  -1.883   4.860  0.00  0.00    +0.060 C 
ATOM      8  C   LIG    1        4.224  -1.613   3.446  0.00  0.00    -0.010 C 
ATOM      9  C   LIG    1        2.689  -1.812   3.373  0.00  0.00    +0.210 C 
ATOM     10  N   LIG    1        2.453  -2.111   1.938  0.00  0.00    -0.440 N 
ATOM     11  C   LIG    1        3.576  -2.978   1.517  0.00  0.00    +0.220 C 
ATOM     12  C   LIG    1        4.757  -2.675   2.457  0.00  0.00    +0.190 C 
ATOM     13  F   LIG    1        5.142  -3.832   3.143  0.00  0.00    -0.200 F 
ENDBRANCH   2  10
ENDBRANCH   1   6
BRANCH   1  14
ATOM     14  C   LIG    1       -0.036  -0.548  -0.453  0.00  0.00    +0.090 C 
BRANCH  14  15
ATOM     15  C   LIG    1       -0.173   0.920  -0.765  0.00  0.00    -0.090 A 
ATOM     16  C   LIG    1       -1.410   1.442  -1.095  0.00  0.00    +0.040 A 
ATOM     17  C   LIG    1       -1.546   2.790  -1.377  0.00  0.00    +0.010 A 
ATOM     18  C   LIG    1       -0.444   3.620  -1.342  0.00  0.00    +0.040 A 
ATOM     19  C   LIG    1        0.808   3.098  -1.015  0.00  0.00    -0.130 A 
ATOM     20  C   LIG    1        0.937   1.738  -0.726  0.00  0.00    +0.070 A 
BRANCH  19  21
ATOM     21  C   LIG    1        1.993   3.981  -0.975  0.00  0.00    +0.560 C 
ATOM     22  N   LIG    1        1.900   5.210  -0.430  0.00  0.00    -0.620 N 
ATOM     23  C   LIG    1        0.659   5.626   0.229  0.00  0.00    +0.280 C 
ATOM     24  C   LIG    1        3.038   6.130  -0.497  0.00  0.00    +0.290 C 
ATOM     25  O   LIG    1        3.052   3.598  -1.433  0.00  0.00    -0.530 OA
ENDBRANCH  19  21
ENDBRANCH  14  15
ENDBRANCH   1  14
TORSDOF 5
