REMARK  Name = ZINCqH000000822w.0
REMARK                            x       y       z     vdW  Elec       q    Type
REMARK                         _______ _______ _______ _____ _____    ______ ____
ROOT
ATOM      1  C   LIG    1        5.972   0.909  -0.048  0.00  0.00    +0.550 C 
ATOM      2  O   LIG    1        6.650  -0.101  -0.059  0.00  0.00    -0.470 OA
ENDROOT
BRANCH   1   4
ATOM      3  C   LIG    1        3.802  -0.352  -0.035  0.00  0.00    -0.050 A 
ATOM      4  C   LIG    1        4.508   0.810  -0.035  0.00  0.00    +0.010 A 
ATOM      5  O   LIG    1        3.658   1.858  -0.022  0.00  0.00    -0.160 OA
ATOM      6  C   LIG    1        2.378   1.439  -0.013  0.00  0.00    +0.080 A 
ATOM      7  C   LIG    1        1.158   2.104   0.002  0.00  0.00    +0.030 A 
ATOM      8  C   LIG    1       -0.017   1.384   0.010  0.00  0.00    +0.070 A 
ATOM      9  C   LIG    1        0.002  -0.004   0.002  0.00  0.00    +0.010 A 
ATOM     10  C   LIG    1        1.189  -0.680  -0.013  0.00  0.00    +0.080 A 
ATOM     11  C   LIG    1        2.391   0.031  -0.020  0.00  0.00    -0.140 A 
BRANCH   3  12
ATOM     12  C   LIG    1        4.361  -1.751  -0.047  0.00  0.00    +0.180 C 
BRANCH  12  14
ATOM     13  C   LIG    1        5.240  -3.979  -1.572  0.00  0.00    +0.140 C 
ATOM     14  S   LIG    1        4.570  -2.304  -1.762  0.00  0.00    -0.240 S 
ENDBRANCH  12  14
ENDBRANCH   3  12
ENDBRANCH   1   4
BRANCH   1  15
ATOM     15  O   LIG    1        6.566   2.120  -0.047  0.00  0.00    -0.320 OA
BRANCH  15  16
ATOM     16  C   LIG    1        8.018   2.142  -0.060  0.00  0.00    +0.270 C 
BRANCH  16  17
ATOM     17  C   LIG    1        8.499   3.570  -0.057  0.00  0.00    +0.520 C 
ATOM     18  N   LIG    1        9.820   3.836  -0.067  0.00  0.00    -0.720 N 
ATOM     19  H   LIG    1       10.461   3.109  -0.076  0.00  0.00    +0.400 HD
ATOM     20  O   LIG    1        7.697   4.480  -0.046  0.00  0.00    -0.510 OA
BRANCH  18  21
ATOM     21  C   LIG    1       10.287   5.225  -0.065  0.00  0.00    +0.320 C 
BRANCH  21  22
ATOM     22  C   LIG    1       11.794   5.248  -0.078  0.00  0.00    -0.110 A 
ATOM     23  C   LIG    1       12.495   5.258   1.113  0.00  0.00    +0.020 A 
ATOM     24  C   LIG    1       13.878   5.274   1.101  0.00  0.00    +0.010 A 
ATOM     25  C   LIG    1       14.558   5.291  -0.102  0.00  0.00    +0.010 A 
ATOM     26  C   LIG    1       13.857   5.285  -1.293  0.00  0.00    +0.010 A 
ATOM     27  C   LIG    1       12.475   5.264  -1.281  0.00  0.00    +0.020 A 
ENDBRANCH  21  22
ENDBRANCH  18  21
ENDBRANCH  16  17
ENDBRANCH  15  16
ENDBRANCH   1  15
TORSDOF 8
