REMARK  Name = ZINCpe00000gMyKe.2
REMARK                            x       y       z     vdW  Elec       q    Type
REMARK                         _______ _______ _______ _____ _____    ______ ____
ROOT
ATOM      1  C   LIG    1       -4.963   4.172   0.071  0.00  0.00    +0.410 C 
ENDROOT
BRANCH   1   2
ATOM      2  C   LIG    1       -6.098   3.180   0.077  0.00  0.00    +0.160 A 
ATOM      3  N   LIG    1       -6.630   2.607  -0.968  0.00  0.00    -0.270 NA
ATOM      4  N   LIG    1       -7.575   1.819  -0.595  0.00  0.00    -0.250 NA
ATOM      5  C   LIG    1       -7.689   1.853   0.705  0.00  0.00    +0.190 A 
ATOM      6  N   LIG    1       -6.751   2.715   1.169  0.00  0.00    -0.570 N 
ATOM      7  H   LIG    1       -6.583   2.951   2.095  0.00  0.00    +0.430 HD
BRANCH   5   8
ATOM      8  C   LIG    1       -8.676   1.075   1.536  0.00  0.00    +0.210 C 
ATOM      9  C   LIG    1       -9.908   1.942   1.811  0.00  0.00    +0.240 C 
ATOM     10  O   LIG    1      -10.873   1.174   2.535  0.00  0.00    -0.380 OA
ATOM     11  C   LIG    1      -11.295  -0.011   1.854  0.00  0.00    +0.240 C 
ATOM     12  C   LIG    1      -10.077  -0.897   1.580  0.00  0.00    +0.170 C 
ATOM     13  N   LIG    1       -9.086  -0.134   0.807  0.00  0.00    -0.520 NA
ATOM     14  C   LIG    1       -7.924  -0.967   0.474  0.00  0.00    +0.200 C 
ENDBRANCH   5   8
ENDBRANCH   1   2
BRANCH   1  16
ATOM     15  C   LIG    1       -2.527   4.139   0.048  0.00  0.00    +0.570 C 
ATOM     16  N   LIG    1       -3.687   3.453   0.056  0.00  0.00    -0.730 N 
ATOM     17  H   LIG    1       -3.676   2.483   0.051  0.00  0.00    +0.400 HD
ATOM     18  O   LIG    1       -2.539   5.355   0.054  0.00  0.00    -0.510 OA
BRANCH  15  25
ATOM     19  C   LIG    1       -0.033   4.124   0.024  0.00  0.00    +0.180 A 
ATOM     20  C   LIG    1        1.170   3.435   0.009  0.00  0.00    -0.040 A 
ATOM     21  C   LIG    1        1.177   2.054   0.002  0.00  0.00    +0.070 A 
ATOM     22  C   LIG    1       -0.016   1.347   0.009  0.00  0.00    +0.050 A 
ATOM     23  C   LIG    1       -1.222   2.018   0.019  0.00  0.00    +0.060 A 
ATOM     24  F   LIG    1        0.002  -0.004   0.002  0.00  0.00    -0.140 F 
ATOM     25  C   LIG    1       -1.241   3.415   0.032  0.00  0.00    -0.150 A 
BRANCH  19  27
ATOM     26  C   LIG    1        1.230   6.137   0.021  0.00  0.00    +0.250 C 
ATOM     27  O   LIG    1       -0.040   5.481   0.030  0.00  0.00    -0.280 OA
ENDBRANCH  19  27
ENDBRANCH  15  25
ENDBRANCH   1  16
TORSDOF 5
