REMARK  Name = ZINCpe00000gMyKe.1
REMARK                            x       y       z     vdW  Elec       q    Type
REMARK                         _______ _______ _______ _____ _____    ______ ____
ROOT
ATOM      1  C   LIG    1       -3.739   2.150   0.032  0.00  0.00    +0.420 C 
ENDROOT
BRANCH   1   2
ATOM      2  C   LIG    1       -4.874   1.159   0.032  0.00  0.00    +0.210 A 
ATOM      3  N   LIG    1       -5.441   0.654   1.095  0.00  0.00    -0.280 NA
ATOM      4  N   LIG    1       -6.445  -0.218   0.644  0.00  0.00    -0.470 N 
ATOM      5  H   LIG    1       -7.045  -0.748   1.193  0.00  0.00    +0.440 HD
ATOM      6  C   LIG    1       -6.409  -0.174  -0.699  0.00  0.00    +0.290 A 
ATOM      7  N   LIG    1       -5.466   0.659  -1.053  0.00  0.00    -0.490 NA
BRANCH   6   8
ATOM      8  C   LIG    1       -7.304  -0.947  -1.634  0.00  0.00    +0.210 C 
ATOM      9  C   LIG    1       -8.611  -0.179  -1.842  0.00  0.00    +0.240 C 
ATOM     10  O   LIG    1       -9.425  -0.879  -2.788  0.00  0.00    -0.380 OA
ATOM     11  C   LIG    1       -8.799  -1.062  -4.061  0.00  0.00    +0.240 C 
ATOM     12  C   LIG    1       -7.494  -1.840  -3.875  0.00  0.00    +0.170 C 
ATOM     13  N   LIG    1       -6.630  -1.118  -2.929  0.00  0.00    -0.520 NA
ATOM     14  C   LIG    1       -5.340  -1.802  -2.765  0.00  0.00    +0.200 C 
ENDBRANCH   6   8
ENDBRANCH   1   2
BRANCH   1  16
ATOM     15  C   LIG    1       -1.302   2.117   0.020  0.00  0.00    +0.570 C 
ATOM     16  N   LIG    1       -2.462   1.431   0.021  0.00  0.00    -0.720 N 
ATOM     17  H   LIG    1       -2.452   0.461   0.016  0.00  0.00    +0.400 HD
ATOM     18  O   LIG    1       -1.315   3.333   0.026  0.00  0.00    -0.510 OA
BRANCH  15  25
ATOM     19  C   LIG    1        1.192   2.102   0.002  0.00  0.00    +0.180 A 
ATOM     20  C   LIG    1        2.394   1.413  -0.014  0.00  0.00    -0.040 A 
ATOM     21  C   LIG    1        2.401   0.032  -0.021  0.00  0.00    +0.070 A 
ATOM     22  C   LIG    1        1.208  -0.675  -0.013  0.00  0.00    +0.050 A 
ATOM     23  C   LIG    1        0.002  -0.004   0.002  0.00  0.00    +0.060 A 
ATOM     24  F   LIG    1        1.226  -2.026  -0.021  0.00  0.00    -0.140 F 
ATOM     25  C   LIG    1       -0.017   1.393   0.010  0.00  0.00    -0.150 A 
BRANCH  19  27
ATOM     26  C   LIG    1        2.454   4.114   0.000  0.00  0.00    +0.250 C 
ATOM     27  O   LIG    1        1.185   3.459   0.009  0.00  0.00    -0.280 OA
ENDBRANCH  19  27
ENDBRANCH  15  25
ENDBRANCH   1  16
TORSDOF 5
