REMARK  Name = ZINCpe00000gMyKe.0
REMARK                            x       y       z     vdW  Elec       q    Type
REMARK                         _______ _______ _______ _____ _____    ______ ____
ROOT
ATOM      1  C   LIG    1       -4.928   0.002   0.048  0.00  0.00    +0.410 C 
ENDROOT
BRANCH   1   2
ATOM      2  C   LIG    1       -6.055  -0.999   0.054  0.00  0.00    +0.260 A 
ATOM      3  N   LIG    1       -6.581  -1.569  -1.000  0.00  0.00    -0.510 NA
ATOM      4  C   LIG    1       -7.553  -2.400  -0.626  0.00  0.00    +0.230 A 
ATOM      5  N   LIG    1       -7.665  -2.364   0.676  0.00  0.00    -0.270 NA
ATOM      6  N   LIG    1       -6.698  -1.457   1.141  0.00  0.00    -0.470 N 
ATOM      7  H   LIG    1       -6.529  -1.210   2.064  0.00  0.00    +0.440 HD
BRANCH   4   8
ATOM      8  C   LIG    1       -8.392  -3.240  -1.554  0.00  0.00    +0.220 C 
ATOM      9  C   LIG    1       -7.943  -4.702  -1.466  0.00  0.00    +0.250 C 
ATOM     10  O   LIG    1       -8.791  -5.506  -2.290  0.00  0.00    -0.380 OA
ATOM     11  C   LIG    1      -10.175  -5.434  -1.936  0.00  0.00    +0.220 C 
ATOM     12  C   LIG    1      -10.646  -3.981  -2.029  0.00  0.00    +0.160 C 
ATOM     13  N   LIG    1       -9.806  -3.142  -1.162  0.00  0.00    -0.530 NA
ATOM     14  C   LIG    1      -10.261  -1.746  -1.178  0.00  0.00    +0.200 C 
ENDBRANCH   4   8
ENDBRANCH   1   2
BRANCH   1  16
ATOM     15  C   LIG    1       -2.492  -0.011   0.025  0.00  0.00    +0.570 C 
ATOM     16  N   LIG    1       -3.646  -0.706   0.033  0.00  0.00    -0.730 N 
ATOM     17  H   LIG    1       -3.628  -1.676   0.028  0.00  0.00    +0.400 HD
ATOM     18  O   LIG    1       -2.515   1.205   0.032  0.00  0.00    -0.500 OA
BRANCH  15  25
ATOM     19  C   LIG    1        0.002  -0.004   0.002  0.00  0.00    +0.180 A 
ATOM     20  C   LIG    1        1.210  -0.683  -0.019  0.00  0.00    -0.040 A 
ATOM     21  C   LIG    1        1.229  -2.064  -0.021  0.00  0.00    +0.070 A 
ATOM     22  C   LIG    1        0.042  -2.781  -0.013  0.00  0.00    +0.050 A 
ATOM     23  C   LIG    1       -1.170  -2.120   0.002  0.00  0.00    +0.060 A 
ATOM     24  F   LIG    1        0.071  -4.132  -0.021  0.00  0.00    -0.130 F 
ATOM     25  C   LIG    1       -1.200  -0.724   0.010  0.00  0.00    -0.150 A 
BRANCH  19  27
ATOM     26  C   LIG    1        1.248   2.019   0.001  0.00  0.00    +0.250 C 
ATOM     27  O   LIG    1       -0.016   1.353   0.009  0.00  0.00    -0.280 OA
ENDBRANCH  19  27
ENDBRANCH  15  25
ENDBRANCH   1  16
TORSDOF 5
