REMARK  Name = ZINCvU00000009PQ.0
REMARK                            x       y       z     vdW  Elec       q    Type
REMARK                         _______ _______ _______ _____ _____    ______ ____
ROOT
ATOM      1  C   LIG    1        3.499   6.360   0.321  0.00  0.00    +0.200 A 
ATOM      2  C   LIG    1        3.467   7.741   0.431  0.00  0.00    -0.080 A 
ATOM      3  C   LIG    1        2.257   8.407   0.444  0.00  0.00    +0.120 A 
ATOM      4  C   LIG    1        1.069   7.702   0.347  0.00  0.00    -0.170 A 
ATOM      5  C   LIG    1        1.082   6.329   0.232  0.00  0.00    +0.120 A 
ATOM      6  C   LIG    1        2.299   5.643   0.222  0.00  0.00    -0.180 A 
ENDROOT
BRANCH   6   7
ATOM      7  C   LIG    1        2.321   4.172   0.104  0.00  0.00    +0.570 C 
ATOM      8  N   LIG    1        1.164   3.487   0.009  0.00  0.00    -0.670 N 
ATOM      9  H   LIG    1        0.322   3.963  -0.061  0.00  0.00    +0.410 HD
ATOM     10  O   LIG    1        3.382   3.579   0.091  0.00  0.00    -0.490 OA
BRANCH   8  11
ATOM     11  C   LIG    1        1.178   2.088   0.013  0.00  0.00    +0.180 A 
ATOM     12  C   LIG    1        2.230   1.404   0.608  0.00  0.00    +0.040 A 
ATOM     13  C   LIG    1        2.241   0.023   0.611  0.00  0.00    +0.060 A 
ATOM     14  C   LIG    1        1.207  -0.681   0.021  0.00  0.00    +0.020 A 
ATOM     15  C   LIG    1        0.156  -0.004  -0.573  0.00  0.00    -0.010 A 
ATOM     16 CL   LIG    1       -1.140  -0.891  -1.312  0.00  0.00    -0.040 Cl
ATOM     17  C   LIG    1        0.139   1.379  -0.579  0.00  0.00    -0.070 A 
ATOM     18 CL   LIG    1       -1.175   2.229  -1.330  0.00  0.00    -0.040 Cl
ENDBRANCH   8  11
ENDBRANCH   6   7
BRANCH   1  20
ATOM     19  C   LIG    1        5.869   6.502   0.411  0.00  0.00    +0.250 C 
ATOM     20  O   LIG    1        4.687   5.705   0.307  0.00  0.00    -0.280 OA
ENDBRANCH   1  20
BRANCH   4  21
ATOM     21  C   LIG    1       -0.245   8.441   0.361  0.00  0.00    +0.380 C 
BRANCH  21  22
ATOM     22  N   LIG    1       -0.623   8.790  -1.011  0.00  0.00    -0.570 N 
ATOM     23  C   LIG    1       -0.282   9.937  -1.625  0.00  0.00    +0.580 C 
ATOM     24  C   LIG    1       -0.842   9.923  -2.993  0.00  0.00    -0.140 A 
ATOM     25  C   LIG    1       -0.816  10.809  -4.058  0.00  0.00    +0.100 A 
ATOM     26  C   LIG    1       -1.469  10.484  -5.238  0.00  0.00    +0.050 A 
ATOM     27  C   LIG    1       -2.145   9.285  -5.357  0.00  0.00    +0.050 A 
ATOM     28  C   LIG    1       -2.179   8.389  -4.300  0.00  0.00    +0.100 A 
ATOM     29  C   LIG    1       -1.532   8.700  -3.115  0.00  0.00    -0.140 A 
ATOM     30  O   LIG    1        0.378  10.833  -1.139  0.00  0.00    -0.460 OA
ATOM     31  C   LIG    1       -1.362   8.009  -1.819  0.00  0.00    +0.580 C 
ATOM     32  O   LIG    1       -1.814   6.919  -1.532  0.00  0.00    -0.460 OA
ENDBRANCH  21  22
ENDBRANCH   4  21
TORSDOF 5
