REMARK  Name = ZINCpe00000gMV0A.0
REMARK                            x       y       z     vdW  Elec       q    Type
REMARK                         _______ _______ _______ _____ _____    ______ ____
ROOT
ATOM      1  C   LIG    1        4.881   2.776   0.370  0.00  0.00    +0.160 C 
ATOM      2  C   LIG    1        5.547   1.716  -0.511  0.00  0.00    +0.170 C 
ATOM      3  N   LIG    1        6.454   2.376  -1.462  0.00  0.00    -0.520 NA
ATOM      4  C   LIG    1        7.477   3.155  -0.751  0.00  0.00    +0.150 C 
ATOM      5  C   LIG    1        6.792   4.201   0.132  0.00  0.00    +0.230 C 
ATOM      6  O   LIG    1        5.892   3.544   1.029  0.00  0.00    -0.360 OA
ENDROOT
BRANCH   1   7
ATOM      7  C   LIG    1        3.998   2.091   1.415  0.00  0.00    +0.340 C 
BRANCH   7  11
ATOM      8  C   LIG    1        0.290   4.711   3.537  0.00  0.00    +0.110 C 
ATOM      9  C   LIG    1        1.659   4.251   3.107  0.00  0.00    -0.240 A 
ATOM     10  C   LIG    1        1.931   3.169   2.341  0.00  0.00    +0.210 A 
ATOM     11  N   LIG    1        3.269   3.106   2.179  0.00  0.00    -0.370 N 
ATOM     12  N   LIG    1        3.839   4.182   2.872  0.00  0.00    -0.260 NA
ATOM     13  C   LIG    1        2.873   4.866   3.430  0.00  0.00    +0.220 A 
ENDBRANCH   7  11
ENDBRANCH   1   7
BRANCH   3  14
ATOM     14  C   LIG    1        7.071   1.396  -2.366  0.00  0.00    +0.220 C 
BRANCH  14  15
ATOM     15  C   LIG    1        7.794   2.120  -3.473  0.00  0.00    +0.510 C 
ATOM     16  N   LIG    1        8.440   1.420  -4.427  0.00  0.00    -0.650 N 
ATOM     17  H   LIG    1        8.501   0.455  -4.362  0.00  0.00    +0.400 HD
ATOM     18  O   LIG    1        7.794   3.333  -3.506  0.00  0.00    -0.500 OA
BRANCH  16  19
ATOM     19  C   LIG    1        9.025   2.091  -5.517  0.00  0.00    -0.010 A 
ATOM     20  C   LIG    1       10.335   2.051  -5.871  0.00  0.00    +0.080 A 
ATOM     21  N   LIG    1       10.487   2.830  -6.973  0.00  0.00    -0.370 N 
ATOM     22  N   LIG    1        9.233   3.361  -7.300  0.00  0.00    -0.290 NA
ATOM     23  C   LIG    1       11.740   3.073  -7.691  0.00  0.00    +0.360 C 
ATOM     24  C   LIG    1       11.424   1.280  -5.168  0.00  0.00    +0.140 C 
ATOM     25  C   LIG    1        8.358   2.915  -6.435  0.00  0.00    +0.090 A 
ATOM     26  C   LIG    1        6.886   3.237  -6.424  0.00  0.00    +0.150 C 
ENDBRANCH  16  19
ENDBRANCH  14  15
ENDBRANCH   3  14
TORSDOF 5
