REMARK  Name = ZINCtV000002MpGt.0
REMARK                            x       y       z     vdW  Elec       q    Type
REMARK                         _______ _______ _______ _____ _____    ______ ____
ROOT
ATOM      1  C   LIG    1        3.800  -0.984  -0.035  0.00  0.00    +0.320 C 
ENDROOT
BRANCH   1   2
ATOM      2  C   LIG    1        4.297  -1.111  -1.452  0.00  0.00    -0.100 A 
ATOM      3  C   LIG    1        3.411  -1.404  -2.472  0.00  0.00    +0.020 A 
ATOM      4  C   LIG    1        3.866  -1.518  -3.772  0.00  0.00    +0.000 A 
ATOM      5  C   LIG    1        5.209  -1.347  -4.052  0.00  0.00    +0.000 A 
ATOM      6  C   LIG    1        6.096  -1.059  -3.031  0.00  0.00    +0.000 A 
ATOM      7  C   LIG    1        5.640  -0.942  -1.732  0.00  0.00    +0.020 A 
ENDBRANCH   1   2
BRANCH   1   8
ATOM      8  N   LIG    1        2.517  -0.276  -0.030  0.00  0.00    -0.710 N 
ATOM      9  H   LIG    1        1.687  -0.777  -0.031  0.00  0.00    +0.390 HD
ATOM     10  C   LIG    1        2.491   1.071  -0.024  0.00  0.00    +0.560 C 
ATOM     11  O   LIG    1        3.531   1.700  -0.023  0.00  0.00    -0.500 OA
BRANCH  10  12
ATOM     12  C   LIG    1        1.197   1.785  -0.019  0.00  0.00    -0.130 A 
ATOM     13  C   LIG    1       -0.000   1.067  -0.020  0.00  0.00    +0.050 A 
ATOM     14  C   LIG    1       -1.205   1.739  -0.020  0.00  0.00    +0.020 A 
ATOM     15  C   LIG    1       -1.229   3.123  -0.009  0.00  0.00    +0.060 A 
ATOM     16  C   LIG    1       -0.048   3.842  -0.008  0.00  0.00    +0.020 A 
ATOM     17  C   LIG    1        1.166   3.182  -0.013  0.00  0.00    +0.010 A 
ATOM     18 CL   LIG    1        2.648   4.086  -0.011  0.00  0.00    -0.030 Cl
ENDBRANCH  10  12
ENDBRANCH   1   8
BRANCH   1  19
ATOM     19  C   LIG    1        3.616  -2.377   0.568  0.00  0.00    +0.080 C 
BRANCH  19  21
ATOM     20  O   LIG    1        3.126  -1.151   2.525  0.00  0.00    -0.490 OA
ATOM     21  C   LIG    1        3.237  -2.249   2.021  0.00  0.00    +0.510 C 
ATOM     22  N   LIG    1        3.023  -3.355   2.762  0.00  0.00    -0.670 N 
ATOM     23  H   LIG    1        3.034  -4.229   2.342  0.00  0.00    +0.420 HD
BRANCH  22  24
ATOM     24  C   LIG    1        2.785  -3.241   4.137  0.00  0.00    +0.180 A 
ATOM     25  C   LIG    1        3.256  -2.138   4.835  0.00  0.00    +0.040 A 
ATOM     26  C   LIG    1        3.015  -2.025   6.191  0.00  0.00    +0.080 A 
ATOM     27  C   LIG    1        2.316  -3.016   6.855  0.00  0.00    -0.100 A 
ATOM     28  C   LIG    1        1.850  -4.121   6.164  0.00  0.00    +0.090 A 
ATOM     29 BR   LIG    1        1.994  -2.862   8.713  0.00  0.00    -0.030 Br
ATOM     30  C   LIG    1        2.083  -4.236   4.807  0.00  0.00    -0.070 A 
ATOM     31 CL   LIG    1        1.499  -5.622   3.939  0.00  0.00    -0.050 Cl
ENDBRANCH  22  24
ENDBRANCH  19  21
ENDBRANCH   1  19
TORSDOF 6
