REMARK  Name = ZINCvU0000000Ggh.0
REMARK                            x       y       z     vdW  Elec       q    Type
REMARK                         _______ _______ _______ _____ _____    ______ ____
ROOT
ATOM      1  C   LIG    1        3.573   0.773  -0.328  0.00  0.00    +0.290 A 
ATOM      2  N   LIG    1        3.689   0.817  -1.623  0.00  0.00    -0.480 NA
ATOM      3  C   LIG    1        5.004   0.855  -1.961  0.00  0.00    +0.050 A 
ATOM      4  C   LIG    1        5.683   0.910  -3.181  0.00  0.00    +0.070 A 
ATOM      5  C   LIG    1        7.050   0.933  -3.198  0.00  0.00    +0.000 A 
ATOM      6  C   LIG    1        7.773   0.900  -2.015  0.00  0.00    +0.030 A 
ATOM      7  C   LIG    1        7.124   0.845  -0.800  0.00  0.00    +0.010 A 
ATOM      8  C   LIG    1        5.736   0.822  -0.762  0.00  0.00    +0.060 A 
ATOM      9  N   LIG    1        4.803   0.771   0.253  0.00  0.00    -0.480 N 
ENDROOT
BRANCH   1  12
ATOM     10  N   LIG    1       -0.016   1.340   0.009  0.00  0.00    -0.570 N 
ATOM     11  C   LIG    1        1.344   1.892  -0.001  0.00  0.00    +0.300 C 
ATOM     12  C   LIG    1        2.265   0.725   0.420  0.00  0.00    +0.090 C 
ATOM     13  C   LIG    1        1.429  -0.505  -0.004  0.00  0.00    +0.090 C 
ATOM     14  C   LIG    1        0.002  -0.004   0.002  0.00  0.00    +0.530 C 
ATOM     15  O   LIG    1       -0.983  -0.712   0.000  0.00  0.00    -0.510 OA
BRANCH  10  20
ATOM     16  C   LIG    1       -4.743   4.477   0.050  0.00  0.00    +0.090 C 
ATOM     17  C   LIG    1       -3.487   3.644   0.039  0.00  0.00    -0.070 A 
ATOM     18  C   LIG    1       -2.906   3.256   1.232  0.00  0.00    +0.010 A 
ATOM     19  C   LIG    1       -1.756   2.492   1.226  0.00  0.00    +0.020 A 
ATOM     20  C   LIG    1       -1.182   2.114   0.019  0.00  0.00    +0.130 A 
ATOM     21  C   LIG    1       -1.765   2.509  -1.178  0.00  0.00    -0.070 A 
ATOM     22  C   LIG    1       -1.142   2.106  -2.489  0.00  0.00    +0.090 C 
ATOM     23  C   LIG    1       -2.919   3.268  -1.165  0.00  0.00    +0.010 A 
ENDBRANCH  10  20
ENDBRANCH   1  12
BRANCH   9  24
ATOM     24  C   LIG    1        5.085   0.723   1.690  0.00  0.00    +0.370 C 
BRANCH  24  25
ATOM     25  C   LIG    1        5.203  -0.714   2.131  0.00  0.00    -0.120 A 
ATOM     26  C   LIG    1        4.083  -1.397   2.568  0.00  0.00    +0.040 A 
ATOM     27  C   LIG    1        4.191  -2.715   2.968  0.00  0.00    +0.030 A 
ATOM     28  C   LIG    1        5.420  -3.349   2.941  0.00  0.00    -0.020 A 
ATOM     29  C   LIG    1        6.541  -2.663   2.508  0.00  0.00    +0.030 A 
ATOM     30 CL   LIG    1        5.557  -5.003   3.449  0.00  0.00    -0.060 Cl
ATOM     31  C   LIG    1        6.432  -1.346   2.104  0.00  0.00    +0.050 A 
ENDBRANCH  24  25
ENDBRANCH   9  24
TORSDOF 4
