REMARK  Name = ZINCpe000000WCrb.1
REMARK                            x       y       z     vdW  Elec       q    Type
REMARK                         _______ _______ _______ _____ _____    ______ ____
ROOT
ATOM      1  C   LIG    1       -2.014   4.733  -5.184  0.00  0.00    +0.570 C 
ATOM      2  N   LIG    1       -2.113   3.497  -4.655  0.00  0.00    -0.730 N 
ATOM      3  H   LIG    1       -2.781   2.879  -4.989  0.00  0.00    +0.400 HD
ATOM      4  O   LIG    1       -1.176   5.508  -4.764  0.00  0.00    -0.510 OA
ENDROOT
BRANCH   1  11
ATOM      5  C   LIG    1       -2.832   6.430  -6.827  0.00  0.00    +0.380 A 
ATOM      6  N   LIG    1       -3.644   6.793  -7.806  0.00  0.00    -0.550 NA
ATOM      7  C   LIG    1       -4.563   5.978  -8.285  0.00  0.00    +0.200 A 
ATOM      8  C   LIG    1       -4.716   4.697  -7.785  0.00  0.00    -0.070 A 
ATOM      9  C   LIG    1       -3.889   4.263  -6.764  0.00  0.00    +0.140 A 
ATOM     10  C   LIG    1       -5.464   6.450  -9.397  0.00  0.00    +0.140 C 
ATOM     11  C   LIG    1       -2.921   5.145  -6.272  0.00  0.00    -0.220 A 
BRANCH   5  13
ATOM     12  C   LIG    1       -1.869   8.594  -6.971  0.00  0.00    +0.250 C 
ATOM     13  O   LIG    1       -1.906   7.302  -6.362  0.00  0.00    -0.270 OA
ENDBRANCH   5  13
ENDBRANCH   1  11
BRANCH   2  14
ATOM     14  C   LIG    1       -1.212   3.088  -3.575  0.00  0.00    +0.240 C 
ATOM     15  C   LIG    1       -1.074   1.563  -3.573  0.00  0.00    +0.040 C 
ATOM     16  C   LIG    1       -0.180   1.138  -2.406  0.00  0.00    +0.190 C 
ATOM     17  N   LIG    1       -0.771   1.595  -1.143  0.00  0.00    -0.510 NA
ATOM     18  C   LIG    1       -0.870   3.059  -1.102  0.00  0.00    +0.170 C 
ATOM     19  C   LIG    1       -1.785   3.542  -2.229  0.00  0.00    +0.030 C 
BRANCH  17  20
ATOM     20  C   LIG    1       -0.013   1.086   0.008  0.00  0.00    +0.170 C 
ATOM     21  C   LIG    1       -0.614   1.612   1.332  0.00  0.00    +0.060 C 
ATOM     22  C   LIG    1        0.243   2.871   1.589  0.00  0.00    +0.250 C 
ATOM     23  N   LIG    1        1.513   2.628   0.895  0.00  0.00    -0.620 N 
ATOM     24  C   LIG    1        2.749   3.373   1.148  0.00  0.00    +0.290 C 
ATOM     25  C   LIG    1        1.397   1.635  -0.003  0.00  0.00    +0.490 C 
ATOM     26  O   LIG    1        2.292   1.236  -0.718  0.00  0.00    -0.530 OA
ENDBRANCH  17  20
ENDBRANCH   2  14
TORSDOF 4
