REMARK  Name = ZINCvU000000045W.0
REMARK                            x       y       z     vdW  Elec       q    Type
REMARK                         _______ _______ _______ _____ _____    ______ ____
ROOT
ATOM      1  C   LIG    1       -1.689  -1.696  -0.149  0.00  0.00    +0.520 C 
ATOM      2  N   LIG    1       -1.450  -0.370  -0.156  0.00  0.00    -0.680 N 
ATOM      3  H   LIG    1       -2.190   0.256  -0.196  0.00  0.00    +0.420 HD
ATOM      4  O   LIG    1       -0.772  -2.477  -0.009  0.00  0.00    -0.490 OA
ENDROOT
BRANCH   2   5
ATOM      5  C   LIG    1       -0.133   0.105  -0.105  0.00  0.00    +0.200 A 
ATOM      6  C   LIG    1        0.887  -0.609  -0.713  0.00  0.00    +0.010 A 
ATOM      7  C   LIG    1        2.187  -0.139  -0.661  0.00  0.00    +0.060 A 
ATOM      8  C   LIG    1        2.473   1.043  -0.004  0.00  0.00    -0.010 A 
ATOM      9  C   LIG    1        1.462   1.762   0.605  0.00  0.00    +0.100 A 
ATOM     10  C   LIG    1        0.155   1.298   0.558  0.00  0.00    -0.180 A 
BRANCH  10  11
ATOM     11  S   LIG    1       -1.137   2.216   1.328  0.00  0.00    +0.010 S 
BRANCH  11  12
ATOM     12  C   LIG    1       -1.446   1.305   2.804  0.00  0.00    -0.100 A 
ATOM     13  C   LIG    1       -0.640   0.222   3.135  0.00  0.00    +0.030 A 
ATOM     14  C   LIG    1       -0.881  -0.487   4.295  0.00  0.00    +0.050 A 
ATOM     15  C   LIG    1       -1.931  -0.127   5.122  0.00  0.00    -0.040 A 
ATOM     16  C   LIG    1       -2.739   0.947   4.792  0.00  0.00    +0.050 A 
ATOM     17 CL   LIG    1       -2.236  -1.026   6.576  0.00  0.00    -0.070 Cl
ATOM     18  C   LIG    1       -2.499   1.663   3.636  0.00  0.00    +0.050 A 
ENDBRANCH  11  12
ENDBRANCH  10  11
ENDBRANCH   2   5
BRANCH   1  19
ATOM     19  C   LIG    1       -3.096  -2.209  -0.317  0.00  0.00    +0.220 C 
BRANCH  19  20
ATOM     20  N   LIG    1       -3.090  -3.678  -0.275  0.00  0.00    -0.510 NA
ATOM     21  C   LIG    1       -2.376  -4.234  -1.431  0.00  0.00    +0.210 C 
BRANCH  20  22
ATOM     22  C   LIG    1       -4.458  -4.207  -0.196  0.00  0.00    +0.220 C 
BRANCH  22  25
ATOM     23  N   LIG    1       -5.553  -6.389   0.207  0.00  0.00    -0.680 N 
ATOM     24  H   LIG    1       -6.408  -5.933   0.171  0.00  0.00    +0.410 HD
ATOM     25  C   LIG    1       -4.408  -5.686   0.091  0.00  0.00    +0.510 C 
ATOM     26  O   LIG    1       -3.339  -6.243   0.218  0.00  0.00    -0.490 OA
BRANCH  23  31
ATOM     27  C   LIG    1       -5.367 -12.015   0.908  0.00  0.00    +0.100 C 
ATOM     28  C   LIG    1       -5.417 -10.521   0.722  0.00  0.00    -0.100 A 
ATOM     29  C   LIG    1       -4.443  -9.722   1.294  0.00  0.00    +0.030 A 
ATOM     30  C   LIG    1       -4.486  -8.352   1.125  0.00  0.00    +0.020 A 
ATOM     31  C   LIG    1       -5.507  -7.777   0.380  0.00  0.00    +0.140 A 
ATOM     32  C   LIG    1       -6.485  -8.581  -0.189  0.00  0.00    -0.020 A 
ATOM     33  C   LIG    1       -6.434  -9.951  -0.021  0.00  0.00    +0.030 A 
ENDBRANCH  23  31
ENDBRANCH  22  25
ENDBRANCH  20  22
ENDBRANCH  19  20
ENDBRANCH   1  19
TORSDOF 8
