REMARK  Name = ZINCqH0000039Bfg.0
REMARK                            x       y       z     vdW  Elec       q    Type
REMARK                         _______ _______ _______ _____ _____    ______ ____
ROOT
ATOM      1  O   LIG    1       -0.198  -0.372  -2.477  0.00  0.00    -0.570 OA
ATOM      2  C   LIG    1       -0.232  -0.842  -1.356  0.00  0.00    +0.700 C 
ATOM      3  N   LIG    1        0.395  -2.005  -1.093  0.00  0.00    -0.680 N 
ATOM      4  H   LIG    1        0.425  -2.345  -0.185  0.00  0.00    +0.410 HD
ATOM      5  N   LIG    1       -0.897  -0.198  -0.377  0.00  0.00    -0.740 N 
ATOM      6  H   LIG    1       -0.925  -0.572   0.518  0.00  0.00    +0.400 HD
ENDROOT
BRANCH   3   7
ATOM      7  C   LIG    1        1.001  -2.723  -2.130  0.00  0.00    +0.190 A 
ATOM      8  C   LIG    1        1.588  -2.049  -3.192  0.00  0.00    +0.020 A 
ATOM      9  C   LIG    1        2.191  -2.760  -4.212  0.00  0.00    +0.020 A 
ATOM     10  C   LIG    1        2.200  -4.142  -4.180  0.00  0.00    -0.020 A 
ATOM     11  C   LIG    1        1.612  -4.817  -3.126  0.00  0.00    +0.020 A 
ATOM     12  C   LIG    1        1.013  -4.112  -2.101  0.00  0.00    -0.110 A 
BRANCH  12  13
ATOM     13  C   LIG    1        0.371  -4.848  -0.953  0.00  0.00    +0.230 C 
BRANCH  13  14
ATOM     14  N   LIG    1        1.229  -4.744   0.235  0.00  0.00    -0.550 NA
ATOM     15  C   LIG    1        2.455  -5.528   0.067  0.00  0.00    +0.200 C 
ATOM     16  C   LIG    1        3.508  -5.070   1.082  0.00  0.00    +0.130 C 
ATOM     17  S   LIG    1        2.867  -5.376   2.757  0.00  0.00    -0.270 S 
ATOM     18  C   LIG    1        1.231  -4.583   2.683  0.00  0.00    +0.120 C 
ATOM     19  C   LIG    1        0.492  -5.107   1.448  0.00  0.00    +0.190 C 
ENDBRANCH  13  14
ENDBRANCH  12  13
ENDBRANCH   3   7
BRANCH   5  20
ATOM     20  C   LIG    1       -1.579   1.067  -0.662  0.00  0.00    +0.280 C 
BRANCH  20  21
ATOM     21  C   LIG    1       -2.251   1.584   0.611  0.00  0.00    +0.070 C 
BRANCH  21  22
ATOM     22  C   LIG    1       -2.952   2.885   0.317  0.00  0.00    -0.100 A 
ATOM     23  C   LIG    1       -2.278   4.082   0.470  0.00  0.00    +0.050 A 
ATOM     24  C   LIG    1       -2.918   5.276   0.195  0.00  0.00    -0.010 A 
ATOM     25  C   LIG    1       -4.238   5.273  -0.222  0.00  0.00    +0.100 A 
ATOM     26  C   LIG    1       -4.914   4.074  -0.369  0.00  0.00    -0.010 A 
ATOM     27  F   LIG    1       -4.867   6.440  -0.485  0.00  0.00    -0.140 F 
ATOM     28  C   LIG    1       -4.270   2.881  -0.100  0.00  0.00    +0.050 A 
ENDBRANCH  21  22
ENDBRANCH  20  21
ENDBRANCH   5  20
TORSDOF 6
