REMARK  Name = ZINCvU00000007QV.0
REMARK                            x       y       z     vdW  Elec       q    Type
REMARK                         _______ _______ _______ _____ _____    ______ ____
ROOT
ATOM      1  C   LIG    1       -5.971  10.011  -0.968  0.00  0.00    +0.560 C 
ATOM      2  O   LIG    1       -6.068  10.146  -2.173  0.00  0.00    -0.480 OA
ENDROOT
BRANCH   1   3
ATOM      3  C   LIG    1       -6.617  10.969  -0.070  0.00  0.00    -0.060 A 
ATOM      4  C   LIG    1       -7.356  12.068  -0.454  0.00  0.00    +0.080 A 
ATOM      5  C   LIG    1       -7.782  12.697   0.720  0.00  0.00    -0.030 A 
ATOM      6  C   LIG    1       -7.287  11.973   1.766  0.00  0.00    +0.080 A 
ATOM      7  O   LIG    1       -6.587  10.935   1.280  0.00  0.00    -0.140 OA
BRANCH   6   8
ATOM      8  C   LIG    1       -7.489  12.280   3.197  0.00  0.00    -0.030 A 
ATOM      9  C   LIG    1       -8.241  13.393   3.576  0.00  0.00    +0.080 A 
ATOM     10  C   LIG    1       -8.425  13.674   4.914  0.00  0.00    +0.040 A 
ATOM     11  C   LIG    1       -7.867  12.855   5.880  0.00  0.00    +0.090 A 
ATOM     12  C   LIG    1       -7.121  11.749   5.511  0.00  0.00    -0.180 A 
ATOM     13  C   LIG    1       -6.932  11.454   4.177  0.00  0.00    +0.100 A 
BRANCH  12  14
ATOM     14  C   LIG    1       -6.518  10.862   6.569  0.00  0.00    +0.510 C 
ATOM     15  F   LIG    1       -5.126  10.843   6.424  0.00  0.00    -0.170 F 
ATOM     16  F   LIG    1       -7.019   9.563   6.431  0.00  0.00    -0.170 F 
ATOM     17  F   LIG    1       -6.848  11.357   7.836  0.00  0.00    -0.170 F 
ENDBRANCH  12  14
ENDBRANCH   6   8
ENDBRANCH   1   3
BRANCH   1  18
ATOM     18  O   LIG    1       -5.269   8.977  -0.459  0.00  0.00    -0.320 OA
BRANCH  18  19
ATOM     19  C   LIG    1       -4.666   8.080  -1.394  0.00  0.00    +0.270 C 
BRANCH  19  21
ATOM     20  O   LIG    1       -3.922   6.994   0.564  0.00  0.00    -0.490 OA
ATOM     21  C   LIG    1       -3.930   6.997  -0.648  0.00  0.00    +0.510 C 
ATOM     22  N   LIG    1       -3.279   6.032  -1.329  0.00  0.00    -0.670 N 
ATOM     23  H   LIG    1       -3.220   6.077  -2.296  0.00  0.00    +0.410 HD
BRANCH  22  24
ATOM     24  C   LIG    1       -2.689   4.967  -0.641  0.00  0.00    +0.140 A 
ATOM     25  C   LIG    1       -3.271   4.482   0.523  0.00  0.00    +0.020 A 
ATOM     26  C   LIG    1       -2.684   3.431   1.198  0.00  0.00    +0.040 A 
ATOM     27  C   LIG    1       -1.518   2.857   0.721  0.00  0.00    -0.110 A 
ATOM     28  C   LIG    1       -0.691   1.712   1.275  0.00  0.00    +0.080 C 
ATOM     29  C   LIG    1        0.678   1.831   0.572  0.00  0.00    +0.030 C 
ATOM     30  C   LIG    1        0.319   2.549  -0.746  0.00  0.00    +0.080 C 
ATOM     31  C   LIG    1       -0.936   3.338  -0.439  0.00  0.00    -0.080 A 
ATOM     32  C   LIG    1       -1.520   4.391  -1.119  0.00  0.00    -0.010 A 
ENDBRANCH  22  24
ENDBRANCH  19  21
ENDBRANCH  18  19
ENDBRANCH   1  18
TORSDOF 7
