REMARK  Name = ZINCrD00000jPGIz.0
REMARK                            x       y       z     vdW  Elec       q    Type
REMARK                         _______ _______ _______ _____ _____    ______ ____
ROOT
ATOM      1  O   LIG    1       -5.210   2.829   1.410  0.00  0.00    -0.490 OA
ATOM      2  C   LIG    1       -5.452   1.643   1.480  0.00  0.00    +0.520 C 
ATOM      3  C   LIG    1       -6.880   1.170   1.580  0.00  0.00    +0.100 C 
ATOM      4  C   LIG    1       -7.023  -0.164   0.843  0.00  0.00    +0.300 C 
ATOM      5  N   LIG    1       -5.926  -1.054   1.225  0.00  0.00    -0.720 N 
ATOM      6  H   LIG    1       -6.090  -2.007   1.309  0.00  0.00    +0.430 HD
ATOM      7  C   LIG    1       -4.695  -0.572   1.460  0.00  0.00    +0.710 C 
ATOM      8  O   LIG    1       -3.784  -1.348   1.674  0.00  0.00    -0.550 OA
ATOM      9  N   LIG    1       -4.447   0.749   1.466  0.00  0.00    -0.570 N 
ENDROOT
BRANCH   4  10
ATOM     10  C   LIG    1       -6.979   0.077  -0.644  0.00  0.00    -0.120 A 
ATOM     11  C   LIG    1       -5.763   0.264  -1.277  0.00  0.00    +0.010 A 
ATOM     12  C   LIG    1       -5.717   0.480  -2.639  0.00  0.00    +0.020 A 
ATOM     13  C   LIG    1       -6.899   0.522  -3.376  0.00  0.00    -0.030 A 
ATOM     14  C   LIG    1       -8.122   0.339  -2.733  0.00  0.00    +0.020 A 
ATOM     15  C   LIG    1       -8.156   0.118  -1.371  0.00  0.00    +0.030 A 
BRANCH  13  16
ATOM     16  C   LIG    1       -6.856   0.760  -4.840  0.00  0.00    -0.050 A 
ATOM     17  C   LIG    1       -8.038   0.796  -5.577  0.00  0.00    +0.020 A 
ATOM     18  C   LIG    1       -7.992   1.023  -6.938  0.00  0.00    +0.010 A 
ATOM     19  C   LIG    1       -6.776   1.204  -7.571  0.00  0.00    +0.000 A 
ATOM     20  C   LIG    1       -5.600   1.164  -6.845  0.00  0.00    +0.010 A 
ATOM     21  C   LIG    1       -5.634   0.943  -5.483  0.00  0.00    +0.010 A 
ENDBRANCH  13  16
ENDBRANCH   4  10
BRANCH   9  22
ATOM     22  C   LIG    1       -3.060   1.222   1.464  0.00  0.00    +0.310 C 
BRANCH  22  23
ATOM     23  C   LIG    1       -2.583   1.394   0.020  0.00  0.00    +0.090 C 
BRANCH  23  24
ATOM     24  C   LIG    1       -1.157   1.881   0.017  0.00  0.00    -0.240 A 
ATOM     25  C   LIG    1       -0.756   3.173   0.025  0.00  0.00    +0.250 A 
ATOM     26  N   LIG    1        0.593   3.186   0.013  0.00  0.00    -0.480 N 
ATOM     27  H   LIG    1        1.156   3.976   0.012  0.00  0.00    +0.440 HD
ATOM     28  N   LIG    1        1.037   1.857   0.002  0.00  0.00    -0.290 NA
ATOM     29  C   LIG    1       -0.013   1.076   0.008  0.00  0.00    +0.240 A 
ENDBRANCH  23  24
ENDBRANCH  22  23
ENDBRANCH   9  22
TORSDOF 5
