REMARK  Name = ZINCtV00001bB3Be.0
REMARK                            x       y       z     vdW  Elec       q    Type
REMARK                         _______ _______ _______ _____ _____    ______ ____
ROOT
ATOM      1  C   LIG    1        2.004  -4.350   1.099  0.00  0.00    -0.180 A 
ATOM      2  C   LIG    1        2.351  -3.144   1.642  0.00  0.00    +0.290 A 
ATOM      3  N   LIG    1        1.216  -2.504   1.997  0.00  0.00    -0.320 N 
ATOM      4  N   LIG    1        0.113  -3.299   1.672  0.00  0.00    -0.270 NA
ATOM      5  C   LIG    1        0.541  -4.419   1.130  0.00  0.00    +0.150 A 
ENDROOT
BRANCH   3   6
ATOM      6  C   LIG    1        1.153  -1.238   2.592  0.00  0.00    +0.150 A 
ATOM      7  C   LIG    1       -0.077  -0.677   2.908  0.00  0.00    +0.020 A 
ATOM      8  C   LIG    1       -0.135   0.572   3.495  0.00  0.00    +0.040 A 
ATOM      9  C   LIG    1        1.030   1.264   3.768  0.00  0.00    +0.000 A 
ATOM     10  C   LIG    1        2.257   0.708   3.455  0.00  0.00    +0.040 A 
ATOM     11  C   LIG    1        2.322  -0.540   2.868  0.00  0.00    -0.010 A 
ENDBRANCH   3   6
BRANCH   5  12
ATOM     12  C   LIG    1       -0.299  -5.540   0.642  0.00  0.00    -0.020 A 
ATOM     13  C   LIG    1        0.014  -6.178  -0.556  0.00  0.00    +0.030 A 
ATOM     14  C   LIG    1       -0.767  -7.225  -1.002  0.00  0.00    +0.010 A 
ATOM     15  C   LIG    1       -1.867  -7.632  -0.268  0.00  0.00    +0.020 A 
ATOM     16  C   LIG    1       -2.186  -6.998   0.919  0.00  0.00    +0.010 A 
ATOM     17  C   LIG    1       -1.408  -5.954   1.378  0.00  0.00    +0.040 A 
ENDBRANCH   5  12
BRANCH   1  19
ATOM     18  N   LIG    1        4.207  -5.219   0.692  0.00  0.00    -0.230 NA
ATOM     19  C   LIG    1        2.923  -5.378   0.578  0.00  0.00    +0.260 C 
BRANCH  18  20
ATOM     20  N   LIG    1        5.082  -6.145   0.109  0.00  0.00    -0.590 N 
ATOM     21  H   LIG    1        4.731  -6.942  -0.318  0.00  0.00    +0.390 HD
BRANCH  20  26
ATOM     22 CL   LIG    1       10.905  -5.196   0.252  0.00  0.00    -0.050 Cl
ATOM     23  C   LIG    1        9.192  -5.476   0.210  0.00  0.00    -0.050 A 
ATOM     24  C   LIG    1        8.700  -6.765   0.313  0.00  0.00    +0.090 A 
ATOM     25  C   LIG    1        7.337  -6.991   0.281  0.00  0.00    -0.070 A 
ATOM     26  C   LIG    1        6.460  -5.921   0.143  0.00  0.00    +0.240 A 
ATOM     27  C   LIG    1        6.958  -4.627   0.034  0.00  0.00    -0.050 A 
ATOM     28 CL   LIG    1        5.868  -3.288  -0.145  0.00  0.00    -0.030 Cl
ATOM     29 CL   LIG    1        6.721  -8.608   0.412  0.00  0.00    -0.040 Cl
ATOM     30  C   LIG    1        8.322  -4.408   0.073  0.00  0.00    +0.080 A 
ENDBRANCH  20  26
ENDBRANCH  18  20
ENDBRANCH   1  19
TORSDOF 5
