REMARK  Name = ZINCtV00001bB3Be.1
REMARK                            x       y       z     vdW  Elec       q    Type
REMARK                         _______ _______ _______ _____ _____    ______ ____
ROOT
ATOM      1  C   LIG    1        1.983  -4.163   0.043  0.00  0.00    -0.200 A 
ATOM      2  C   LIG    1        2.351  -2.865   0.118  0.00  0.00    +0.260 A 
ATOM      3  N   LIG    1        1.224  -2.108   0.057  0.00  0.00    -0.320 N 
ATOM      4  N   LIG    1        0.129  -2.972  -0.069  0.00  0.00    -0.270 NA
ATOM      5  C   LIG    1        0.580  -4.209  -0.078  0.00  0.00    +0.140 A 
ENDROOT
BRANCH   3   6
ATOM      6  C   LIG    1        1.169  -0.709   0.106  0.00  0.00    +0.160 A 
ATOM      7  C   LIG    1       -0.055  -0.058   0.028  0.00  0.00    +0.020 A 
ATOM      8  C   LIG    1       -0.107   1.321   0.077  0.00  0.00    +0.040 A 
ATOM      9  C   LIG    1        1.059   2.054   0.204  0.00  0.00    +0.000 A 
ATOM     10  C   LIG    1        2.279   1.409   0.283  0.00  0.00    +0.040 A 
ATOM     11  C   LIG    1        2.337   0.029   0.234  0.00  0.00    -0.010 A 
ENDBRANCH   3   6
BRANCH   5  12
ATOM     12  C   LIG    1       -0.245  -5.436  -0.195  0.00  0.00    -0.020 A 
ATOM     13  C   LIG    1        0.168  -6.480  -1.021  0.00  0.00    +0.030 A 
ATOM     14  C   LIG    1       -0.601  -7.622  -1.122  0.00  0.00    +0.000 A 
ATOM     15  C   LIG    1       -1.785  -7.727  -0.414  0.00  0.00    +0.020 A 
ATOM     16  C   LIG    1       -2.202  -6.691   0.403  0.00  0.00    +0.010 A 
ATOM     17  C   LIG    1       -1.438  -5.547   0.516  0.00  0.00    +0.040 A 
ENDBRANCH   5  12
BRANCH   1  18
ATOM     18  C   LIG    1        2.909  -5.351   0.076  0.00  0.00    +0.300 C 
BRANCH  18  20
ATOM     19  N   LIG    1        3.813  -6.850  -1.484  0.00  0.00    -0.200 NA
ATOM     20  N   LIG    1        3.151  -5.820  -1.290  0.00  0.00    -0.190 NA
BRANCH  19  25
ATOM     21 CL   LIG    1        4.439  -8.959  -6.933  0.00  0.00    -0.030 Cl
ATOM     22  C   LIG    1        4.254  -8.336  -5.324  0.00  0.00    +0.010 A 
ATOM     23  C   LIG    1        4.755  -9.049  -4.247  0.00  0.00    +0.060 A 
ATOM     24  C   LIG    1        4.612  -8.559  -2.964  0.00  0.00    +0.040 A 
ATOM     25  C   LIG    1        3.959  -7.341  -2.753  0.00  0.00    +0.060 A 
ATOM     26  C   LIG    1        3.451  -6.630  -3.844  0.00  0.00    -0.010 A 
ATOM     27 CL   LIG    1        2.632  -5.120  -3.593  0.00  0.00    +0.010 Cl
ATOM     28 CL   LIG    1        5.242  -9.454  -1.617  0.00  0.00    -0.020 Cl
ATOM     29  C   LIG    1        3.606  -7.129  -5.122  0.00  0.00    +0.050 A 
ENDBRANCH  19  25
ENDBRANCH  18  20
ENDBRANCH   1  18
TORSDOF 5
