REMARK  Name = ZINCrD000000fv12.0
REMARK                            x       y       z     vdW  Elec       q    Type
REMARK                         _______ _______ _______ _____ _____    ______ ____
ROOT
ATOM      1  N   LIG    1        1.335  -0.392   0.219  0.00  0.00    -0.460 N 
ATOM      2  C   LIG    1        2.064   0.762   0.162  0.00  0.00    +0.140 A 
ATOM      3  N   LIG    1        1.216   1.758   0.279  0.00  0.00    -0.260 NA
ATOM      4  N   LIG    1        0.021   1.302   0.404  0.00  0.00    -0.270 NA
ATOM      5  C   LIG    1        0.034  -0.001   0.375  0.00  0.00    +0.200 A 
ENDROOT
BRANCH   5   6
ATOM      6  C   LIG    1       -1.163  -0.908   0.490  0.00  0.00    +0.080 C 
ATOM      7  C   LIG    1       -2.139  -0.613  -0.651  0.00  0.00    +0.030 C 
ATOM      8  C   LIG    1       -3.354  -1.535  -0.534  0.00  0.00    +0.010 C 
ATOM      9  C   LIG    1       -4.050  -1.294   0.807  0.00  0.00    +0.010 C 
ATOM     10  C   LIG    1       -3.074  -1.589   1.948  0.00  0.00    +0.010 C 
ATOM     11  C   LIG    1       -1.859  -0.667   1.831  0.00  0.00    +0.030 C 
ENDBRANCH   5   6
BRANCH   1  12
ATOM     12  C   LIG    1        1.843  -1.763   0.132  0.00  0.00    +0.340 C 
BRANCH  12  14
ATOM     13  C   LIG    1        2.966  -2.647  -1.847  0.00  0.00    +0.070 C 
ATOM     14  C   LIG    1        1.857  -2.203  -1.309  0.00  0.00    -0.070 C 
ENDBRANCH  12  14
ENDBRANCH   1  12
BRANCH   2  15
ATOM     15  S   LIG    1        3.810   0.890  -0.034  0.00  0.00    +0.020 S 
BRANCH  15  16
ATOM     16  C   LIG    1        3.980   2.686  -0.177  0.00  0.00    +0.430 C 
BRANCH  16  17
ATOM     17  N   LIG    1        3.554   3.112  -1.513  0.00  0.00    -0.460 N 
ATOM     18  N   LIG    1        2.247   3.562  -1.718  0.00  0.00    +0.120 NA
ATOM     19  N   LIG    1        1.813   3.948  -2.863  0.00  0.00    -0.200 NA
ATOM     20  C   LIG    1        2.601   3.947  -3.967  0.00  0.00    +0.060 A 
ATOM     21  C   LIG    1        2.116   4.371  -5.206  0.00  0.00    +0.080 A 
ATOM     22  C   LIG    1        2.945   4.357  -6.306  0.00  0.00    +0.060 A 
ATOM     23  C   LIG    1        4.260   3.926  -6.199  0.00  0.00    +0.040 A 
ATOM     24  C   LIG    1        4.762   3.503  -4.987  0.00  0.00    +0.100 A 
ATOM     25  C   LIG    1        3.940   3.510  -3.862  0.00  0.00    -0.150 A 
ATOM     26  C   LIG    1        4.429   3.075  -2.545  0.00  0.00    +0.530 A 
ATOM     27  O   LIG    1        5.574   2.692  -2.390  0.00  0.00    -0.500 OA
ENDBRANCH  16  17
ENDBRANCH  15  16
ENDBRANCH   2  15
TORSDOF 6
