REMARK  Name = ZINCrH000004mRic.0
REMARK                            x       y       z     vdW  Elec       q    Type
REMARK                         _______ _______ _______ _____ _____    ______ ____
ROOT
ATOM      1  C   LIG    1       -0.023   1.409  -0.151  0.00  0.00    -0.160 A 
ATOM      2  C   LIG    1        0.018   0.025   0.018  0.00  0.00    +0.110 A 
ATOM      3  C   LIG    1        1.232  -0.633   0.007  0.00  0.00    +0.000 A 
ATOM      4  C   LIG    1        2.405   0.077  -0.171  0.00  0.00    +0.160 A 
ATOM      5  C   LIG    1        2.371   1.450  -0.339  0.00  0.00    -0.680 A 
ATOM      6  C   LIG    1        1.165   2.120  -0.331  0.00  0.00    +0.190 A 
ENDROOT
BRANCH   1   9
ATOM      7  N   LIG    1       -2.465   1.430   0.021  0.00  0.00    -0.670 N 
ATOM      8  H   LIG    1       -2.446   0.461   0.063  0.00  0.00    +0.410 HD
ATOM      9  C   LIG    1       -1.319   2.119  -0.147  0.00  0.00    +0.560 C 
ATOM     10  O   LIG    1       -1.352   3.326  -0.295  0.00  0.00    -0.510 OA
BRANCH   7  14
ATOM     11  C   LIG    1       -6.091   3.460   0.364  0.00  0.00    +0.130 A 
ATOM     12  C   LIG    1       -6.048   2.216  -0.248  0.00  0.00    -0.040 A 
ATOM     13  C   LIG    1       -4.847   1.543  -0.362  0.00  0.00    +0.040 A 
ATOM     14  C   LIG    1       -3.682   2.112   0.137  0.00  0.00    +0.120 A 
ATOM     15  C   LIG    1       -3.726   3.355   0.755  0.00  0.00    +0.080 A 
ATOM     16  C   LIG    1       -4.927   4.029   0.863  0.00  0.00    -0.050 A 
ATOM     17 CL   LIG    1       -4.982   5.586   1.630  0.00  0.00    -0.050 Cl
BRANCH  11  19
ATOM     18  C   LIG    1       -8.431   3.476  -0.059  0.00  0.00    +0.240 C 
ATOM     19  O   LIG    1       -7.274   4.121   0.476  0.00  0.00    -0.300 OA
ENDBRANCH  11  19
ENDBRANCH   7  14
ENDBRANCH   1   9
BRANCH   5  20
ATOM     20  S   LIG    1        3.872   2.346  -0.565  0.00  0.00    +2.690 S 
ATOM     21  O   LIG    1        4.903   1.551   0.006  0.00  0.00    -0.950 OA
ATOM     22  O   LIG    1        3.607   3.682  -0.161  0.00  0.00    -0.950 OA
BRANCH  20  23
ATOM     23  N   LIG    1        4.171   2.400  -2.193  0.00  0.00    -0.990 NA
ATOM     24  C   LIG    1        4.966   1.350  -2.843  0.00  0.00    +0.290 C 
ATOM     25  C   LIG    1        4.157   0.782  -4.020  0.00  0.00    +0.010 C 
ATOM     26  C   LIG    1        3.748   1.927  -4.949  0.00  0.00    +0.020 C 
ATOM     27  C   LIG    1        2.861   2.913  -4.186  0.00  0.00    +0.010 C 
ATOM     28  C   LIG    1        3.650   3.502  -3.013  0.00  0.00    +0.290 C 
ENDBRANCH  20  23
ENDBRANCH   5  20
TORSDOF 5
