REMARK  Name = ZINCpe00000FU84k.0
REMARK                            x       y       z     vdW  Elec       q    Type
REMARK                         _______ _______ _______ _____ _____    ______ ____
ROOT
ATOM      1  C   LIG    1       -2.522   4.254  -1.115  0.00  0.00    +0.520 C 
ATOM      2  N   LIG    1       -3.435   5.228  -1.303  0.00  0.00    -0.620 N 
ATOM      3  C   LIG    1       -3.599   6.422  -0.461  0.00  0.00    +0.250 C 
ATOM      4  C   LIG    1       -4.778   7.232  -1.041  0.00  0.00    +0.060 C 
ATOM      5  C   LIG    1       -5.574   6.166  -1.839  0.00  0.00    +0.060 C 
ATOM      6  C   LIG    1       -4.429   5.275  -2.390  0.00  0.00    +0.360 C 
ATOM      7  O   LIG    1       -2.476   3.311  -1.876  0.00  0.00    -0.490 OA
ENDROOT
BRANCH   6   8
ATOM      8  C   LIG    1       -4.943   3.890  -2.691  0.00  0.00    +0.190 A 
ATOM      9  N   LIG    1       -5.111   3.365  -3.879  0.00  0.00    -0.430 NA
ATOM     10  C   LIG    1       -5.583   2.116  -3.660  0.00  0.00    +0.140 A 
ATOM     11  N   LIG    1       -5.680   1.962  -2.366  0.00  0.00    -0.340 NA
ATOM     12  O   LIG    1       -5.317   2.970  -1.797  0.00  0.00    +0.110 OA
BRANCH  10  13
ATOM     13  C   LIG    1       -5.931   1.111  -4.696  0.00  0.00    +0.620 C 
ATOM     14  N   LIG    1       -6.398  -0.099  -4.330  0.00  0.00    -0.680 N 
ATOM     15  H   LIG    1       -6.508  -0.313  -3.391  0.00  0.00    +0.410 HD
ATOM     16  O   LIG    1       -5.794   1.380  -5.872  0.00  0.00    -0.490 OA
BRANCH  14  17
ATOM     17  C   LIG    1       -6.742  -1.090  -5.353  0.00  0.00    +0.210 C 
ATOM     18  C   LIG    1       -8.044  -1.873  -5.169  0.00  0.00    +0.020 C 
ATOM     19  C   LIG    1       -6.698  -2.565  -4.949  0.00  0.00    +0.030 C 
ENDBRANCH  14  17
ENDBRANCH  10  13
ENDBRANCH   6   8
BRANCH   1  20
ATOM     20  C   LIG    1       -1.558   4.338   0.040  0.00  0.00    +0.380 C 
BRANCH  20  24
ATOM     21  C   LIG    1        2.548   1.464  -0.015  0.00  0.00    +0.110 C 
ATOM     22  C   LIG    1        1.109   1.911   0.002  0.00  0.00    -0.230 A 
ATOM     23  C   LIG    1        0.674   3.192   0.013  0.00  0.00    +0.220 A 
ATOM     24  N   LIG    1       -0.675   3.169   0.025  0.00  0.00    -0.370 N 
ATOM     25  N   LIG    1       -1.083   1.829   0.017  0.00  0.00    -0.270 NA
ATOM     26  C   LIG    1       -0.013   1.076   0.008  0.00  0.00    +0.230 A 
ENDBRANCH  20  24
ENDBRANCH   1  20
TORSDOF 5
