REMARK  Name = ZINCrg000000tigV.0
REMARK                            x       y       z     vdW  Elec       q    Type
REMARK                         _______ _______ _______ _____ _____    ______ ____
ROOT
ATOM      1  C   LIG    1       -3.376   5.188   2.029  0.00  0.00    +0.520 C 
ATOM      2  N   LIG    1       -3.810   4.441   0.995  0.00  0.00    -0.600 N 
ATOM      3  H   LIG    1       -4.697   4.585   0.631  0.00  0.00    +0.430 HD
ATOM      4  O   LIG    1       -2.266   5.006   2.485  0.00  0.00    -0.490 OA
ENDROOT
BRANCH   2   5
ATOM      5  C   LIG    1       -2.983   3.460   0.449  0.00  0.00    +0.240 A 
ATOM      6  N   LIG    1       -3.267   2.663  -0.550  0.00  0.00    -0.370 NA
ATOM      7  O   LIG    1       -2.352   1.915  -0.801  0.00  0.00    +0.130 OA
ATOM      8  C   LIG    1       -1.305   2.118   0.020  0.00  0.00    +0.020 A 
ATOM      9  C   LIG    1       -1.673   3.124   0.868  0.00  0.00    +0.000 A 
BRANCH   8  10
ATOM     10  C   LIG    1       -0.017   1.393   0.010  0.00  0.00    -0.020 A 
ATOM     11  C   LIG    1        1.186   2.100   0.002  0.00  0.00    +0.070 A 
ATOM     12  C   LIG    1        2.385   1.418  -0.012  0.00  0.00    +0.030 A 
ATOM     13  C   LIG    1        2.397   0.034  -0.020  0.00  0.00    +0.050 A 
ATOM     14  C   LIG    1        1.209  -0.674  -0.013  0.00  0.00    +0.030 A 
ATOM     15  C   LIG    1        0.002  -0.004   0.002  0.00  0.00    -0.010 A 
ATOM     16 CL   LIG    1       -1.488  -0.895   0.011  0.00  0.00    -0.050 Cl
ENDBRANCH   8  10
ENDBRANCH   2   5
BRANCH   1  18
ATOM     17  O   LIG    1       -5.372   6.420   2.159  0.00  0.00    -0.500 OA
ATOM     18  C   LIG    1       -4.261   6.239   2.615  0.00  0.00    +0.520 C 
ATOM     19  N   LIG    1       -3.827   6.986   3.649  0.00  0.00    -0.690 N 
ATOM     20  H   LIG    1       -2.940   6.841   4.013  0.00  0.00    +0.420 HD
BRANCH  19  21
ATOM     21  C   LIG    1       -4.696   8.016   4.224  0.00  0.00    +0.260 C 
BRANCH  21  22
ATOM     22  C   LIG    1       -3.968   8.713   5.375  0.00  0.00    +0.330 C 
BRANCH  22  23
ATOM     23  N   LIG    1       -4.837   9.743   5.950  0.00  0.00    -0.990 NA
ATOM     24  C   LIG    1       -4.982  11.126   5.470  0.00  0.00    +0.260 C 
ATOM     25  C   LIG    1       -6.397  11.649   5.791  0.00  0.00    +0.080 C 
ATOM     26  C   LIG    1       -6.638  11.217   7.267  0.00  0.00    -0.320 C 
ATOM     27  S   LIG    1       -5.838   9.566   7.274  0.00  0.00    +2.570 S 
ATOM     28  O   LIG    1       -4.963   9.423   8.385  0.00  0.00    -0.950 OA
ATOM     29  O   LIG    1       -6.759   8.547   6.910  0.00  0.00    -0.950 OA
ENDBRANCH  22  23
ENDBRANCH  21  22
ENDBRANCH  19  21
ENDBRANCH   1  18
TORSDOF 6
