REMARK  Name = ZINCyk00000008cS.0
REMARK                            x       y       z     vdW  Elec       q    Type
REMARK                         _______ _______ _______ _____ _____    ______ ____
ROOT
ATOM      1  C   LIG    1        2.472  -5.366  -0.888  0.00  0.00    +0.630 C 
ATOM      2  N   LIG    1        2.018  -6.591  -0.557  0.00  0.00    -0.610 N 
ATOM      3  C   LIG    1        0.844  -6.871   0.282  0.00  0.00    +0.270 C 
ATOM      4  C   LIG    1        0.726  -8.405   0.407  0.00  0.00    +0.040 C 
ATOM      5  C   LIG    1        2.166  -8.891   0.099  0.00  0.00    -0.030 C 
ATOM      6  C   LIG    1        2.611  -7.871  -0.983  0.00  0.00    +0.270 C 
ATOM      7  O   LIG    1        3.457  -5.252  -1.592  0.00  0.00    -0.540 OA
ENDROOT
BRANCH   1  10
ATOM      8  C   LIG    1        3.292  -2.411  -1.502  0.00  0.00    +0.190 C 
ATOM      9  C   LIG    1        2.129  -2.870  -0.661  0.00  0.00    +0.140 A 
ATOM     10  C   LIG    1        1.775  -4.163  -0.395  0.00  0.00    -0.110 A 
ATOM     11  N   LIG    1        0.681  -4.153   0.386  0.00  0.00    -0.190 NA
ATOM     12  N   LIG    1        0.334  -2.937   0.627  0.00  0.00    -0.050 NA
ATOM     13  N   LIG    1        1.237  -2.082  -0.021  0.00  0.00    -0.310 N 
BRANCH  13  14
ATOM     14  C   LIG    1        1.214  -0.680  -0.013  0.00  0.00    +0.140 A 
ATOM     15  C   LIG    1        2.405   0.034  -0.021  0.00  0.00    +0.030 A 
ATOM     16  C   LIG    1        2.380   1.416  -0.013  0.00  0.00    +0.070 A 
ATOM     17  C   LIG    1        1.172   2.087   0.002  0.00  0.00    +0.060 A 
ATOM     18  C   LIG    1       -0.017   1.378   0.010  0.00  0.00    -0.020 A 
ATOM     19 CL   LIG    1       -1.532   2.225   0.021  0.00  0.00    -0.040 Cl
ATOM     20  C   LIG    1        0.002  -0.004   0.002  0.00  0.00    +0.060 A 
ENDBRANCH  13  14
ENDBRANCH   1  10
BRANCH   5  21
ATOM     21  C   LIG    1        2.157 -10.314  -0.464  0.00  0.00    +0.320 C 
BRANCH  21  22
ATOM     22  N   LIG    1        3.535 -10.782  -0.630  0.00  0.00    -0.600 N 
ATOM     23  C   LIG    1        4.183 -10.569  -1.792  0.00  0.00    +0.530 C 
ATOM     24  O   LIG    1        3.626  -9.989  -2.700  0.00  0.00    -0.510 OA
ATOM     25  C   LIG    1        4.208 -11.482   0.466  0.00  0.00    +0.290 C 
BRANCH  23  26
ATOM     26  C   LIG    1        5.601 -11.051  -1.964  0.00  0.00    -0.020 C 
ATOM     27  C   LIG    1        5.647 -12.569  -1.788  0.00  0.00    +0.340 C 
ATOM     28  N   LIG    1        7.008 -13.074  -2.000  0.00  0.00    -0.610 NA
ATOM     29  C   LIG    1        7.788 -12.464  -2.853  0.00  0.00    +0.620 C 
ATOM     30  N   LIG    1        9.048 -12.759  -3.236  0.00  0.00    -0.520 NA
ATOM     31  C   LIG    1        9.453 -11.902  -4.136  0.00  0.00    +0.690 C 
ATOM     32  N   LIG    1        8.466 -10.994  -4.382  0.00  0.00    -0.450 N 
ATOM     33  H   LIG    1        8.499 -10.258  -5.013  0.00  0.00    +0.480 HD
ATOM     34  N   LIG    1        7.400 -11.329  -3.551  0.00  0.00    -0.400 NA
ATOM     35  H   LIG    1        7.325 -13.852  -1.514  0.00  0.00    +0.460 HD
ATOM     36  C   LIG    1        6.102 -10.679  -3.369  0.00  0.00    +0.400 C 
ENDBRANCH  23  26
ENDBRANCH  21  22
ENDBRANCH   5  21
TORSDOF 5
