REMARK  Name = ZINCpe00000ziCu5.0
REMARK                            x       y       z     vdW  Elec       q    Type
REMARK                         _______ _______ _______ _____ _____    ______ ____
ROOT
ATOM      1  C   LIG    1       -0.013   1.086   0.008  0.00  0.00    +0.030 C 
ENDROOT
BRANCH   1   2
ATOM      2  C   LIG    1       -0.729   1.579   1.267  0.00  0.00    +0.010 C 
BRANCH   2   3
ATOM      3  C   LIG    1        0.011   1.072   2.506  0.00  0.00    +0.260 C 
BRANCH   3   5
ATOM      4  C   LIG    1       -0.198   1.219   4.929  0.00  0.00    +0.590 C 
ATOM      5  N   LIG    1       -0.675   1.545   3.712  0.00  0.00    -0.730 N 
ATOM      6  H   LIG    1       -1.472   2.092   3.633  0.00  0.00    +0.400 HD
ATOM      7  O   LIG    1        0.801   0.532   5.028  0.00  0.00    -0.510 OA
BRANCH   4  11
ATOM      8  C   LIG    1       -2.351   2.701   7.913  0.00  0.00    -0.120 A 
ATOM      9  C   LIG    1       -1.293   1.976   8.387  0.00  0.00    +0.090 A 
ATOM     10  C   LIG    1       -0.499   1.422   7.421  0.00  0.00    +0.110 A 
ATOM     11  C   LIG    1       -0.886   1.693   6.139  0.00  0.00    -0.230 A 
ATOM     12  S   LIG    1       -2.336   2.688   6.154  0.00  0.00    +0.230 S 
BRANCH   8  14
ATOM     13  N   LIG    1       -4.093   3.900   9.368  0.00  0.00    -0.380 NA
ATOM     14  C   LIG    1       -3.322   3.370   8.724  0.00  0.00    +0.270 C 
ENDBRANCH   8  14
ENDBRANCH   4  11
ENDBRANCH   3   5
ENDBRANCH   2   3
ENDBRANCH   1   2
BRANCH   1  15
ATOM     15  C   LIG    1       -0.753   1.593  -1.232  0.00  0.00    +0.010 C 
BRANCH  15  16
ATOM     16  C   LIG    1       -0.037   1.099  -2.490  0.00  0.00    +0.260 C 
BRANCH  16  17
ATOM     17  N   LIG    1       -0.745   1.585  -3.677  0.00  0.00    -0.720 N 
ATOM     18  H   LIG    1       -1.540   2.131  -3.578  0.00  0.00    +0.400 HD
ATOM     19  C   LIG    1       -0.292   1.272  -4.907  0.00  0.00    +0.500 C 
ATOM     20  O   LIG    1        0.702   0.589  -5.032  0.00  0.00    -0.520 OA
BRANCH  19  21
ATOM     21  C   LIG    1       -1.021   1.771  -6.128  0.00  0.00    +0.240 C 
ATOM     22  C   LIG    1       -2.234   0.876  -6.380  0.00  0.00    +0.130 C 
ATOM     23  S   LIG    1       -2.972   1.354  -7.975  0.00  0.00    -0.210 S 
ATOM     24  C   LIG    1       -1.599   1.011  -9.117  0.00  0.00    +0.170 C 
ATOM     25  C   LIG    1       -0.323   1.529  -8.520  0.00  0.00    +0.530 C 
ATOM     26  O   LIG    1        0.597   1.730  -9.285  0.00  0.00    -0.530 OA
ATOM     27  N   LIG    1       -0.105   1.787  -7.247  0.00  0.00    -0.700 N 
ATOM     28  H   LIG    1        0.810   2.022  -7.026  0.00  0.00    +0.410 HD
ENDBRANCH  19  21
ENDBRANCH  16  17
ENDBRANCH  15  16
ENDBRANCH   1  15
TORSDOF 9
