REMARK  Name = ZINCpk00000ebf7h.0
REMARK                            x       y       z     vdW  Elec       q    Type
REMARK                         _______ _______ _______ _____ _____    ______ ____
ROOT
ATOM      1  C   LIG    1        2.650  -0.834   2.618  0.00  0.00    +0.520 C 
ATOM      2  N   LIG    1        1.794   0.009   2.007  0.00  0.00    -0.610 N 
ATOM      3  C   LIG    1        1.979   1.463   2.103  0.00  0.00    +0.250 C 
ATOM      4  C   LIG    1        2.006   2.051   0.689  0.00  0.00    +0.010 C 
ATOM      5  C   LIG    1        0.741   1.627  -0.060  0.00  0.00    +0.020 C 
ATOM      6  C   LIG    1        0.700   0.101  -0.172  0.00  0.00    +0.020 C 
ATOM      7  C   LIG    1        0.658  -0.509   1.233  0.00  0.00    +0.310 C 
ATOM      8  O   LIG    1        2.538  -2.031   2.460  0.00  0.00    -0.480 OA
ENDROOT
BRANCH   7   9
ATOM      9  C   LIG    1        0.755  -2.010   1.135  0.00  0.00    -0.210 A 
ATOM     10  C   LIG    1       -0.005  -2.902   1.810  0.00  0.00    +0.220 A 
ATOM     11  N   LIG    1        0.392  -4.140   1.446  0.00  0.00    -0.380 N 
ATOM     12  N   LIG    1        1.431  -4.003   0.517  0.00  0.00    -0.290 NA
ATOM     13  C   LIG    1       -0.165  -5.403   1.936  0.00  0.00    +0.350 C 
ATOM     14  C   LIG    1        1.644  -2.726   0.327  0.00  0.00    +0.260 A 
ENDBRANCH   7   9
BRANCH   1  18
ATOM     15  C   LIG    1        4.139   0.036   5.833  0.00  0.00    +0.170 C 
ATOM     16  N   LIG    1        4.855  -0.950   5.406  0.00  0.00    -0.300 NA
ATOM     17  O   LIG    1        4.505  -1.357   4.098  0.00  0.00    -0.170 OA
ATOM     18  C   LIG    1        3.746  -0.289   3.498  0.00  0.00    +0.130 C 
ATOM     19  C   LIG    1        3.157   0.418   4.742  0.00  0.00    +0.090 C 
BRANCH  15  23
ATOM     20  C   LIG    1        5.641   1.166  10.465  0.00  0.00    +0.360 C 
ATOM     21  N   LIG    1        4.920   1.173   9.190  0.00  0.00    -0.360 N 
ATOM     22  C   LIG    1        5.143   0.343   8.155  0.00  0.00    +0.300 A 
ATOM     23  C   LIG    1        4.255   0.681   7.156  0.00  0.00    -0.210 A 
ATOM     24  C   LIG    1        3.482   1.762   7.631  0.00  0.00    +0.280 A 
ATOM     25  N   LIG    1        3.881   2.044   8.842  0.00  0.00    -0.290 NA
ENDBRANCH  15  23
ENDBRANCH   1  18
TORSDOF 3
