REMARK  Name = ZINCqH0000050T6h.0
REMARK                            x       y       z     vdW  Elec       q    Type
REMARK                         _______ _______ _______ _____ _____    ______ ____
ROOT
ATOM      1  C   LIG    1        1.974  -1.660  -0.026  0.00  0.00    +0.210 C 
ATOM      2  C   LIG    1        1.345  -0.290  -0.012  0.00  0.00    +0.050 A 
ATOM      3  C   LIG    1        0.002  -0.004   0.002  0.00  0.00    -0.230 A 
ATOM      4  C   LIG    1       -0.018   1.474   0.010  0.00  0.00    +0.100 A 
ATOM      5  N   LIG    1        1.241   1.832   0.000  0.00  0.00    -0.320 NA
ATOM      6  O   LIG    1        1.983   0.881  -0.012  0.00  0.00    +0.110 OA
ENDROOT
BRANCH   4   7
ATOM      7  C   LIG    1       -1.207   2.360   0.021  0.00  0.00    -0.020 A 
ATOM      8  C   LIG    1       -2.488   1.811   0.019  0.00  0.00    +0.040 A 
ATOM      9  C   LIG    1       -3.592   2.640   0.035  0.00  0.00    +0.030 A 
ATOM     10  C   LIG    1       -3.429   4.013   0.041  0.00  0.00    +0.050 A 
ATOM     11  C   LIG    1       -2.160   4.565   0.038  0.00  0.00    +0.030 A 
ATOM     12  C   LIG    1       -1.048   3.746   0.028  0.00  0.00    -0.010 A 
ATOM     13 CL   LIG    1        0.543   4.439   0.023  0.00  0.00    -0.040 Cl
ENDBRANCH   4   7
BRANCH   3  14
ATOM     14  C   LIG    1       -1.135  -0.937   0.009  0.00  0.00    +0.560 C 
ATOM     15  O   LIG    1       -1.616  -1.317  -1.041  0.00  0.00    -0.480 OA
BRANCH  14  16
ATOM     16  O   LIG    1       -1.644  -1.371   1.179  0.00  0.00    -0.320 OA
BRANCH  16  17
ATOM     17  C   LIG    1       -2.766  -2.290   1.109  0.00  0.00    +0.270 C 
BRANCH  17  18
ATOM     18  C   LIG    1       -3.197  -2.663   2.504  0.00  0.00    +0.520 C 
ATOM     19  N   LIG    1       -4.228  -3.512   2.687  0.00  0.00    -0.610 N 
ATOM     20  C   LIG    1       -4.946  -4.077   1.536  0.00  0.00    +0.260 C 
ATOM     21  C   LIG    1       -4.959  -5.607   1.671  0.00  0.00    +0.020 C 
ATOM     22  C   LIG    1       -5.553  -5.987   3.030  0.00  0.00    -0.020 C 
ATOM     23  C   LIG    1       -4.681  -5.413   4.148  0.00  0.00    +0.020 C 
ATOM     24  C   LIG    1       -5.603  -7.511   3.155  0.00  0.00    +0.030 C 
ATOM     25  C   LIG    1       -4.660  -3.885   4.041  0.00  0.00    +0.280 C 
ATOM     26  O   LIG    1       -2.616  -2.200   3.463  0.00  0.00    -0.510 OA
ENDBRANCH  17  18
ENDBRANCH  16  17
ENDBRANCH  14  16
ENDBRANCH   3  14
TORSDOF 5
