REMARK  Name = ZINCpk00000xHZu3.0
REMARK                            x       y       z     vdW  Elec       q    Type
REMARK                         _______ _______ _______ _____ _____    ______ ____
ROOT
ATOM      1  C   LIG    1        0.058  -2.789   0.092  0.00  0.00    +0.630 A 
ATOM      2  N   LIG    1        0.086  -4.116   0.185  0.00  0.00    -0.620 NA
ATOM      3  C   LIG    1       -1.042  -4.797   0.292  0.00  0.00    +0.440 A 
ATOM      4  N   LIG    1       -2.201  -4.163   0.307  0.00  0.00    -0.620 NA
ATOM      5  C   LIG    1       -2.237  -2.836   0.214  0.00  0.00    +0.630 A 
ATOM      6  N   LIG    1       -1.105  -2.148   0.112  0.00  0.00    -0.630 NA
ENDROOT
BRANCH   5   7
ATOM      7  N   LIG    1       -3.449  -2.174   0.229  0.00  0.00    -0.800 N 
ATOM      8  H   LIG    1       -3.474  -1.207   0.162  0.00  0.00    +0.420 HD
ATOM      9  H   LIG    1       -4.274  -2.677   0.308  0.00  0.00    +0.420 HD
ENDBRANCH   5   7
BRANCH   1  10
ATOM     10  N   LIG    1        1.237  -2.079  -0.020  0.00  0.00    -0.620 N 
ATOM     11  H   LIG    1        2.089  -2.537   0.059  0.00  0.00    +0.430 HD
BRANCH  10  18
ATOM     12  C   LIG    1        3.394  -0.502   0.960  0.00  0.00    +0.080 C 
ATOM     13  C   LIG    1        2.236   0.108   0.214  0.00  0.00    -0.110 A 
ATOM     14  C   LIG    1        2.200   1.469  -0.012  0.00  0.00    +0.030 A 
ATOM     15  C   LIG    1        1.137   2.030  -0.698  0.00  0.00    -0.010 A 
ATOM     16  C   LIG    1        0.108   1.230  -1.159  0.00  0.00    +0.010 A 
ATOM     17  C   LIG    1        0.139  -0.133  -0.936  0.00  0.00    +0.030 A 
ATOM     18  C   LIG    1        1.204  -0.699  -0.248  0.00  0.00    +0.150 A 
ENDBRANCH  10  18
ENDBRANCH   1  10
BRANCH   3  19
ATOM     19  C   LIG    1       -1.006  -6.300   0.398  0.00  0.00    +0.240 C 
BRANCH  19  20
ATOM     20  S   LIG    1       -0.903  -6.780   2.140  0.00  0.00    +0.050 S 
BRANCH  20  21
ATOM     21  C   LIG    1       -0.876  -8.534   1.973  0.00  0.00    +0.400 A 
ATOM     22  N   LIG    1       -0.935  -9.068   0.770  0.00  0.00    -0.580 NA
ATOM     23  C   LIG    1       -0.912 -10.395   0.601  0.00  0.00    +0.460 A 
ATOM     24  C   LIG    1       -0.836 -11.229   1.708  0.00  0.00    -0.250 A 
ATOM     25  C   LIG    1       -0.779 -10.654   2.981  0.00  0.00    +0.540 A 
ATOM     26  O   LIG    1       -0.712 -11.357   3.977  0.00  0.00    -0.550 OA
ATOM     27  N   LIG    1       -0.800  -9.310   3.090  0.00  0.00    -0.620 N 
ATOM     28  H   LIG    1       -0.762  -8.895   3.966  0.00  0.00    +0.420 HD
BRANCH  23  29
ATOM     29  N   LIG    1       -0.970 -10.932  -0.669  0.00  0.00    -0.830 N 
ATOM     30  H   LIG    1       -1.024 -10.348  -1.441  0.00  0.00    +0.410 HD
ATOM     31  H   LIG    1       -0.958 -11.895  -0.790  0.00  0.00    +0.420 HD
ENDBRANCH  23  29
ENDBRANCH  20  21
ENDBRANCH  19  20
ENDBRANCH   3  19
TORSDOF 7
