REMARK  Name = ZINCkj000005h9Mx.0
REMARK                            x       y       z     vdW  Elec       q    Type
REMARK                         _______ _______ _______ _____ _____    ______ ____
ROOT
ATOM      1  C   LIG    1        0.822   3.096   2.114  0.00  0.00    +0.680 C 
ATOM      2  N   LIG    1        1.640   2.119   1.678  0.00  0.00    -0.720 N 
ATOM      3  H   LIG    1        2.321   1.757   2.267  0.00  0.00    +0.400 HD
ATOM      4  O   LIG    1       -0.033   3.550   1.375  0.00  0.00    -0.580 OA
ENDROOT
BRANCH   1  12
ATOM      5  C   LIG    1        1.060   4.780   6.146  0.00  0.00    +0.390 C 
ATOM      6  N   LIG    1        0.158   5.105   5.038  0.00  0.00    -0.410 N 
ATOM      7  N   LIG    1       -0.866   6.067   5.035  0.00  0.00    -0.490 N 
ATOM      8  H   LIG    1       -1.115   6.649   5.769  0.00  0.00    +0.460 HD
ATOM      9  C   LIG    1       -1.437   6.025   3.811  0.00  0.00    +0.620 A 
ATOM     10  N   LIG    1       -0.835   5.122   3.082  0.00  0.00    -0.530 NA
ATOM     11  C   LIG    1        0.141   4.531   3.791  0.00  0.00    +0.620 A 
ATOM     12  N   LIG    1        0.947   3.568   3.361  0.00  0.00    -0.670 NA
ENDBRANCH   1  12
BRANCH   2  13
ATOM     13  C   LIG    1        1.499   1.598   0.316  0.00  0.00    +0.310 C 
BRANCH  13  14
ATOM     14  C   LIG    1        2.623   0.600   0.032  0.00  0.00    +0.260 C 
BRANCH  14  15
ATOM     15  C   LIG    1        3.948   1.317   0.044  0.00  0.00    -0.270 A 
ATOM     16  C   LIG    1        4.805   1.333   1.066  0.00  0.00    +0.090 A 
ATOM     17  C   LIG    1        5.963   2.059   0.845  0.00  0.00    +0.020 A 
ATOM     18  C   LIG    1        6.042   2.640  -0.353  0.00  0.00    +0.020 A 
ATOM     19  S   LIG    1        4.597   2.269  -1.285  0.00  0.00    +0.110 S 
ENDBRANCH  14  15
BRANCH  14  20
ATOM     20  N   LIG    1        2.410  -0.015  -1.285  0.00  0.00    -0.380 N 
ATOM     21  C   LIG    1        1.148  -0.767  -1.277  0.00  0.00    +0.340 C 
ATOM     22  C   LIG    1        3.522  -0.928  -1.584  0.00  0.00    +0.330 C 
ATOM     23  H   LIG    1        2.368   0.706  -1.990  0.00  0.00    +0.420 HD
ENDBRANCH  14  20
ENDBRANCH  13  14
ENDBRANCH   2  13
TORSDOF 5
