REMARK  Name = ZINCvU00000008Jz.0
REMARK                            x       y       z     vdW  Elec       q    Type
REMARK                         _______ _______ _______ _____ _____    ______ ____
ROOT
ATOM      1  C   LIG    1       -1.185   0.945   1.173  0.00  0.00    +0.540 C 
ATOM      2  N   LIG    1       -0.848   0.432   2.372  0.00  0.00    -0.720 N 
ATOM      3  H   LIG    1       -0.078  -0.153   2.450  0.00  0.00    +0.410 HD
ATOM      4  O   LIG    1       -2.148   1.677   1.075  0.00  0.00    -0.510 OA
ENDROOT
BRANCH   1   5
ATOM      5  C   LIG    1       -0.366   0.611  -0.048  0.00  0.00    +0.110 C 
BRANCH   5   6
ATOM      6  S   LIG    1       -1.067   1.447  -1.492  0.00  0.00    +0.090 S 
BRANCH   6   8
ATOM      7  N   LIG    1        0.011   1.220  -4.065  0.00  0.00    -0.450 N 
ATOM      8  C   LIG    1        0.052   0.897  -2.737  0.00  0.00    +0.140 A 
ATOM      9  N   LIG    1        1.084   0.104  -2.561  0.00  0.00    -0.290 NA
ATOM     10  N   LIG    1        1.683  -0.096  -3.680  0.00  0.00    -0.270 NA
ATOM     11  C   LIG    1        1.075   0.564  -4.638  0.00  0.00    +0.270 A 
BRANCH  11  12
ATOM     12  C   LIG    1        1.461   0.596  -6.066  0.00  0.00    -0.130 A 
ATOM     13  C   LIG    1        2.708   0.785  -6.575  0.00  0.00    +0.060 A 
ATOM     14  O   LIG    1        2.630   0.744  -7.913  0.00  0.00    -0.170 OA
ATOM     15  C   LIG    1        1.366   0.532  -8.310  0.00  0.00    +0.190 A 
ATOM     16  C   LIG    1        3.965   1.003  -5.772  0.00  0.00    +0.180 C 
ATOM     17  C   LIG    1        0.579   0.423  -7.227  0.00  0.00    -0.050 A 
ENDBRANCH  11  12
BRANCH   7  19
ATOM     18  C   LIG    1       -0.404   3.507  -4.824  0.00  0.00    +0.050 C 
ATOM     19  C   LIG    1       -0.962   2.086  -4.736  0.00  0.00    +0.300 C 
ENDBRANCH   7  19
ENDBRANCH   6   8
ENDBRANCH   5   6
ENDBRANCH   1   5
BRANCH   2  20
ATOM     20  C   LIG    1       -1.644   0.756   3.558  0.00  0.00    +0.390 C 
BRANCH  20  21
ATOM     21  C   LIG    1       -1.492  -0.340   4.581  0.00  0.00    -0.110 A 
ATOM     22  C   LIG    1       -0.258  -0.930   4.783  0.00  0.00    +0.050 A 
ATOM     23  C   LIG    1       -0.117  -1.932   5.724  0.00  0.00    -0.010 A 
ATOM     24  C   LIG    1       -1.213  -2.352   6.457  0.00  0.00    +0.110 A 
ATOM     25  C   LIG    1       -2.449  -1.764   6.251  0.00  0.00    -0.010 A 
ATOM     26  F   LIG    1       -1.077  -3.334   7.375  0.00  0.00    -0.140 F 
ATOM     27  C   LIG    1       -2.588  -0.758   5.313  0.00  0.00    +0.070 A 
ENDBRANCH  20  21
BRANCH  20  28
ATOM     28  C   LIG    1       -1.165   2.060   4.143  0.00  0.00    -0.190 A 
ATOM     29  C   LIG    1       -1.952   3.014   4.643  0.00  0.00    +0.020 A 
ATOM     30  C   LIG    1       -1.284   4.126   5.127  0.00  0.00    +0.010 A 
ATOM     31  C   LIG    1        0.044   4.075   5.020  0.00  0.00    -0.040 A 
ATOM     32  S   LIG    1        0.518   2.552   4.279  0.00  0.00    +0.110 S 
ENDBRANCH  20  28
ENDBRANCH   2  20
TORSDOF 8
