REMARK  Name = ZINCwl0000000hly.0
REMARK                            x       y       z     vdW  Elec       q    Type
REMARK                         _______ _______ _______ _____ _____    ______ ____
ROOT
ATOM      1  C   LIG    1        0.013  -0.060   0.406  0.00  0.00    +0.610 C 
ATOM      2  N   LIG    1        1.181  -0.705   0.213  0.00  0.00    -0.620 N 
ATOM      3  C   LIG    1        2.523  -0.101   0.171  0.00  0.00    +0.260 C 
ATOM      4  C   LIG    1        3.492  -1.166   0.719  0.00  0.00    +0.000 C 
ATOM      5  C   LIG    1        4.685  -1.302  -0.249  0.00  0.00    +0.270 C 
ATOM      6  N   LIG    1        4.901  -2.762  -0.377  0.00  0.00    -0.620 N 
ATOM      7  C   LIG    1        3.535  -3.331  -0.429  0.00  0.00    +0.300 C 
ATOM      8  C   LIG    1        6.075  -3.422  -0.433  0.00  0.00    +0.540 C 
ATOM      9  O   LIG    1        6.086  -4.631  -0.539  0.00  0.00    -0.490 OA
ATOM     10  C   LIG    1        2.729  -2.511   0.600  0.00  0.00    -0.080 C 
ATOM     11  C   LIG    1        2.591  -3.243   1.937  0.00  0.00    +0.070 C 
ATOM     12  C   LIG    1        1.363  -2.149  -0.005  0.00  0.00    +0.290 C 
ATOM     13  O   LIG    1       -1.020  -0.693   0.519  0.00  0.00    -0.500 OA
ENDROOT
BRANCH   1  18
ATOM     14  C   LIG    1       -2.835   4.710   1.393  0.00  0.00    +0.120 C 
ATOM     15  C   LIG    1       -1.379   4.725   1.002  0.00  0.00    -0.060 A 
ATOM     16  C   LIG    1       -0.703   3.522   0.765  0.00  0.00    -0.100 A 
ATOM     17  C   LIG    1       -1.096   2.162   0.803  0.00  0.00    +0.070 A 
ATOM     18  C   LIG    1       -0.012   1.409   0.482  0.00  0.00    +0.010 A 
ATOM     19  N   LIG    1        1.061   2.242   0.231  0.00  0.00    -0.580 N 
ATOM     20  H   LIG    1        1.952   1.954  -0.022  0.00  0.00    +0.420 HD
ATOM     21  C   LIG    1        0.657   3.546   0.400  0.00  0.00    +0.110 A 
ATOM     22  C   LIG    1        1.312   4.768   0.280  0.00  0.00    +0.020 A 
ATOM     23  C   LIG    1        0.627   5.939   0.517  0.00  0.00    +0.030 A 
ATOM     24  C   LIG    1       -0.716   5.913   0.877  0.00  0.00    +0.070 A 
ATOM     25  F   LIG    1       -1.370   7.073   1.106  0.00  0.00    -0.140 F 
ENDBRANCH   1  18
BRANCH   8  26
ATOM     26  C   LIG    1        7.373  -2.660  -0.363  0.00  0.00    +0.200 C 
ATOM     27  C   LIG    1        7.438  -1.652  -1.514  0.00  0.00    +0.250 C 
ATOM     28  N   LIG    1        8.601  -1.950  -2.360  0.00  0.00    -0.380 N 
ATOM     29  C   LIG    1        9.830  -1.860  -1.560  0.00  0.00    +0.230 C 
ATOM     30  C   LIG    1        9.777  -2.860  -0.413  0.00  0.00    +0.270 C 
ATOM     31  C   LIG    1        8.478  -3.305  -2.913  0.00  0.00    +0.220 C 
ATOM     32  C   LIG    1        8.418  -4.320  -1.768  0.00  0.00    +0.270 C 
ATOM     33  H   LIG    1        8.645  -1.283  -3.116  0.00  0.00    +0.440 HD
ATOM     34  N   LIG    1        8.503  -3.596  -0.487  0.00  0.00    -0.480 NA
ENDBRANCH   8  26
TORSDOF 2
