REMARK  Name = ZINCc70000001mM0.1
REMARK                            x       y       z     vdW  Elec       q    Type
REMARK                         _______ _______ _______ _____ _____    ______ ____
ROOT
ATOM      1  N   LIG    1        1.332   2.106   0.073  0.00  0.00    -0.390 N 
ATOM      2  C   LIG    1        2.147   1.575   1.174  0.00  0.00    +0.210 C 
ATOM      3  C   LIG    1        2.259   0.055   1.036  0.00  0.00    +0.240 C 
ATOM      4  O   LIG    1        0.948  -0.516   1.030  0.00  0.00    -0.360 OA
ATOM      5  C   LIG    1        0.107  -0.012  -0.012  0.00  0.00    +0.280 C 
ATOM      6  C   LIG    1       -0.009   1.508   0.124  0.00  0.00    +0.170 C 
ATOM      7  H   LIG    1        1.768   1.879  -0.808  0.00  0.00    +0.410 HD
ENDROOT
BRANCH   1   9
ATOM      8  C   LIG    1        2.606   4.197   0.038  0.00  0.00    +0.080 C 
ATOM      9  C   LIG    1        1.223   3.565   0.203  0.00  0.00    +0.240 C 
ENDBRANCH   1   9
BRANCH   6  10
ATOM     10  C   LIG    1       -0.859   2.060  -1.022  0.00  0.00    -0.040 C 
BRANCH  10  11
ATOM     11  C   LIG    1       -2.273   1.558  -0.886  0.00  0.00    +0.500 C 
ATOM     12  O   LIG    1       -3.088   1.785  -1.764  0.00  0.00    -0.670 OA
ATOM     13  O   LIG    1       -2.603   0.925   0.103  0.00  0.00    -0.680 OA
ENDBRANCH  10  11
ENDBRANCH   6  10
TORSDOF 3
