REMARK  Name = ZINCc70000001mM0.0
REMARK                            x       y       z     vdW  Elec       q    Type
REMARK                         _______ _______ _______ _____ _____    ______ ____
ROOT
ATOM      1  N   LIG    1        0.804  -0.504   1.242  0.00  0.00    -0.380 N 
ATOM      2  C   LIG    1        2.252  -0.273   1.148  0.00  0.00    +0.220 C 
ATOM      3  C   LIG    1        2.941  -0.851   2.387  0.00  0.00    +0.240 C 
ATOM      4  O   LIG    1        2.636  -2.245   2.489  0.00  0.00    -0.350 OA
ATOM      5  C   LIG    1        1.235  -2.522   2.560  0.00  0.00    +0.280 C 
ATOM      6  C   LIG    1        0.543  -1.948   1.321  0.00  0.00    +0.160 C 
ATOM      7  H   LIG    1        0.445  -0.051   2.070  0.00  0.00    +0.410 HD
ENDROOT
BRANCH   1   9
ATOM      8  C   LIG    1        0.284   1.573   0.054  0.00  0.00    +0.080 C 
ATOM      9  C   LIG    1        0.141   0.050   0.054  0.00  0.00    +0.250 C 
ENDBRANCH   1   9
BRANCH   6  10
ATOM     10  C   LIG    1        1.089  -2.634   0.068  0.00  0.00    -0.040 C 
BRANCH  10  11
ATOM     11  C   LIG    1        0.686  -4.086   0.074  0.00  0.00    +0.500 C 
ATOM     12  O   LIG    1        1.108  -4.840  -0.787  0.00  0.00    -0.670 OA
ATOM     13  O   LIG    1       -0.062  -4.507   0.940  0.00  0.00    -0.690 OA
ENDBRANCH  10  11
ENDBRANCH   6  10
TORSDOF 3
