REMARK  Name = ZINCrD000000AeEE.0
REMARK                            x       y       z     vdW  Elec       q    Type
REMARK                         _______ _______ _______ _____ _____    ______ ____
ROOT
ATOM      1  O   LIG    1        0.949   0.422  -2.373  0.00  0.00    -0.500 OA
ATOM      2  C   LIG    1       -0.047   1.107  -2.471  0.00  0.00    +0.520 C 
ATOM      3  N   LIG    1       -0.524   1.433  -3.689  0.00  0.00    -0.620 N 
ATOM      4  H   LIG    1       -1.321   1.980  -3.768  0.00  0.00    +0.430 HD
ENDROOT
BRANCH   3   5
ATOM      5  C   LIG    1        0.127   0.984  -4.832  0.00  0.00    +0.270 A 
ATOM      6  N   LIG    1       -0.243   1.231  -6.050  0.00  0.00    -0.500 NA
ATOM      7  C   LIG    1        0.503   0.722  -7.021  0.00  0.00    +0.130 A 
ATOM      8  C   LIG    1        1.560  -0.004  -6.615  0.00  0.00    -0.110 A 
ATOM      9  S   LIG    1        1.578  -0.013  -4.853  0.00  0.00    +0.210 S 
BRANCH   7  10
ATOM     10  C   LIG    1        0.190   0.934  -8.455  0.00  0.00    -0.020 A 
ATOM     11  C   LIG    1        1.006   0.378  -9.439  0.00  0.00    +0.020 A 
ATOM     12  C   LIG    1        0.707   0.573 -10.772  0.00  0.00    +0.010 A 
ATOM     13  C   LIG    1       -0.394   1.329 -11.133  0.00  0.00    +0.010 A 
ATOM     14  C   LIG    1       -1.204   1.889 -10.161  0.00  0.00    +0.010 A 
ATOM     15  C   LIG    1       -0.918   1.695  -8.825  0.00  0.00    +0.040 A 
ENDBRANCH   7  10
ENDBRANCH   3   5
BRANCH   2  16
ATOM     16  C   LIG    1       -0.753   1.593  -1.232  0.00  0.00    +0.070 C 
BRANCH  16  17
ATOM     17  C   LIG    1       -0.013   1.086   0.008  0.00  0.00    +0.330 C 
BRANCH  17  18
ATOM     18  N   LIG    1       -0.698   1.558   1.213  0.00  0.00    -0.580 N 
ATOM     19  C   LIG    1       -1.676   0.865   1.812  0.00  0.00    +0.530 C 
ATOM     20  C   LIG    1       -2.103   1.607   3.074  0.00  0.00    +0.020 C 
ATOM     21  C   LIG    1       -1.769   0.730   4.265  0.00  0.00    +0.040 C 
ATOM     22  C   LIG    1       -1.425   1.532   5.512  0.00  0.00    +0.020 C 
ATOM     23  C   LIG    1       -0.228   2.434   5.182  0.00  0.00    +0.020 C 
ATOM     24  C   LIG    1       -0.706   3.490   4.191  0.00  0.00    +0.060 C 
ATOM     25  C   LIG    1       -1.348   2.912   2.968  0.00  0.00    -0.010 C 
ATOM     26  O   LIG    1       -2.144  -0.181   1.417  0.00  0.00    -0.470 OA
ATOM     27  C   LIG    1       -0.397   2.721   1.815  0.00  0.00    +0.530 C 
ATOM     28  O   LIG    1        0.486   3.484   1.486  0.00  0.00    -0.470 OA
ENDBRANCH  17  18
ENDBRANCH  16  17
ENDBRANCH   2  16
TORSDOF 5
