REMARK  Name = ZINCrD00000l6xbL.0
REMARK                            x       y       z     vdW  Elec       q    Type
REMARK                         _______ _______ _______ _____ _____    ______ ____
ROOT
ATOM      1  N   LIG    1        2.340   4.252   0.048  0.00  0.00    -0.670 N 
ATOM      2  H   LIG    1        3.184   3.778   0.114  0.00  0.00    +0.410 HD
ATOM      3  C   LIG    1        1.179   3.567   0.062  0.00  0.00    +0.560 C 
ATOM      4  O   LIG    1        0.121   4.165   0.068  0.00  0.00    -0.510 OA
ENDROOT
BRANCH   1   8
ATOM      5  C   LIG    1        2.304   8.408  -0.277  0.00  0.00    +0.130 A 
ATOM      6  C   LIG    1        1.303   7.758   0.434  0.00  0.00    +0.040 A 
ATOM      7  C   LIG    1        1.315   6.382   0.541  0.00  0.00    +0.040 A 
ATOM      8  C   LIG    1        2.328   5.647  -0.061  0.00  0.00    +0.130 A 
ATOM      9  C   LIG    1        3.332   6.298  -0.766  0.00  0.00    +0.010 A 
ATOM     10  C   LIG    1        3.317   7.673  -0.879  0.00  0.00    -0.100 A 
ATOM     11  C   LIG    1        4.403   8.378  -1.650  0.00  0.00    +0.090 C 
BRANCH   5  14
ATOM     12  C   LIG    1        1.132  11.986  -0.264  0.00  0.00    +0.110 C 
ATOM     13  C   LIG    1        1.130  10.479  -0.271  0.00  0.00    +0.510 C 
ATOM     14  N   LIG    1        2.291   9.804  -0.387  0.00  0.00    -0.670 N 
ATOM     15  H   LIG    1        3.118  10.286  -0.546  0.00  0.00    +0.410 HD
ATOM     16  O   LIG    1        0.084   9.873  -0.172  0.00  0.00    -0.520 OA
ENDBRANCH   5  14
ENDBRANCH   1   8
BRANCH   3  17
ATOM     17  C   LIG    1        1.194   2.089   0.071  0.00  0.00    -0.140 A 
ATOM     18  C   LIG    1        2.407   1.399   0.065  0.00  0.00    +0.050 A 
ATOM     19  C   LIG    1        2.413   0.020   0.073  0.00  0.00    +0.000 A 
ATOM     20  C   LIG    1        1.220  -0.680   0.088  0.00  0.00    +0.050 A 
ATOM     21  C   LIG    1        0.013  -0.003   0.094  0.00  0.00    -0.120 A 
ATOM     22  C   LIG    1       -0.007   1.376   0.086  0.00  0.00    +0.110 A 
BRANCH  21  23
ATOM     23  C   LIG    1       -1.282  -0.774   0.110  0.00  0.00    +0.350 C 
BRANCH  23  24
ATOM     24  N   LIG    1       -1.713  -1.032  -1.266  0.00  0.00    -0.620 N 
ATOM     25  C   LIG    1       -1.338  -2.219  -2.043  0.00  0.00    +0.250 C 
ATOM     26  C   LIG    1       -1.638  -1.860  -3.515  0.00  0.00    +0.040 C 
ATOM     27  C   LIG    1       -2.739  -0.785  -3.359  0.00  0.00    +0.050 C 
ATOM     28  C   LIG    1       -2.509  -0.215  -1.977  0.00  0.00    +0.520 C 
ATOM     29  O   LIG    1       -2.974   0.829  -1.570  0.00  0.00    -0.520 OA
ENDBRANCH  23  24
ENDBRANCH  21  23
ENDBRANCH   3  17
TORSDOF 5
