REMARK  Name = ZINCah0000002BjH.0
REMARK                            x       y       z     vdW  Elec       q    Type
REMARK                         _______ _______ _______ _____ _____    ______ ____
ROOT
ATOM      1  C   LIG    1       -0.017   1.382   0.010  0.00  0.00    +0.160 A 
ATOM      2  C   LIG    1        0.002  -0.004   0.002  0.00  0.00    +0.000 A 
ATOM      3  C   LIG    1        1.209  -0.680  -0.014  0.00  0.00    +0.010 A 
ATOM      4  C   LIG    1        2.400   0.023  -0.021  0.00  0.00    +0.060 A 
ATOM      5  C   LIG    1        2.390   1.409  -0.013  0.00  0.00    +0.030 A 
ATOM      6  F   LIG    1        3.555   2.094  -0.020  0.00  0.00    -0.130 F 
ATOM      7  F   LIG    1        3.576  -0.642  -0.037  0.00  0.00    -0.130 F 
ATOM      8  C   LIG    1        1.183   2.093   0.002  0.00  0.00    +0.140 A 
ENDROOT
BRANCH   1   9
ATOM      9  N   LIG    1       -1.239   2.068   0.019  0.00  0.00    -0.880 N 
ATOM     10  H   LIG    1       -1.251   3.038   0.025  0.00  0.00    +0.390 HD
ATOM     11  H   LIG    1       -2.073   1.572   0.020  0.00  0.00    +0.400 HD
ENDBRANCH   1   9
BRANCH   8  12
ATOM     12  N   LIG    1        1.169   3.495   0.009  0.00  0.00    -0.870 N 
ATOM     13  H   LIG    1        2.004   3.988   0.004  0.00  0.00    +0.410 HD
ATOM     14  H   LIG    1        0.324   3.971   0.019  0.00  0.00    +0.400 HD
ENDBRANCH   8  12
TORSDOF 2
