REMARK  Name = ZINCrD00000hQ5HE.2
REMARK                            x       y       z     vdW  Elec       q    Type
REMARK                         _______ _______ _______ _____ _____    ______ ____
ROOT
ATOM      1  C   LIG    1        0.788  -1.942   4.339  0.00  0.00    +0.540 C 
ATOM      2  N   LIG    1        0.219  -0.819   3.857  0.00  0.00    -0.620 N 
ATOM      3  C   LIG    1       -0.399   0.243   4.665  0.00  0.00    +0.240 C 
ATOM      4  C   LIG    1       -0.889   1.334   3.689  0.00  0.00    +0.040 C 
ATOM      5  C   LIG    1       -0.016   1.091   2.429  0.00  0.00    +0.130 C 
ATOM      6  C   LIG    1        0.113  -0.453   2.433  0.00  0.00    +0.280 C 
ATOM      7  O   LIG    1        1.270  -2.753   3.576  0.00  0.00    -0.530 OA
ENDROOT
BRANCH   5   8
ATOM      8  N   LIG    1       -0.700   1.560   1.217  0.00  0.00    -0.530 NA
ATOM      9  C   LIG    1       -0.013   1.086   0.008  0.00  0.00    +0.190 C 
BRANCH   8  10
ATOM     10  C   LIG    1       -0.822   3.023   1.213  0.00  0.00    +0.230 C 
BRANCH  10  11
ATOM     11  C   LIG    1       -1.735   3.449   0.092  0.00  0.00    -0.060 A 
ATOM     12  C   LIG    1       -1.211   3.726  -1.157  0.00  0.00    +0.050 A 
ATOM     13  C   LIG    1       -2.046   4.112  -2.189  0.00  0.00    +0.030 A 
ATOM     14  C   LIG    1       -3.407   4.231  -1.969  0.00  0.00    +0.070 A 
ATOM     15  C   LIG    1       -3.932   3.958  -0.715  0.00  0.00    +0.070 A 
ATOM     16  F   LIG    1       -5.261   4.074  -0.498  0.00  0.00    -0.130 F 
ATOM     17  F   LIG    1       -4.223   4.614  -2.975  0.00  0.00    -0.130 F 
ATOM     18  C   LIG    1       -3.094   3.567   0.314  0.00  0.00    +0.050 A 
ENDBRANCH  10  11
ENDBRANCH   8  10
ENDBRANCH   5   8
BRANCH   1  19
ATOM     19  C   LIG    1        0.827  -2.189   5.825  0.00  0.00    +0.050 C 
BRANCH  19  20
ATOM     20  C   LIG    1        1.523  -3.523   6.102  0.00  0.00    +0.130 C 
BRANCH  20  21
ATOM     21  C   LIG    1        1.562  -3.774   7.611  0.00  0.00    +0.040 C 
ATOM     22  N   LIG    1        0.574  -3.103   8.459  0.00  0.00    -0.120 NA
ATOM     23  N   LIG    1        1.718  -2.627   8.508  0.00  0.00    -0.120 NA
BRANCH  21  24
ATOM     24  C   LIG    1        2.108  -5.132   8.056  0.00  0.00    +0.120 C 
BRANCH  24  25
ATOM     25  C   LIG    1        2.078  -5.218   9.583  0.00  0.00    +0.160 C 
BRANCH  25  27
ATOM     26  C   LIG    1        3.024  -7.566  10.354  0.00  0.00    +0.030 C 
ATOM     27  C   LIG    1        2.604  -6.524  10.012  0.00  0.00    -0.190 C 
ENDBRANCH  25  27
ENDBRANCH  24  25
ENDBRANCH  21  24
ENDBRANCH  20  21
ENDBRANCH  19  20
ENDBRANCH   1  19
TORSDOF 9
