REMARK  Name = ZINCrH00000tj14l.0
REMARK                            x       y       z     vdW  Elec       q    Type
REMARK                         _______ _______ _______ _____ _____    ______ ____
ROOT
ATOM      1  C   LIG    1        5.689   2.835  -0.037  0.00  0.00    +0.150 C 
ATOM      2  C   LIG    1        6.399   2.659   1.315  0.00  0.00    +0.060 C 
ATOM      3  C   LIG    1        7.359   3.797   0.855  0.00  0.00    +0.050 C 
ATOM      4  C   LIG    1        6.408   2.125  -1.196  0.00  0.00    +0.300 C 
ATOM      5  N   LIG    1        6.989   3.152  -2.066  0.00  0.00    -0.610 N 
ATOM      6  C   LIG    1        7.716   2.914  -3.175  0.00  0.00    +0.610 C 
ATOM      7  O   LIG    1        7.936   1.769  -3.524  0.00  0.00    -0.520 OA
ATOM      8  C   LIG    1        6.655   4.481  -1.540  0.00  0.00    +0.260 C 
ATOM      9  C   LIG    1        6.235   4.284  -0.072  0.00  0.00    +0.010 C 
ENDROOT
BRANCH   6  10
ATOM     10  C   LIG    1        8.243   4.035  -3.962  0.00  0.00    -0.300 A 
ATOM     11  C   LIG    1        8.987   3.938  -5.093  0.00  0.00    +0.320 A 
ATOM     12  N   LIG    1        9.334   5.092  -5.606  0.00  0.00    -0.480 NA
ATOM     13  C   LIG    1        8.939   6.160  -4.991  0.00  0.00    +0.050 A 
ATOM     14  C   LIG    1        9.242   7.569  -5.433  0.00  0.00    +0.180 C 
ATOM     15  S   LIG    1        8.018   5.747  -3.611  0.00  0.00    +0.170 S 
ENDBRANCH   6  10
BRANCH   1  16
ATOM     16  N   LIG    1        4.232   2.682  -0.024  0.00  0.00    -0.680 N 
ATOM     17  H   LIG    1        3.662   3.467  -0.014  0.00  0.00    +0.410 HD
BRANCH  16  21
ATOM     18  C   LIG    1       -0.022   1.749   0.012  0.00  0.00    -0.170 A 
ATOM     19  C   LIG    1        1.200   2.247   0.003  0.00  0.00    +0.040 A 
ATOM     20  C   LIG    1        2.260   1.257  -0.013  0.00  0.00    -0.230 A 
ATOM     21  C   LIG    1        3.670   1.419  -0.026  0.00  0.00    +0.490 A 
ATOM     22  N   LIG    1        4.438   0.340  -0.039  0.00  0.00    -0.580 NA
ATOM     23  C   LIG    1        3.915  -0.873  -0.041  0.00  0.00    +0.560 A 
ATOM     24  N   LIG    1        2.617  -1.075  -0.029  0.00  0.00    -0.530 NA
ATOM     25  C   LIG    1        1.759  -0.047  -0.015  0.00  0.00    +0.120 A 
ATOM     26  S   LIG    1        0.002  -0.004   0.002  0.00  0.00    +0.170 S 
BRANCH  18  28
ATOM     27  C   LIG    1       -1.711   2.871  -1.417  0.00  0.00    +0.040 C 
ATOM     28  C   LIG    1       -1.278   2.582   0.022  0.00  0.00    +0.120 C 
ENDBRANCH  18  28
ENDBRANCH  16  21
ENDBRANCH   1  16
TORSDOF 4
