REMARK  Name = ZINCpk00000KfKAa.0
REMARK                            x       y       z     vdW  Elec       q    Type
REMARK                         _______ _______ _______ _____ _____    ______ ____
ROOT
ATOM      1  C   LIG    1        0.067   1.185   2.485  0.00  0.00    +0.500 C 
ATOM      2  N   LIG    1        1.141   1.911   2.852  0.00  0.00    -0.730 N 
ATOM      3  H   LIG    1        1.402   2.687   2.333  0.00  0.00    +0.400 HD
ATOM      4  O   LIG    1       -0.260   0.214   3.134  0.00  0.00    -0.500 OA
ENDROOT
BRANCH   2   5
ATOM      5  C   LIG    1        1.914   1.527   4.036  0.00  0.00    +0.240 C 
ATOM      6  C   LIG    1        1.272   2.135   5.286  0.00  0.00    -0.010 C 
ATOM      7  C   LIG    1        2.130   1.795   6.508  0.00  0.00    +0.220 C 
ATOM      8  O   LIG    1        3.458   2.284   6.307  0.00  0.00    -0.370 OA
ATOM      9  C   LIG    1        4.125   1.715   5.179  0.00  0.00    +0.240 C 
ATOM     10  C   LIG    1        3.347   2.052   3.904  0.00  0.00    +0.020 C 
BRANCH   9  11
ATOM     11  C   LIG    1        5.519   2.280   5.082  0.00  0.00    -0.030 A 
ATOM     12  C   LIG    1        5.901   3.532   5.395  0.00  0.00    +0.180 A 
ATOM     13  N   LIG    1        7.219   3.633   5.169  0.00  0.00    -0.490 NA
ATOM     14  C   LIG    1        7.668   2.490   4.728  0.00  0.00    +0.400 A 
ATOM     15  N   LIG    1        6.640   1.616   4.663  0.00  0.00    -0.460 N 
ATOM     16  C   LIG    1        6.712   0.220   4.225  0.00  0.00    +0.320 C 
ENDBRANCH   9  11
ENDBRANCH   2   5
BRANCH   1  17
ATOM     17  C   LIG    1       -0.729   1.579   1.267  0.00  0.00    +0.250 C 
BRANCH  17  20
ATOM     18  C   LIG    1       -3.566  -0.984   1.466  0.00  0.00    +0.090 C 
ATOM     19  C   LIG    1       -2.194  -0.364   1.393  0.00  0.00    +0.520 C 
ATOM     20  N   LIG    1       -2.062   0.977   1.338  0.00  0.00    -0.720 N 
ATOM     21  H   LIG    1       -2.850   1.542   1.346  0.00  0.00    +0.400 HD
ATOM     22  O   LIG    1       -1.209  -1.071   1.383  0.00  0.00    -0.520 OA
ENDBRANCH  17  20
BRANCH  17  23
ATOM     23  C   LIG    1       -0.013   1.086   0.008  0.00  0.00    +0.050 C 
BRANCH  23  24
ATOM     24  C   LIG    1       -0.753   1.593  -1.232  0.00  0.00    -0.010 C 
ATOM     25  C   LIG    1       -1.914   0.685  -1.670  0.00  0.00    +0.010 C 
ATOM     26  C   LIG    1       -1.468   0.950  -3.119  0.00  0.00    +0.000 C 
ATOM     27  C   LIG    1       -0.064   1.221  -2.555  0.00  0.00    +0.010 C 
ENDBRANCH  23  24
ENDBRANCH  17  23
ENDBRANCH   1  17
TORSDOF 6
