REMARK  Name = ZINCpk00000kWQdE.0
REMARK                            x       y       z     vdW  Elec       q    Type
REMARK                         _______ _______ _______ _____ _____    ______ ____
ROOT
ATOM      1  C   LIG    1       -1.408   0.924  -1.446  0.00  0.00    -0.010 C 
ATOM      2  C   LIG    1       -2.776   0.240  -1.466  0.00  0.00    +0.030 C 
ATOM      3  C   LIG    1       -3.606   0.799  -2.627  0.00  0.00    +0.290 C 
ATOM      4  N   LIG    1       -2.839   0.649  -3.871  0.00  0.00    -0.590 N 
ATOM      5  C   LIG    1       -1.474   1.191  -3.929  0.00  0.00    +0.270 C 
ATOM      6  C   LIG    1       -3.376   0.025  -4.938  0.00  0.00    +0.570 C 
ATOM      7  O   LIG    1       -2.688  -0.220  -5.909  0.00  0.00    -0.520 OA
ATOM      8  C   LIG    1       -0.669   0.628  -2.754  0.00  0.00    +0.020 C 
ENDROOT
BRANCH   6   9
ATOM      9  C   LIG    1       -4.804  -0.361  -4.927  0.00  0.00    +0.040 A 
ATOM     10  N   LIG    1       -5.588   0.045  -3.935  0.00  0.00    -0.390 NA
ATOM     11  C   LIG    1       -6.862  -0.275  -3.887  0.00  0.00    +0.250 A 
ATOM     12  C   LIG    1       -7.439  -1.057  -4.880  0.00  0.00    +0.110 A 
ATOM     13  C   LIG    1       -6.657  -1.504  -5.935  0.00  0.00    +0.020 A 
ATOM     14  F   LIG    1       -8.750  -1.380  -4.818  0.00  0.00    -0.110 F 
ATOM     15  C   LIG    1       -5.317  -1.146  -5.962  0.00  0.00    +0.150 A 
ATOM     16  F   LIG    1       -4.518  -1.554  -6.973  0.00  0.00    -0.090 F 
ENDBRANCH   6   9
BRANCH   1  17
ATOM     17  C   LIG    1       -0.589   0.394  -0.268  0.00  0.00    +0.040 C 
BRANCH  17  22
ATOM     18  C   LIG    1       -0.373   0.416   2.248  0.00  0.00    -0.050 C 
ATOM     19  C   LIG    1       -1.379  -0.039   3.329  0.00  0.00    +0.030 C 
ATOM     20  C   LIG    1       -2.757   0.123   2.651  0.00  0.00    +0.190 C 
ATOM     21  O   LIG    1       -2.485   0.052   1.234  0.00  0.00    -0.350 OA
ATOM     22  C   LIG    1       -1.264   0.799   1.045  0.00  0.00    +0.170 C 
BRANCH  18  26
ATOM     23  N   LIG    1        1.815  -0.449   1.485  0.00  0.00    -0.860 N 
ATOM     24  H   LIG    1        2.412  -1.175   1.248  0.00  0.00    +0.400 HD
ATOM     25  H   LIG    1        2.126   0.469   1.438  0.00  0.00    +0.400 HD
ATOM     26  C   LIG    1        0.554  -0.713   1.880  0.00  0.00    +0.530 C 
ATOM     27  O   LIG    1        0.165  -1.861   1.938  0.00  0.00    -0.530 OA
ENDBRANCH  18  26
ENDBRANCH  17  22
ENDBRANCH   1  17
TORSDOF 4
