REMARK  Name = ZINCqH00000050ld.0
REMARK                            x       y       z     vdW  Elec       q    Type
REMARK                         _______ _______ _______ _____ _____    ______ ____
ROOT
ATOM      1  N   LIG    1       -1.220   2.086   0.019  0.00  0.00    -0.640 N 
ATOM      2  H   LIG    1       -1.921   1.591   0.471  0.00  0.00    +0.420 HD
ENDROOT
BRANCH   1   3
ATOM      3  C   LIG    1       -0.265   1.411  -0.727  0.00  0.00    +0.470 A 
ATOM      4  N   LIG    1        0.632   2.081  -1.444  0.00  0.00    -0.540 NA
ATOM      5  C   LIG    1        1.543   1.452  -2.162  0.00  0.00    +0.540 A 
ATOM      6  N   LIG    1        1.614   0.138  -2.207  0.00  0.00    -0.510 NA
ATOM      7  C   LIG    1        0.755  -0.609  -1.519  0.00  0.00    +0.170 A 
ATOM      8  C   LIG    1        0.547  -2.056  -1.341  0.00  0.00    -0.130 A 
ATOM      9  C   LIG    1        1.179  -3.194  -1.835  0.00  0.00    +0.100 A 
ATOM     10  C   LIG    1        0.727  -4.442  -1.466  0.00  0.00    +0.000 A 
ATOM     11  C   LIG    1       -0.354  -4.566  -0.607  0.00  0.00    +0.080 A 
ATOM     12  C   LIG    1       -0.988  -3.447  -0.111  0.00  0.00    +0.020 A 
ATOM     13  C   LIG    1       -0.547  -2.179  -0.472  0.00  0.00    +0.100 A 
ATOM     14  O   LIG    1       -0.974  -0.940  -0.143  0.00  0.00    -0.190 OA
ATOM     15  C   LIG    1       -0.230   0.012  -0.742  0.00  0.00    -0.080 A 
ENDBRANCH   1   3
BRANCH   1  19
ATOM     16  C   LIG    1       -1.079   6.238   0.318  0.00  0.00    -0.080 A 
ATOM     17  C   LIG    1       -2.299   5.587   0.327  0.00  0.00    +0.040 A 
ATOM     18  C   LIG    1       -2.349   4.210   0.229  0.00  0.00    -0.020 A 
ATOM     19  C   LIG    1       -1.173   3.480   0.119  0.00  0.00    +0.160 A 
ATOM     20  C   LIG    1        0.051   4.136   0.115  0.00  0.00    +0.030 A 
ATOM     21  C   LIG    1        0.094   5.514   0.209  0.00  0.00    +0.040 A 
BRANCH  16  22
ATOM     22  C   LIG    1       -1.027   7.740   0.426  0.00  0.00    +0.100 C 
BRANCH  22  25
ATOM     23  C   LIG    1       -0.806   9.825   3.629  0.00  0.00    +0.280 C 
ATOM     24  N   LIG    1       -0.887   9.440   2.218  0.00  0.00    -0.630 N 
ATOM     25  C   LIG    1       -0.944   8.137   1.878  0.00  0.00    +0.510 C 
ATOM     26  O   LIG    1       -0.928   7.283   2.740  0.00  0.00    -0.530 OA
ATOM     27  C   LIG    1       -0.907  10.470   1.177  0.00  0.00    +0.280 C 
ENDBRANCH  22  25
ENDBRANCH  16  22
ENDBRANCH   1  19
TORSDOF 4
