REMARK  Name = ZINCqH0000003YU9.0
REMARK                            x       y       z     vdW  Elec       q    Type
REMARK                         _______ _______ _______ _____ _____    ______ ____
ROOT
ATOM      1  C   LIG    1       -3.341  -0.700   1.602  0.00  0.00    +0.520 C 
ATOM      2  N   LIG    1       -2.077  -0.234   1.571  0.00  0.00    -0.730 N 
ATOM      3  H   LIG    1       -1.749   0.326   2.292  0.00  0.00    +0.400 HD
ATOM      4  O   LIG    1       -3.779  -1.329   0.662  0.00  0.00    -0.520 OA
ENDROOT
BRANCH   1   5
ATOM      5  C   LIG    1       -4.211  -0.440   2.805  0.00  0.00    +0.050 C 
BRANCH   5   6
ATOM      6  C   LIG    1       -5.531  -1.145   2.632  0.00  0.00    -0.070 A 
ATOM      7  C   LIG    1       -5.561  -2.472   2.245  0.00  0.00    +0.050 A 
ATOM      8  C   LIG    1       -6.772  -3.120   2.091  0.00  0.00    -0.010 A 
ATOM      9  C   LIG    1       -7.954  -2.439   2.315  0.00  0.00    +0.000 A 
ATOM     10  C   LIG    1       -7.925  -1.111   2.698  0.00  0.00    -0.010 A 
ATOM     11  C   LIG    1       -6.713  -0.464   2.856  0.00  0.00    +0.010 A 
ENDBRANCH   5   6
BRANCH   5  12
ATOM     12  C   LIG    1       -3.513  -0.964   4.062  0.00  0.00    +0.000 C 
ATOM     13  C   LIG    1       -3.251  -2.464   3.912  0.00  0.00    +0.020 C 
BRANCH  12  15
ATOM     14  C   LIG    1       -4.538   0.783   5.525  0.00  0.00    +0.000 C 
ATOM     15  C   LIG    1       -4.407  -0.721   5.280  0.00  0.00    +0.020 C 
ENDBRANCH  12  15
ENDBRANCH   5  12
ENDBRANCH   1   5
BRANCH   2  16
ATOM     16  C   LIG    1       -1.198  -0.574   0.449  0.00  0.00    +0.330 C 
BRANCH  16  17
ATOM     17  C   LIG    1        0.150   0.067   0.655  0.00  0.00    -0.180 A 
ATOM     18  C   LIG    1        0.403   1.341   0.167  0.00  0.00    +0.120 A 
ATOM     19  C   LIG    1        1.657   1.890   0.373  0.00  0.00    -0.020 A 
ATOM     20  C   LIG    1        2.612   1.154   1.062  0.00  0.00    +0.380 A 
ATOM     21  N   LIG    1        2.332  -0.057   1.516  0.00  0.00    -0.510 NA
ATOM     22  C   LIG    1        1.147  -0.606   1.335  0.00  0.00    +0.330 A 
BRANCH  20  23
ATOM     23  N   LIG    1        3.882   1.697   1.277  0.00  0.00    -0.330 N 
ATOM     24  C   LIG    1        4.910   1.095   1.930  0.00  0.00    +0.260 A 
ATOM     25  C   LIG    1        5.958   1.950   1.919  0.00  0.00    -0.100 A 
ATOM     26  C   LIG    1        5.564   3.109   1.241  0.00  0.00    +0.270 A 
ATOM     27  N   LIG    1        4.324   2.957   0.852  0.00  0.00    -0.290 NA
ENDBRANCH  20  23
ENDBRANCH  16  17
ENDBRANCH   2  16
TORSDOF 7
