REMARK  Name = ZINCpk00000KfLAx.0
REMARK                            x       y       z     vdW  Elec       q    Type
REMARK                         _______ _______ _______ _____ _____    ______ ____
ROOT
ATOM      1  C   LIG    1        3.701   3.330  -0.570  0.00  0.00    +0.530 C 
ATOM      2  N   LIG    1        3.596   2.107  -0.013  0.00  0.00    -0.560 N 
ATOM      3  C   LIG    1        4.757   1.456   0.612  0.00  0.00    +0.340 C 
ATOM      4  C   LIG    1        4.771  -0.001   0.225  0.00  0.00    +0.510 C 
ATOM      5  N   LIG    1        3.625  -0.654  -0.045  0.00  0.00    -0.650 N 
ATOM      6  H   LIG    1        3.651  -1.600  -0.257  0.00  0.00    +0.420 HD
ATOM      7  C   LIG    1        2.398   0.018  -0.022  0.00  0.00    +0.130 A 
ATOM      8  C   LIG    1        1.205  -0.687  -0.014  0.00  0.00    +0.010 A 
ATOM      9  C   LIG    1        0.002  -0.004   0.002  0.00  0.00    +0.030 A 
ATOM     10  C   LIG    1       -0.017   1.378   0.010  0.00  0.00    +0.010 A 
ATOM     11  C   LIG    1        1.170   2.090   0.002  0.00  0.00    +0.060 A 
ATOM     12  O   LIG    1        5.828  -0.592   0.157  0.00  0.00    -0.510 OA
ATOM     13  C   LIG    1        2.376   1.413  -0.013  0.00  0.00    +0.110 A 
ATOM     14  O   LIG    1        2.731   3.849  -1.081  0.00  0.00    -0.480 OA
ENDROOT
BRANCH   1  15
ATOM     15  C   LIG    1        5.023   4.053  -0.558  0.00  0.00    +0.110 C 
ATOM     16  C   LIG    1        5.476   4.265   0.888  0.00  0.00    +0.080 C 
BRANCH  15  19
ATOM     17  C   LIG    1        5.837   6.514  -2.671  0.00  0.00    +0.280 C 
ATOM     18  C   LIG    1        6.153   6.093  -1.229  0.00  0.00    +0.180 C 
ATOM     19  N   LIG    1        4.875   5.355  -1.221  0.00  0.00    -0.430 NA
ATOM     20  C   LIG    1        5.008   5.222  -2.684  0.00  0.00    +0.180 C 
BRANCH  17  24
ATOM     21  C   LIG    1        9.376   4.941  -5.853  0.00  0.00    +0.110 C 
ATOM     22  C   LIG    1        8.539   5.815  -4.955  0.00  0.00    -0.240 A 
ATOM     23  C   LIG    1        7.461   5.418  -4.238  0.00  0.00    +0.220 A 
ATOM     24  N   LIG    1        6.995   6.493  -3.568  0.00  0.00    -0.360 N 
ATOM     25  N   LIG    1        7.809   7.587  -3.888  0.00  0.00    -0.290 NA
ATOM     26  C   LIG    1        8.738   7.178  -4.715  0.00  0.00    +0.230 A 
ENDBRANCH  17  24
ENDBRANCH  15  19
ENDBRANCH   1  15
TORSDOF 3
