REMARK  Name = ZINCrg00000SjSmR.0
REMARK                            x       y       z     vdW  Elec       q    Type
REMARK                         _______ _______ _______ _____ _____    ______ ____
ROOT
ATOM      1  C   LIG    1        8.354   2.041   1.966  0.00  0.00    +0.640 C 
ATOM      2  N   LIG    1        7.119   1.905   2.489  0.00  0.00    -0.610 N 
ATOM      3  C   LIG    1        6.516   2.978   3.296  0.00  0.00    +0.260 C 
ATOM      4  C   LIG    1        5.113   3.264   2.746  0.00  0.00    +0.230 C 
ATOM      5  O   LIG    1        4.380   2.039   2.664  0.00  0.00    -0.360 OA
ATOM      6  C   LIG    1        4.943   1.078   1.766  0.00  0.00    +0.080 C 
ATOM      7  C   LIG    1        5.072   1.699   0.376  0.00  0.00    +0.060 C 
ATOM      8  C   LIG    1        3.765   2.407   0.001  0.00  0.00    -0.160 C 
ATOM      9  S   LIG    1        2.432   1.167  -0.015  0.00  0.00    +2.290 S 
ATOM     10  C   LIG    1        2.584   0.262   1.557  0.00  0.00    -0.260 C 
ATOM     11  N   LIG    1        1.128   1.896   0.002  0.00  0.00    -1.120 NA
ATOM     12  O   LIG    1        2.439   0.330  -1.163  0.00  0.00    -0.920 OA
ATOM     13  C   LIG    1        4.050  -0.160   1.725  0.00  0.00    +0.110 C 
ATOM     14  C   LIG    1        6.336   0.678   2.271  0.00  0.00    +0.300 C 
ATOM     15  O   LIG    1        8.835   1.143   1.302  0.00  0.00    -0.510 OA
ENDROOT
BRANCH   1  17
ATOM     16  C   LIG    1        9.708   4.230   2.376  0.00  0.00    -0.060 C 
ATOM     17  C   LIG    1        9.098   3.244   2.191  0.00  0.00    -0.240 C 
BRANCH  16  19
ATOM     18  C   LIG    1       11.831   5.364   1.909  0.00  0.00    +0.040 C 
ATOM     19  C   LIG    1       10.473   5.466   2.607  0.00  0.00    +0.110 C 
ATOM     20  C   LIG    1        9.698   6.658   2.043  0.00  0.00    +0.040 C 
ENDBRANCH  16  19
ENDBRANCH   1  17
BRANCH  11  21
ATOM     21  C   LIG    1       -0.015   1.216   0.009  0.00  0.00    +0.630 C 
ATOM     22  O   LIG    1        0.002  -0.004   0.002  0.00  0.00    -0.580 OA
BRANCH  21  23
ATOM     23  C   LIG    1       -1.304   1.937   0.019  0.00  0.00    -0.260 A 
ATOM     24  C   LIG    1       -2.573   1.363   0.016  0.00  0.00    +0.310 A 
ATOM     25  N   LIG    1       -3.464   2.370   0.030  0.00  0.00    -0.460 N 
ATOM     26  H   LIG    1       -4.430   2.274   0.034  0.00  0.00    +0.440 HD
ATOM     27  N   LIG    1       -2.764   3.582   0.034  0.00  0.00    -0.310 NA
ATOM     28  C   LIG    1       -1.481   3.334   0.027  0.00  0.00    +0.310 A 
ENDBRANCH  21  23
ENDBRANCH  11  21
TORSDOF 4
