REMARK  Name = ZINCpk000000nRK5.0
REMARK                            x       y       z     vdW  Elec       q    Type
REMARK                         _______ _______ _______ _____ _____    ______ ____
ROOT
ATOM      1  N   LIG    1        5.312   4.809   1.356  0.00  0.00    -1.000 NA
ATOM      2  C   LIG    1        4.983   3.384   1.502  0.00  0.00    +0.280 C 
ATOM      3  C   LIG    1        4.004   2.991   0.396  0.00  0.00    +0.290 C 
ATOM      4  N   LIG    1        2.909   3.971   0.359  0.00  0.00    -0.590 N 
ATOM      5  C   LIG    1        3.238   5.395   0.212  0.00  0.00    +0.210 C 
ATOM      6  C   LIG    1        1.962   6.232   0.331  0.00  0.00    +0.060 C 
ATOM      7  C   LIG    1        1.627   3.570   0.464  0.00  0.00    +0.590 C 
ATOM      8  O   LIG    1        0.726   4.381   0.360  0.00  0.00    -0.520 OA
ATOM      9  C   LIG    1        4.218   5.789   1.325  0.00  0.00    +0.290 C 
ENDROOT
BRANCH   7  10
ATOM     10  C   LIG    1        1.316   2.151   0.704  0.00  0.00    +0.000 A 
ATOM     11  C   LIG    1        0.067   1.701   0.963  0.00  0.00    -0.030 A 
ATOM     12  S   LIG    1        0.125   0.007   1.181  0.00  0.00    +0.240 S 
ATOM     13  C   LIG    1        1.812  -0.004   0.915  0.00  0.00    +0.200 A 
ATOM     14  N   LIG    1        2.241   1.188   0.687  0.00  0.00    -0.440 NA
ENDBRANCH   7  10
BRANCH   1  15
ATOM     15  S   LIG    1        6.888   5.301   1.227  0.00  0.00    +2.720 S 
ATOM     16  O   LIG    1        6.863   6.559   0.566  0.00  0.00    -0.950 OA
ATOM     17  O   LIG    1        7.619   4.183   0.742  0.00  0.00    -0.960 OA
BRANCH  15  20
ATOM     18  N   LIG    1        8.367   5.334   4.833  0.00  0.00    -0.350 N 
ATOM     19  C   LIG    1        8.069   4.708   3.675  0.00  0.00    +0.370 A 
ATOM     20  C   LIG    1        7.474   5.609   2.860  0.00  0.00    -0.820 A 
ATOM     21  C   LIG    1        7.410   6.829   3.541  0.00  0.00    +0.330 A 
ATOM     22  N   LIG    1        7.940   6.664   4.726  0.00  0.00    -0.290 NA
BRANCH  18  24
ATOM     23  C   LIG    1        7.971   4.040   6.870  0.00  0.00    +0.040 C 
ATOM     24  C   LIG    1        9.021   4.729   5.996  0.00  0.00    +0.250 C 
ATOM     25  C   LIG    1       10.049   3.699   5.525  0.00  0.00    +0.060 C 
ENDBRANCH  18  24
ENDBRANCH  15  20
ENDBRANCH   1  15
TORSDOF 4
