REMARK  Name = ZINCtV000002KDgg.0
REMARK                            x       y       z     vdW  Elec       q    Type
REMARK                         _______ _______ _______ _____ _____    ______ ____
ROOT
ATOM      1  N   LIG    1       -0.020   0.026  -0.036  0.00  0.00    -0.420 N 
ATOM      2  C   LIG    1        0.008   1.381   0.140  0.00  0.00    +0.180 A 
ATOM      3  N   LIG    1        1.270   1.751   0.113  0.00  0.00    -0.280 NA
ATOM      4  N   LIG    1        2.027   0.729  -0.067  0.00  0.00    -0.250 NA
ATOM      5  C   LIG    1        1.297  -0.358  -0.166  0.00  0.00    +0.230 A 
ENDROOT
BRANCH   1  10
ATOM      6 CL   LIG    1       -4.789  -3.453  -0.211  0.00  0.00    -0.020 Cl
ATOM      7  C   LIG    1       -3.388  -2.430  -0.160  0.00  0.00    -0.010 A 
ATOM      8  C   LIG    1       -3.158  -1.521  -1.177  0.00  0.00    +0.080 A 
ATOM      9  C   LIG    1       -2.043  -0.707  -1.138  0.00  0.00    +0.070 A 
ATOM     10  C   LIG    1       -1.152  -0.800  -0.077  0.00  0.00    +0.120 A 
ATOM     11  C   LIG    1       -1.381  -1.717   0.940  0.00  0.00    +0.070 A 
ATOM     12  C   LIG    1       -2.500  -2.526   0.900  0.00  0.00    -0.020 A 
ATOM     13 CL   LIG    1       -2.791  -3.669   2.174  0.00  0.00    -0.020 Cl
ENDBRANCH   1  10
BRANCH   5  14
ATOM     14  C   LIG    1        1.794  -1.734  -0.376  0.00  0.00    +0.020 A 
ATOM     15  C   LIG    1        3.135  -2.059  -0.139  0.00  0.00    +0.020 A 
ATOM     16  C   LIG    1        3.555  -3.356  -0.343  0.00  0.00    +0.280 A 
ATOM     17  N   LIG    1        2.714  -4.282  -0.765  0.00  0.00    -0.470 NA
ATOM     18  C   LIG    1        1.444  -4.018  -1.006  0.00  0.00    +0.270 A 
ATOM     19  C   LIG    1        0.938  -2.748  -0.823  0.00  0.00    -0.030 A 
ENDBRANCH   5  14
BRANCH   2  20
ATOM     20  S   LIG    1       -1.386   2.437   0.355  0.00  0.00    +0.020 S 
BRANCH  20  21
ATOM     21  C   LIG    1       -0.550   4.034   0.519  0.00  0.00    +0.090 C 
BRANCH  21  22
ATOM     22  C   LIG    1       -1.591   5.136   0.721  0.00  0.00    +0.060 C 
BRANCH  22  23
ATOM     23  C   LIG    1       -0.884   6.486   0.860  0.00  0.00    +0.090 C 
BRANCH  23  24
ATOM     24  C   LIG    1       -1.909   7.572   1.059  0.00  0.00    -0.080 A 
ATOM     25  C   LIG    1       -2.441   8.230  -0.035  0.00  0.00    +0.000 A 
ATOM     26  C   LIG    1       -3.385   9.223   0.148  0.00  0.00    +0.000 A 
ATOM     27  C   LIG    1       -3.789   9.566   1.424  0.00  0.00    +0.000 A 
ATOM     28  C   LIG    1       -3.254   8.912   2.518  0.00  0.00    +0.000 A 
ATOM     29  C   LIG    1       -2.314   7.915   2.335  0.00  0.00    +0.000 A 
ENDBRANCH  23  24
ENDBRANCH  22  23
ENDBRANCH  21  22
ENDBRANCH  20  21
ENDBRANCH   2  20
TORSDOF 7
