REMARK  Name = ZINCpe00000MJJZA.0
REMARK                            x       y       z     vdW  Elec       q    Type
REMARK                         _______ _______ _______ _____ _____    ______ ____
ROOT
ATOM      1  C   LIG    1       -8.314  -0.054  -2.702  0.00  0.00    -0.070 C 
ATOM      2  C   LIG    1       -7.919  -1.251  -3.521  0.00  0.00    +0.020 C 
ATOM      3  C   LIG    1       -7.059  -2.242  -2.741  0.00  0.00    +0.220 C 
ATOM      4  O   LIG    1       -7.762  -2.560  -1.532  0.00  0.00    -0.370 OA
ATOM      5  C   LIG    1       -7.799  -1.468  -0.623  0.00  0.00    +0.220 C 
ATOM      6  C   LIG    1       -7.380   1.153  -2.907  0.00  0.00    +0.290 C 
ATOM      7  N   LIG    1       -6.715   1.337  -1.594  0.00  0.00    -0.630 N 
ATOM      8  C   LIG    1       -5.445   1.721  -1.358  0.00  0.00    +0.540 C 
ATOM      9  O   LIG    1       -4.700   1.955  -2.285  0.00  0.00    -0.520 OA
ATOM     10  C   LIG    1       -7.766   1.011  -0.599  0.00  0.00    +0.270 C 
ATOM     11  C   LIG    1       -8.469  -0.237  -1.204  0.00  0.00    +0.000 C 
ENDROOT
BRANCH   1  15
ATOM     12  C   LIG    1      -11.137   1.082  -5.025  0.00  0.00    +0.290 C 
ATOM     13  N   LIG    1       -9.831   0.643  -4.528  0.00  0.00    -0.730 N 
ATOM     14  H   LIG    1       -9.090   0.530  -5.144  0.00  0.00    +0.400 HD
ATOM     15  C   LIG    1       -9.658   0.397  -3.214  0.00  0.00    +0.520 C 
ATOM     16  O   LIG    1      -10.584   0.539  -2.443  0.00  0.00    -0.530 OA
ENDBRANCH   1  15
BRANCH   8  17
ATOM     17  C   LIG    1       -4.951   1.860   0.059  0.00  0.00    +0.110 C 
BRANCH  17  18
ATOM     18  C   LIG    1       -3.509   2.297   0.048  0.00  0.00    -0.030 A 
ATOM     19  C   LIG    1       -3.198   3.645   0.052  0.00  0.00    -0.040 A 
ATOM     20  C   LIG    1       -1.875   4.045   0.042  0.00  0.00    +0.060 A 
ATOM     21  C   LIG    1       -0.865   3.103   0.027  0.00  0.00    -0.170 A 
ATOM     22  C   LIG    1        0.639   3.261   0.013  0.00  0.00    +0.080 C 
ATOM     23  C   LIG    1        1.178   1.822   0.001  0.00  0.00    +0.260 C 
ATOM     24  N   LIG    1       -0.011   0.966   0.007  0.00  0.00    -0.750 N 
ATOM     25  H   LIG    1        0.002  -0.004   0.002  0.00  0.00    +0.410 HD
ATOM     26  C   LIG    1       -1.166   1.750   0.017  0.00  0.00    +0.200 A 
ATOM     27  C   LIG    1       -2.505   1.353   0.034  0.00  0.00    -0.060 A 
ENDBRANCH  17  18
ENDBRANCH   8  17
TORSDOF 3
