REMARK  Name = ZINCrD00000lccGi.0
REMARK                            x       y       z     vdW  Elec       q    Type
REMARK                         _______ _______ _______ _____ _____    ______ ____
ROOT
ATOM      1  C   LIG    1        2.804   2.229   2.012  0.00  0.00    +0.540 C 
ATOM      2  N   LIG    1        2.101   1.460   1.158  0.00  0.00    -0.610 N 
ATOM      3  C   LIG    1        1.312   2.068   0.078  0.00  0.00    +0.270 C 
ATOM      4  C   LIG    1       -0.127   1.548   0.166  0.00  0.00    +0.020 C 
ATOM      5  C   LIG    1       -0.114   0.018   0.150  0.00  0.00    +0.070 C 
ATOM      6  C   LIG    1        0.661  -0.500   1.364  0.00  0.00    +0.030 C 
ATOM      7  C   LIG    1        2.108  -0.004   1.290  0.00  0.00    +0.270 C 
ATOM      8  O   LIG    1        3.376   1.724   2.955  0.00  0.00    -0.520 OA
ENDROOT
BRANCH   5   9
ATOM      9  C   LIG    1       -1.530  -0.496   0.203  0.00  0.00    -0.160 A 
ATOM     10  C   LIG    1       -2.424  -0.275   1.179  0.00  0.00    +0.240 A 
ATOM     11  N   LIG    1       -3.605  -0.898   0.880  0.00  0.00    -0.590 N 
ATOM     12  H   LIG    1       -4.401  -0.880   1.434  0.00  0.00    +0.420 HD
ATOM     13  C   LIG    1       -3.494  -1.560  -0.324  0.00  0.00    +0.090 A 
ATOM     14  C   LIG    1       -4.372  -2.336  -1.072  0.00  0.00    +0.030 A 
ATOM     15  C   LIG    1       -3.960  -2.879  -2.270  0.00  0.00    +0.010 A 
ATOM     16  C   LIG    1       -2.672  -2.659  -2.742  0.00  0.00    +0.070 A 
ATOM     17  C   LIG    1       -1.786  -1.893  -2.015  0.00  0.00    +0.020 A 
ATOM     18  F   LIG    1       -2.285  -3.200  -3.918  0.00  0.00    -0.140 F 
ATOM     19  C   LIG    1       -2.189  -1.337  -0.800  0.00  0.00    -0.080 A 
ENDBRANCH   5   9
BRANCH   1  20
ATOM     20  C   LIG    1        2.881   3.719   1.795  0.00  0.00    -0.120 C 
ATOM     21  C   LIG    1        1.482   4.360   1.943  0.00  0.00    +0.070 C 
ATOM     22  C   LIG    1        1.486   4.785   3.428  0.00  0.00    +0.260 C 
ATOM     23  N   LIG    1        2.899   4.964   3.780  0.00  0.00    -0.730 N 
ATOM     24  H   LIG    1        3.212   5.449   4.561  0.00  0.00    +0.410 HD
ATOM     25  C   LIG    1        3.708   4.370   2.881  0.00  0.00    +0.550 C 
ATOM     26  O   LIG    1        4.920   4.358   2.934  0.00  0.00    -0.500 OA
BRANCH  20  27
ATOM     27  C   LIG    1        3.469   4.028   0.417  0.00  0.00    +0.060 C 
BRANCH  27  29
ATOM     28  C   LIG    1        5.404   3.627  -1.113  0.00  0.00    +0.010 C 
ATOM     29  C   LIG    1        4.816   3.317   0.265  0.00  0.00    +0.010 C 
ENDBRANCH  27  29
ENDBRANCH  20  27
ENDBRANCH   1  20
TORSDOF 4
