REMARK  Name = ZINCrH000004mPFS.0
REMARK                            x       y       z     vdW  Elec       q    Type
REMARK                         _______ _______ _______ _____ _____    ______ ____
ROOT
ATOM      1  N   LIG    1       -0.590   7.823   0.832  0.00  0.00    -0.680 N 
ATOM      2  H   LIG    1       -0.805   8.769   0.860  0.00  0.00    +0.410 HD
ATOM      3  C   LIG    1        0.147   7.330  -0.183  0.00  0.00    +0.710 C 
ATOM      4  N   LIG    1        0.745   8.168  -1.051  0.00  0.00    -0.630 N 
ATOM      5  C   LIG    1        1.434   7.654  -2.245  0.00  0.00    +0.320 C 
ATOM      6  C   LIG    1        0.908   8.416  -3.471  0.00  0.00    +0.180 C 
ATOM      7  N   LIG    1        1.055   9.860  -3.244  0.00  0.00    -0.530 NA
ATOM      8  C   LIG    1        0.239  10.306  -2.107  0.00  0.00    +0.170 C 
ATOM      9  C   LIG    1        0.732   9.622  -0.828  0.00  0.00    +0.270 C 
ATOM     10  O   LIG    1        0.272   6.127  -0.314  0.00  0.00    -0.570 OA
ENDROOT
BRANCH   1  14
ATOM     11  C   LIG    1       -1.945   5.280   3.851  0.00  0.00    +0.100 A 
ATOM     12  C   LIG    1       -1.684   4.779   2.587  0.00  0.00    -0.020 A 
ATOM     13  C   LIG    1       -1.235   5.621   1.586  0.00  0.00    +0.050 A 
ATOM     14  C   LIG    1       -1.045   6.971   1.847  0.00  0.00    +0.160 A 
ATOM     15  C   LIG    1       -1.311   7.478   3.112  0.00  0.00    -0.050 A 
ATOM     16  C   LIG    1       -1.755   6.634   4.115  0.00  0.00    +0.100 A 
BRANCH  11  18
ATOM     17  C   LIG    1       -2.559   3.073   4.492  0.00  0.00    +0.250 C 
ATOM     18  O   LIG    1       -2.387   4.450   4.834  0.00  0.00    -0.310 OA
ENDBRANCH  11  18
BRANCH  16  19
ATOM     19  O   LIG    1       -2.012   7.127   5.357  0.00  0.00    -0.310 OA
BRANCH  19  20
ATOM     20  C   LIG    1       -1.795   8.525   5.556  0.00  0.00    +0.590 C 
ATOM     21  F   LIG    1       -0.454   8.831   5.300  0.00  0.00    -0.200 F 
ATOM     22  F   LIG    1       -2.614   9.253   4.686  0.00  0.00    -0.200 F 
ENDBRANCH  19  20
ENDBRANCH  16  19
ENDBRANCH   1  14
BRANCH   7  23
ATOM     23  C   LIG    1        0.728  10.620  -4.458  0.00  0.00    +0.240 C 
BRANCH  23  24
ATOM     24  C   LIG    1        1.397   9.980  -5.647  0.00  0.00    -0.100 A 
ATOM     25  C   LIG    1        0.809   9.028  -6.374  0.00  0.00    -0.050 A 
ATOM     26  S   LIG    1        1.887   8.527  -7.670  0.00  0.00    +0.100 S 
ATOM     27  C   LIG    1        3.111   9.671  -7.135  0.00  0.00    -0.040 A 
ATOM     28  C   LIG    1        2.665  10.338  -6.070  0.00  0.00    +0.020 A 
ENDBRANCH  23  24
ENDBRANCH   7  23
TORSDOF 6
