REMARK  Name = ZINCrg00000SjSCY.0
REMARK                            x       y       z     vdW  Elec       q    Type
REMARK                         _______ _______ _______ _____ _____    ______ ____
ROOT
ATOM      1  C   LIG    1        1.527   0.036   6.140  0.00  0.00    +0.180 C 
ATOM      2  N   LIG    1        0.494   0.043   7.191  0.00  0.00    -0.710 N 
ATOM      3  H   LIG    1       -0.308  -0.502   7.219  0.00  0.00    +0.440 HD
ATOM      4  C   LIG    1        0.881   0.951   8.104  0.00  0.00    +0.710 C 
ATOM      5  N   LIG    1        2.038   1.540   7.782  0.00  0.00    -0.560 N 
ATOM      6  O   LIG    1        0.250   1.208   9.111  0.00  0.00    -0.540 OA
ATOM      7  C   LIG    1        2.526   1.071   6.616  0.00  0.00    +0.540 C 
ATOM      8  O   LIG    1        3.552   1.407   6.064  0.00  0.00    -0.450 OA
ENDROOT
BRANCH   1   9
ATOM      9  C   LIG    1        0.936   0.440   4.814  0.00  0.00    -0.140 A 
ATOM     10  C   LIG    1       -0.203   1.223   4.776  0.00  0.00    +0.080 A 
ATOM     11  C   LIG    1       -0.747   1.595   3.561  0.00  0.00    -0.010 A 
ATOM     12  C   LIG    1       -0.149   1.182   2.380  0.00  0.00    +0.140 A 
ATOM     13  C   LIG    1        0.991   0.392   2.421  0.00  0.00    -0.080 A 
ATOM     14  C   LIG    1        1.534   0.028   3.638  0.00  0.00    +0.080 A 
BRANCH  12  15
ATOM     15  O   LIG    1       -0.682   1.547   1.184  0.00  0.00    -0.310 OA
ATOM     16  C   LIG    1       -0.013   1.086   0.008  0.00  0.00    +0.250 C 
ENDBRANCH  12  15
ENDBRANCH   1   9
BRANCH   1  18
ATOM     17  C   LIG    1        2.666  -1.782   7.421  0.00  0.00    +0.020 C 
ATOM     18  C   LIG    1        2.185  -1.341   6.037  0.00  0.00    +0.060 C 
ENDBRANCH   1  18
BRANCH   5  19
ATOM     19  C   LIG    1        2.694   2.567   8.595  0.00  0.00    +0.370 C 
BRANCH  19  20
ATOM     20  C   LIG    1        2.210   3.929   8.170  0.00  0.00    +0.500 C 
ATOM     21  N   LIG    1        2.680   5.034   8.783  0.00  0.00    -0.690 N 
ATOM     22  H   LIG    1        3.330   4.951   9.498  0.00  0.00    +0.410 HD
ATOM     23  C   LIG    1        2.247   6.252   8.403  0.00  0.00    +0.690 C 
ATOM     24  N   LIG    1        2.717   7.356   9.017  0.00  0.00    -0.730 N 
ATOM     25  H   LIG    1        3.367   7.274   9.732  0.00  0.00    +0.400 HD
ATOM     26  O   LIG    1        1.432   6.355   7.507  0.00  0.00    -0.530 OA
ATOM     27  O   LIG    1        1.397   4.032   7.276  0.00  0.00    -0.450 OA
BRANCH  24  28
ATOM     28  C   LIG    1        2.246   8.680   8.603  0.00  0.00    +0.240 C 
ATOM     29  C   LIG    1        3.074   9.168   7.413  0.00  0.00    +0.020 C 
ATOM     30  C   LIG    1        2.399   9.662   9.767  0.00  0.00    +0.040 C 
ENDBRANCH  24  28
ENDBRANCH  19  20
ENDBRANCH   5  19
TORSDOF 6
