REMARK  Name = ZINCpe000000ZCif.0
REMARK                            x       y       z     vdW  Elec       q    Type
REMARK                         _______ _______ _______ _____ _____    ______ ____
ROOT
ATOM      1  C   LIG    1        3.581   0.967  -0.027  0.00  0.00    +0.300 C 
ENDROOT
BRANCH   1  14
ATOM      2  O   LIG    1        1.617   3.026   0.003  0.00  0.00    -0.540 OA
ATOM      3  C   LIG    1        1.269   1.861  -0.000  0.00  0.00    +0.700 C 
ATOM      4  N   LIG    1       -0.018   1.464   0.010  0.00  0.00    -0.720 N 
ATOM      5  H   LIG    1       -0.802   2.034   0.017  0.00  0.00    +0.440 HD
ATOM      6  C   LIG    1        0.002  -0.004   0.002  0.00  0.00    +0.120 C 
ATOM      7  C   LIG    1        1.472  -0.353  -0.014  0.00  0.00    +0.540 C 
ATOM      8  O   LIG    1        1.963  -1.461  -0.024  0.00  0.00    -0.450 OA
ATOM      9  C   LIG    1       -0.689  -0.543  -1.247  0.00  0.00    +0.040 C 
ATOM     10  C   LIG    1       -2.183  -0.212  -1.178  0.00  0.00    +0.220 C 
ATOM     11  O   LIG    1       -2.733  -0.754   0.024  0.00  0.00    -0.370 OA
ATOM     12  C   LIG    1       -2.160  -0.225   1.222  0.00  0.00    +0.220 C 
ATOM     13  C   LIG    1       -0.665  -0.556   1.258  0.00  0.00    +0.040 C 
ATOM     14  N   LIG    1        2.122   0.829  -0.014  0.00  0.00    -0.570 N 
ENDBRANCH   1  14
BRANCH   1  15
ATOM     15  C   LIG    1        4.074   1.023  -1.474  0.00  0.00    +0.210 C 
BRANCH  15  16
ATOM     16  O   LIG    1        3.703  -0.180  -2.151  0.00  0.00    -0.540 OA
ATOM     17  H   LIG    1        4.069  -0.983  -1.756  0.00  0.00    +0.380 HD
ENDBRANCH  15  16
BRANCH  15  18
ATOM     18  C   LIG    1        5.597   1.166  -1.489  0.00  0.00    +0.160 C 
BRANCH  18  19
ATOM     19  O   LIG    1        6.047   1.335  -2.834  0.00  0.00    -0.370 OA
BRANCH  19  20
ATOM     20  C   LIG    1        7.463   1.480  -2.960  0.00  0.00    +0.250 C 
BRANCH  20  21
ATOM     21  C   LIG    1        7.824   1.650  -4.413  0.00  0.00    -0.130 A 
ATOM     22  C   LIG    1        6.833   1.649  -5.376  0.00  0.00    +0.070 A 
ATOM     23  C   LIG    1        7.163   1.806  -6.710  0.00  0.00    +0.000 A 
ATOM     24  C   LIG    1        8.486   1.964  -7.081  0.00  0.00    +0.040 A 
ATOM     25  C   LIG    1        9.479   1.966  -6.120  0.00  0.00    -0.010 A 
ATOM     26  C   LIG    1        9.148   1.815  -4.784  0.00  0.00    +0.100 A 
ATOM     27  F   LIG    1       10.117   1.823  -3.842  0.00  0.00    -0.140 F 
ENDBRANCH  20  21
ENDBRANCH  19  20
ENDBRANCH  18  19
ENDBRANCH  15  18
ENDBRANCH   1  15
TORSDOF 7
