REMARK  Name = ZINCqH0000036ilb.0
REMARK                            x       y       z     vdW  Elec       q    Type
REMARK                         _______ _______ _______ _____ _____    ______ ____
ROOT
ATOM      1  N   LIG    1       -1.072   5.354  -0.940  0.00  0.00    -0.660 NA
ATOM      2  H   LIG    1       -0.064   5.378  -0.944  0.00  0.00    +0.360 HD
ENDROOT
BRANCH   1   3
ATOM      3  C   LIG    1       -1.598   5.069  -2.282  0.00  0.00    +0.220 C 
ATOM      4  C   LIG    1       -0.712   4.027  -2.966  0.00  0.00    +0.020 C 
BRANCH   3   9
ATOM      5  C   LIG    1       -2.492   7.645  -4.908  0.00  0.00    +0.100 A 
ATOM      6  C   LIG    1       -1.613   8.669  -4.594  0.00  0.00    -0.070 A 
ATOM      7  C   LIG    1       -0.733   8.525  -3.537  0.00  0.00    +0.040 A 
ATOM      8  C   LIG    1       -0.733   7.364  -2.787  0.00  0.00    +0.010 A 
ATOM      9  C   LIG    1       -1.605   6.336  -3.098  0.00  0.00    -0.060 A 
ATOM     10  C   LIG    1       -2.488   6.474  -4.156  0.00  0.00    +0.080 A 
BRANCH   5  12
ATOM     11  C   LIG    1       -3.305   9.014  -6.674  0.00  0.00    +0.250 C 
ATOM     12  O   LIG    1       -3.358   7.785  -5.947  0.00  0.00    -0.310 OA
ENDBRANCH   5  12
BRANCH  10  13
ATOM     13  O   LIG    1       -3.350   5.467  -4.459  0.00  0.00    -0.480 OA
ATOM     14  H   LIG    1       -4.200   5.524  -4.001  0.00  0.00    +0.380 HD
ENDBRANCH  10  13
ENDBRANCH   3   9
ENDBRANCH   1   3
BRANCH   1  15
ATOM     15  C   LIG    1       -1.572   4.380   0.039  0.00  0.00    +0.320 C 
BRANCH  15  16
ATOM     16  C   LIG    1       -1.554   4.995   1.415  0.00  0.00    -0.100 A 
ATOM     17  C   LIG    1       -0.750   6.089   1.672  0.00  0.00    +0.090 A 
ATOM     18  C   LIG    1       -0.738   6.658   2.932  0.00  0.00    +0.000 A 
ATOM     19  C   LIG    1       -1.520   6.125   3.939  0.00  0.00    +0.040 A 
ATOM     20  C   LIG    1       -2.321   5.027   3.686  0.00  0.00    -0.030 A 
ATOM     21  C   LIG    1       -2.338   4.461   2.423  0.00  0.00    +0.100 A 
ATOM     22  F   LIG    1       -3.120   3.387   2.174  0.00  0.00    -0.140 F 
ENDBRANCH  15  16
BRANCH  15  23
ATOM     23  C   LIG    1       -0.692   3.157   0.024  0.00  0.00    +0.180 A 
ATOM     24  N   LIG    1        0.613   3.159   0.012  0.00  0.00    -0.480 NA
ATOM     25  C   LIG    1        1.058   1.893   0.002  0.00  0.00    +0.150 A 
ATOM     26  C   LIG    1       -0.013   1.076   0.008  0.00  0.00    +0.120 A 
ATOM     27  N   LIG    1       -1.123   1.877   0.017  0.00  0.00    -0.450 N 
ATOM     28  C   LIG    1       -2.518   1.429   0.020  0.00  0.00    +0.320 C 
ENDBRANCH  15  23
ENDBRANCH   1  15
TORSDOF 7
