REMARK  Name = ZINCpe00000yioED.0
REMARK                            x       y       z     vdW  Elec       q    Type
REMARK                         _______ _______ _______ _____ _____    ______ ____
ROOT
ATOM      1  N   LIG    1        2.255   4.293   0.004  0.00  0.00    -0.710 N 
ATOM      2  H   LIG    1        3.116   3.845  -0.007  0.00  0.00    +0.410 HD
ATOM      3  C   LIG    1        1.119   3.568   0.011  0.00  0.00    +0.580 C 
ATOM      4  O   LIG    1        0.041   4.129   0.024  0.00  0.00    -0.530 OA
ENDROOT
BRANCH   3   5
ATOM      5  C   LIG    1        1.184   2.088   0.002  0.00  0.00    +0.090 A 
ATOM      6  N   LIG    1        2.363   1.504  -0.012  0.00  0.00    -0.390 NA
ATOM      7  C   LIG    1        2.475   0.173  -0.021  0.00  0.00    -0.040 A 
ATOM      8  C   LIG    1        3.543  -0.712  -0.036  0.00  0.00    +0.320 A 
ATOM      9  N   LIG    1        3.047  -1.955  -0.038  0.00  0.00    -0.400 N 
ATOM     10  H   LIG    1        3.580  -2.766  -0.048  0.00  0.00    +0.450 HD
ATOM     11  N   LIG    1        1.649  -1.914  -0.024  0.00  0.00    -0.290 NA
ATOM     12  C   LIG    1        1.257  -0.655  -0.013  0.00  0.00    +0.070 A 
ATOM     13  C   LIG    1        0.002  -0.004   0.002  0.00  0.00    +0.090 A 
ATOM     14  C   LIG    1       -0.016   1.356   0.009  0.00  0.00    +0.070 A 
ENDBRANCH   3   5
BRANCH   1  15
ATOM     15  C   LIG    1        2.191   5.756   0.012  0.00  0.00    +0.290 C 
BRANCH  15  16
ATOM     16  C   LIG    1        3.609   6.329   0.002  0.00  0.00    +0.140 C 
BRANCH  16  21
ATOM     17  C   LIG    1        3.446   9.809  -1.167  0.00  0.00    +0.150 A 
ATOM     18  C   LIG    1        3.426  10.511   0.038  0.00  0.00    +0.000 A 
ATOM     19  C   LIG    1        3.469   9.788   1.221  0.00  0.00    +0.350 A 
ATOM     20  N   LIG    1        3.526   8.468   1.167  0.00  0.00    -0.490 NA
ATOM     21  C   LIG    1        3.543   7.835   0.010  0.00  0.00    +0.320 A 
ATOM     22  N   LIG    1        3.509   8.479  -1.136  0.00  0.00    -0.470 NA
BRANCH  17  23
ATOM     23  C   LIG    1        3.402  10.531  -2.463  0.00  0.00    +0.520 C 
ATOM     24  O   LIG    1        3.349  11.744  -2.480  0.00  0.00    -0.490 OA
BRANCH  23  25
ATOM     25  O   LIG    1        3.422   9.841  -3.619  0.00  0.00    -0.330 OA
BRANCH  25  27
ATOM     26  C   LIG    1        3.407   9.665  -6.048  0.00  0.00    +0.070 C 
ATOM     27  C   LIG    1        3.377  10.614  -4.848  0.00  0.00    +0.200 C 
ENDBRANCH  25  27
ENDBRANCH  23  25
ENDBRANCH  17  23
ENDBRANCH  16  21
ENDBRANCH  15  16
ENDBRANCH   1  15
TORSDOF 7
