REMARK  Name = ZINCnE000008J3u5.0
REMARK                            x       y       z     vdW  Elec       q    Type
REMARK                         _______ _______ _______ _____ _____    ______ ____
ROOT
ATOM      1  C   LIG    1        2.096   0.750  -1.316  0.00  0.00    +0.540 C 
ATOM      2  N   LIG    1        3.288   1.379  -1.326  0.00  0.00    -0.690 N 
ATOM      3  H   LIG    1        3.613   1.814  -0.523  0.00  0.00    +0.390 HD
ATOM      4  O   LIG    1        1.647   0.284  -2.342  0.00  0.00    -0.520 OA
ENDROOT
BRANCH   1   7
ATOM      5  C   LIG    1       -0.025  -0.100  -0.084  0.00  0.00    +0.080 C 
ATOM      6  C   LIG    1        0.019   1.419   0.090  0.00  0.00    +0.060 C 
ATOM      7  C   LIG    1        1.321   0.625  -0.030  0.00  0.00    -0.040 C 
BRANCH   5  12
ATOM      8  C   LIG    1       -1.615  -1.107  -5.224  0.00  0.00    +0.120 C 
ATOM      9  C   LIG    1       -1.203  -1.096  -3.775  0.00  0.00    -0.210 A 
ATOM     10  C   LIG    1       -1.128  -2.172  -2.989  0.00  0.00    -0.010 A 
ATOM     11  C   LIG    1       -0.726  -1.917  -1.689  0.00  0.00    -0.010 A 
ATOM     12  C   LIG    1       -0.475  -0.635  -1.419  0.00  0.00    -0.130 A 
ATOM     13  S   LIG    1       -0.756   0.337  -2.858  0.00  0.00    +0.180 S 
ENDBRANCH   5  12
ENDBRANCH   1   7
BRANCH   2  14
ATOM     14  C   LIG    1        4.093   1.404  -2.550  0.00  0.00    +0.300 C 
BRANCH  14  15
ATOM     15  C   LIG    1        3.664   2.566  -3.409  0.00  0.00    -0.070 A 
ATOM     16  C   LIG    1        3.353   3.780  -2.825  0.00  0.00    +0.010 A 
ATOM     17  C   LIG    1        2.964   4.847  -3.613  0.00  0.00    +0.000 A 
ATOM     18  C   LIG    1        2.876   4.697  -4.985  0.00  0.00    -0.020 A 
ATOM     19  C   LIG    1        3.182   3.482  -5.568  0.00  0.00    +0.000 A 
ATOM     20  C   LIG    1        3.576   2.416  -4.781  0.00  0.00    +0.010 A 
ENDBRANCH  14  15
BRANCH  14  21
ATOM     21  C   LIG    1        5.571   1.557  -2.186  0.00  0.00    -0.060 C 
BRANCH  21  22
ATOM     22  C   LIG    1        6.035   0.330  -1.445  0.00  0.00    +0.490 C 
ATOM     23  O   LIG    1        7.208   0.214  -1.134  0.00  0.00    -0.710 OA
ATOM     24  O   LIG    1        5.238  -0.546  -1.157  0.00  0.00    -0.680 OA
ENDBRANCH  21  22
ENDBRANCH  14  21
ENDBRANCH   2  14
TORSDOF 6
