REMARK  Name = ZINCrg000000r8pZ.0
REMARK                            x       y       z     vdW  Elec       q    Type
REMARK                         _______ _______ _______ _____ _____    ______ ____
ROOT
ATOM      1  C   LIG    1        7.896  -0.577   1.451  0.00  0.00    +0.280 C 
ENDROOT
BRANCH   1   3
ATOM      2  C   LIG    1        9.730  -2.179   1.533  0.00  0.00    +0.540 C 
ATOM      3  N   LIG    1        8.403  -1.951   1.468  0.00  0.00    -0.720 N 
ATOM      4  H   LIG    1        7.784  -2.697   1.433  0.00  0.00    +0.400 HD
ATOM      5  O   LIG    1       10.506  -1.245   1.577  0.00  0.00    -0.500 OA
BRANCH   2  11
ATOM      6  C   LIG    1       11.615  -3.806   1.612  0.00  0.00    -0.610 A 
ATOM      7  C   LIG    1       12.085  -5.103   1.633  0.00  0.00    +0.120 A 
ATOM      8  C   LIG    1       11.199  -6.165   1.583  0.00  0.00    +0.030 A 
ATOM      9  C   LIG    1        9.837  -5.934   1.517  0.00  0.00    +0.060 A 
ATOM     10  C   LIG    1        9.353  -4.642   1.501  0.00  0.00    +0.030 A 
ATOM     11  C   LIG    1       10.241  -3.567   1.551  0.00  0.00    -0.050 A 
BRANCH   6  13
ATOM     12  C   LIG    1       12.539  -1.626   0.068  0.00  0.00    -0.250 C 
ATOM     13  S   LIG    1       12.746  -2.456   1.668  0.00  0.00    +2.510 S 
ATOM     14  O   LIG    1       14.024  -3.072   1.749  0.00  0.00    -0.950 OA
ATOM     15  O   LIG    1       12.259  -1.636   2.722  0.00  0.00    -0.910 OA
ENDBRANCH   6  13
ENDBRANCH   2  11
ENDBRANCH   1   3
BRANCH   1  16
ATOM     16  C   LIG    1        6.369  -0.597   1.375  0.00  0.00    +0.010 C 
BRANCH  16  17
ATOM     17  C   LIG    1        5.839   0.838   1.356  0.00  0.00    +0.320 C 
BRANCH  17  18
ATOM     18  N   LIG    1        4.376   0.818   1.283  0.00  0.00    -0.580 N 
ATOM     19  C   LIG    1        3.568   0.801   2.353  0.00  0.00    +0.700 C 
ATOM     20  N   LIG    1        2.263   0.786   2.010  0.00  0.00    -0.710 N 
ATOM     21  H   LIG    1        1.502   0.772   2.611  0.00  0.00    +0.440 HD
ATOM     22  C   LIG    1        2.230   0.793   0.551  0.00  0.00    +0.110 C 
ATOM     23  C   LIG    1        1.455   1.999  -0.001  0.00  0.00    +0.050 C 
ATOM     24  C   LIG    1       -0.019   1.536   0.011  0.00  0.00    +0.030 C 
ATOM     25  C   LIG    1        0.002  -0.004   0.002  0.00  0.00    +0.030 C 
ATOM     26  C   LIG    1        1.488  -0.427  -0.014  0.00  0.00    +0.050 C 
ATOM     27  O   LIG    1        3.966   0.800   3.501  0.00  0.00    -0.530 OA
ATOM     28  C   LIG    1        3.672   0.815   0.129  0.00  0.00    +0.540 C 
ATOM     29  O   LIG    1        4.110   0.827  -1.002  0.00  0.00    -0.460 OA
ENDBRANCH  17  18
ENDBRANCH  16  17
ENDBRANCH   1  16
TORSDOF 6
