REMARK  Name = ZINCvU00000006Wu.0
REMARK                            x       y       z     vdW  Elec       q    Type
REMARK                         _______ _______ _______ _____ _____    ______ ____
ROOT
ATOM      1  C   LIG    1       -0.455  -4.991   2.872  0.00  0.00    +0.140 C 
ATOM      2  C   LIG    1        0.562  -5.456   3.917  0.00  0.00    +0.040 C 
ATOM      3  C   LIG    1        0.697  -4.385   5.003  0.00  0.00    +0.000 C 
ATOM      4  C   LIG    1        1.118  -3.063   4.355  0.00  0.00    +0.030 C 
ATOM      5  C   LIG    1        0.085  -2.667   3.297  0.00  0.00    +0.160 C 
ATOM      6  N   LIG    1       -0.007  -3.723   2.281  0.00  0.00    -0.470 NA
ENDROOT
BRANCH   1  12
ATOM      7  C   LIG    1        1.849  -5.715   1.224  0.00  0.00    +0.650 C 
ATOM      8  N   LIG    1        0.757  -6.497   1.341  0.00  0.00    -0.600 N 
ATOM      9  C   LIG    1        0.702  -7.938   1.055  0.00  0.00    +0.250 C 
ATOM     10  C   LIG    1       -0.737  -8.409   1.353  0.00  0.00    +0.030 C 
ATOM     11  C   LIG    1       -1.263  -7.324   2.328  0.00  0.00    +0.040 C 
ATOM     12  C   LIG    1       -0.579  -6.049   1.774  0.00  0.00    +0.240 C 
ATOM     13  O   LIG    1        1.801  -4.550   1.568  0.00  0.00    -0.480 OA
BRANCH   7  14
ATOM     14  O   LIG    1        2.992  -6.223   0.727  0.00  0.00    -0.370 OA
BRANCH  14  16
ATOM     15  C   LIG    1        4.482  -4.799   2.023  0.00  0.00    +0.020 C 
ATOM     16  C   LIG    1        4.127  -5.323   0.630  0.00  0.00    +0.140 C 
ATOM     17  C   LIG    1        3.769  -4.148  -0.281  0.00  0.00    +0.030 C 
ATOM     18  C   LIG    1        5.326  -6.074   0.048  0.00  0.00    +0.060 C 
ENDBRANCH  14  16
ENDBRANCH   7  14
ENDBRANCH   1  12
BRANCH   6  19
ATOM     19  C   LIG    1       -0.887  -3.317   1.177  0.00  0.00    +0.300 C 
BRANCH  19  20
ATOM     20  C   LIG    1       -0.288  -2.129   0.469  0.00  0.00    +0.220 A 
ATOM     21  N   LIG    1        0.534  -2.185  -0.541  0.00  0.00    -0.450 NA
ATOM     22  C   LIG    1        0.857  -0.936  -0.909  0.00  0.00    +0.170 A 
ATOM     23  C   LIG    1        0.199  -0.084  -0.082  0.00  0.00    -0.020 A 
ATOM     24  O   LIG    1       -0.510  -0.844   0.781  0.00  0.00    -0.190 OA
BRANCH  23  25
ATOM     25  C   LIG    1        0.253   1.393  -0.115  0.00  0.00    -0.010 A 
ATOM     26  C   LIG    1        1.484   2.049  -0.148  0.00  0.00    +0.060 A 
ATOM     27  C   LIG    1        1.528   3.428  -0.179  0.00  0.00    +0.030 A 
ATOM     28  C   LIG    1        0.355   4.161  -0.175  0.00  0.00    +0.040 A 
ATOM     29  C   LIG    1       -0.870   3.518  -0.142  0.00  0.00    +0.030 A 
ATOM     30  C   LIG    1       -0.928   2.139  -0.118  0.00  0.00    -0.020 A 
ATOM     31 CL   LIG    1       -2.466   1.333  -0.083  0.00  0.00    -0.050 Cl
ENDBRANCH  23  25
ENDBRANCH  19  20
ENDBRANCH   6  19
TORSDOF 6
