REMARK  Name = ZINCrg00000Y3Nur.0
REMARK                            x       y       z     vdW  Elec       q    Type
REMARK                         _______ _______ _______ _____ _____    ______ ____
ROOT
ATOM      1  C   LIG    1       -2.256  -3.003   2.575  0.00  0.00    +0.080 C 
ATOM      2  C   LIG    1       -3.095  -1.752   2.891  0.00  0.00    +0.270 C 
ATOM      3  N   LIG    1       -3.912  -2.641   3.743  0.00  0.00    -0.640 N 
ATOM      4  C   LIG    1       -5.184  -2.613   4.189  0.00  0.00    +0.540 C 
ATOM      5  O   LIG    1       -5.598  -3.508   4.895  0.00  0.00    -0.530 OA
ATOM      6  C   LIG    1       -2.779  -3.571   3.907  0.00  0.00    +0.310 C 
ENDROOT
BRANCH   1   7
ATOM      7  O   LIG    1       -2.707  -3.723   1.426  0.00  0.00    -0.530 OA
ATOM      8  H   LIG    1       -2.404  -3.352   0.586  0.00  0.00    +0.380 HD
ENDBRANCH   1   7
BRANCH   1   9
ATOM      9  C   LIG    1       -0.747  -2.747   2.565  0.00  0.00    +0.300 C 
BRANCH   9  11
ATOM     10  C   LIG    1       -0.006  -2.835   0.140  0.00  0.00    +0.300 C 
ATOM     11  N   LIG    1       -0.377  -2.059   1.326  0.00  0.00    -0.620 N 
ATOM     12  C   LIG    1       -0.379  -0.712   1.277  0.00  0.00    +0.550 C 
ATOM     13  O   LIG    1       -0.686  -0.070   2.259  0.00  0.00    -0.530 OA
BRANCH  12  14
ATOM     14  C   LIG    1        0.002  -0.004   0.002  0.00  0.00    -0.050 C 
ATOM     15  C   LIG    1        1.317   0.779  -0.006  0.00  0.00    +0.080 C 
ATOM     16  C   LIG    1       -0.019   1.526   0.010  0.00  0.00    +0.100 C 
BRANCH  16  17
ATOM     17  C   LIG    1       -0.442   2.223  -1.257  0.00  0.00    -0.200 A 
ATOM     18  C   LIG    1       -1.485   3.048  -1.390  0.00  0.00    +0.220 A 
ATOM     19  N   LIG    1       -1.645   3.536  -2.603  0.00  0.00    -0.470 NA
ATOM     20  C   LIG    1       -0.800   3.161  -3.504  0.00  0.00    +0.220 A 
ATOM     21  S   LIG    1        0.346   2.088  -2.827  0.00  0.00    +0.120 S 
ENDBRANCH  16  17
ENDBRANCH  12  14
ENDBRANCH   9  11
ENDBRANCH   1   9
BRANCH   4  22
ATOM     22  C   LIG    1       -6.090  -1.470   3.812  0.00  0.00    +0.060 C 
BRANCH  22  23
ATOM     23  C   LIG    1       -7.467  -1.680   4.444  0.00  0.00    -0.020 C 
ATOM     24  C   LIG    1       -8.423  -0.583   3.967  0.00  0.00    +0.010 C 
ATOM     25  C   LIG    1       -9.775  -0.758   4.666  0.00  0.00    -0.020 C 
ATOM     26  C   LIG    1       -9.564  -0.726   6.182  0.00  0.00    +0.200 C 
ATOM     27  O   LIG    1       -8.641  -1.752   6.555  0.00  0.00    -0.380 OA
ATOM     28  C   LIG    1       -7.346  -1.613   5.969  0.00  0.00    +0.210 C 
ENDBRANCH  22  23
ENDBRANCH   4  22
TORSDOF 7
