REMARK  Name = ZINCtV00001bB3HE.0
REMARK                            x       y       z     vdW  Elec       q    Type
REMARK                         _______ _______ _______ _____ _____    ______ ____
ROOT
ATOM      1  C   LIG    1        0.606  -3.615   1.211  0.00  0.00    +0.140 C 
ATOM      2  N   LIG    1        0.218  -3.660  -0.022  0.00  0.00    -0.200 NA
ATOM      3  N   LIG    1        0.803  -2.691  -0.839  0.00  0.00    -0.460 N 
ATOM      4  C   LIG    1        1.717  -1.875  -0.024  0.00  0.00    +0.320 C 
ATOM      5  C   LIG    1        1.600  -2.489   1.385  0.00  0.00    +0.100 C 
ENDROOT
BRANCH   3   6
ATOM      6  C   LIG    1        0.562  -2.521  -2.202  0.00  0.00    +0.230 A 
ATOM      7  C   LIG    1        1.207  -1.509  -2.903  0.00  0.00    -0.050 A 
ATOM      8  C   LIG    1        0.971  -1.348  -4.254  0.00  0.00    +0.050 A 
ATOM      9  C   LIG    1        0.084  -2.185  -4.907  0.00  0.00    -0.040 A 
ATOM     10  C   LIG    1       -0.564  -3.189  -4.212  0.00  0.00    +0.050 A 
ATOM     11  C   LIG    1       -0.328  -3.361  -2.862  0.00  0.00    -0.030 A 
ENDBRANCH   3   6
BRANCH   1  15
ATOM     12  C   LIG    1       -0.075  -5.452   4.251  0.00  0.00    +0.040 A 
ATOM     13  C   LIG    1       -0.898  -6.139   3.384  0.00  0.00    -0.030 A 
ATOM     14  C   LIG    1       -0.754  -5.542   2.127  0.00  0.00    +0.020 A 
ATOM     15  C   LIG    1        0.152  -4.513   2.274  0.00  0.00    +0.040 A 
ATOM     16  O   LIG    1        0.553  -4.479   3.560  0.00  0.00    -0.160 OA
BRANCH  12  18
ATOM     17  C   LIG    1        0.935  -4.983   6.418  0.00  0.00    +0.050 C 
ATOM     18  C   LIG    1        0.093  -5.734   5.676  0.00  0.00    +0.060 C 
BRANCH  17  22
ATOM     19  C   LIG    1        1.422  -5.802  10.551  0.00  0.00    +0.010 A 
ATOM     20  C   LIG    1        2.127  -4.764   9.967  0.00  0.00    +0.010 A 
ATOM     21  C   LIG    1        1.975  -4.492   8.624  0.00  0.00    +0.030 A 
ATOM     22  C   LIG    1        1.104  -5.267   7.851  0.00  0.00    -0.070 A 
ATOM     23  C   LIG    1        0.390  -6.311   8.450  0.00  0.00    +0.020 A 
ATOM     24  C   LIG    1        0.558  -6.574   9.793  0.00  0.00    +0.010 A 
ENDBRANCH  17  22
ENDBRANCH  12  18
ENDBRANCH   1  15
BRANCH   4  25
ATOM     25  C   LIG    1        1.274  -0.435  -0.012  0.00  0.00    -0.030 A 
ATOM     26  C   LIG    1        2.086   0.638  -0.014  0.00  0.00    -0.040 A 
ATOM     27  C   LIG    1        1.254   1.781  -0.000  0.00  0.00    -0.060 A 
ATOM     28  C   LIG    1       -0.016   1.339   0.009  0.00  0.00    +0.170 A 
ATOM     29  O   LIG    1        0.002  -0.004   0.002  0.00  0.00    -0.160 OA
ENDBRANCH   4  25
TORSDOF 5
