REMARK  Name = ZINCpk00000xIc29.0
REMARK                            x       y       z     vdW  Elec       q    Type
REMARK                         _______ _______ _______ _____ _____    ______ ____
ROOT
ATOM      1  S   LIG    1        2.774   8.130   1.461  0.00  0.00    +2.610 S 
ATOM      2  O   LIG    1        1.530   8.817   1.464  0.00  0.00    -0.930 OA
ATOM      3  O   LIG    1        3.885   8.630   0.728  0.00  0.00    -0.930 OA
ENDROOT
BRANCH   1   5
ATOM      4  C   LIG    1        4.680   7.947   3.372  0.00  0.00    +0.320 C 
ATOM      5  N   LIG    1        3.272   8.179   3.040  0.00  0.00    -0.990 NA
BRANCH   5   6
ATOM      6  C   LIG    1        2.304   8.454   4.105  0.00  0.00    +0.430 C 
BRANCH   6   7
ATOM      7  C   LIG    1        1.775   7.153   4.651  0.00  0.00    +0.190 A 
ATOM      8  N   LIG    1        2.385   6.386   5.514  0.00  0.00    -0.460 NA
ATOM      9  C   LIG    1        1.620   5.315   5.771  0.00  0.00    +0.170 A 
ATOM     10  C   LIG    1        0.494   5.421   5.040  0.00  0.00    +0.150 A 
ATOM     11  N   LIG    1        0.590   6.589   4.333  0.00  0.00    -0.510 N 
BRANCH  11  12
ATOM     12  C   LIG    1       -0.407   7.127   3.404  0.00  0.00    +0.630 C 
ATOM     13  F   LIG    1       -0.002   6.874   2.089  0.00  0.00    -0.180 F 
ATOM     14  F   LIG    1       -0.528   8.507   3.597  0.00  0.00    -0.160 F 
ENDBRANCH  11  12
ENDBRANCH   6   7
ENDBRANCH   5   6
ENDBRANCH   1   5
BRANCH   1  15
ATOM     15  C   LIG    1        2.527   6.366   1.118  0.00  0.00    -0.390 C 
BRANCH  15  16
ATOM     16  C   LIG    1        1.956   6.196  -0.291  0.00  0.00    +0.380 C 
BRANCH  16  17
ATOM     17  N   LIG    1        1.756   4.771  -0.568  0.00  0.00    -0.390 N 
ATOM     18  N   LIG    1        2.684   3.889  -1.141  0.00  0.00    -0.000 NA
ATOM     19  N   LIG    1        2.161   2.717  -1.232  0.00  0.00    -0.210 NA
ATOM     20  C   LIG    1        0.902   2.728  -0.749  0.00  0.00    -0.020 A 
ATOM     21  C   LIG    1       -0.081   1.738  -0.619  0.00  0.00    +0.110 A 
ATOM     22  C   LIG    1       -1.296   2.052  -0.084  0.00  0.00    +0.010 A 
ATOM     23  C   LIG    1       -1.570   3.343   0.348  0.00  0.00    +0.080 A 
ATOM     24  C   LIG    1       -0.621   4.334   0.231  0.00  0.00    +0.000 A 
ATOM     25  C   LIG    1        0.622   4.036  -0.318  0.00  0.00    +0.090 A 
ENDBRANCH  16  17
ENDBRANCH  15  16
ENDBRANCH   1  15
TORSDOF 7
