REMARK  Name = ZINCtj00000mhDrd.0
REMARK                            x       y       z     vdW  Elec       q    Type
REMARK                         _______ _______ _______ _____ _____    ______ ____
ROOT
ATOM      1  N   LIG    1       -1.121   1.899   1.184  0.00  0.00    -0.450 N 
ATOM      2  C   LIG    1       -1.248   3.003   0.215  0.00  0.00    +0.250 C 
ATOM      3  C   LIG    1       -2.564   2.780  -0.561  0.00  0.00    +0.060 C 
ATOM      4  C   LIG    1       -3.388   1.881   0.398  0.00  0.00    +0.170 C 
ATOM      5  C   LIG    1       -2.281   0.997   1.025  0.00  0.00    +0.260 C 
ENDROOT
BRANCH   1  11
ATOM      6  C   LIG    1        3.801   1.824   1.033  0.00  0.00    +0.160 C 
ATOM      7  C   LIG    1        2.457   1.153   0.921  0.00  0.00    +0.190 A 
ATOM      8  N   LIG    1        2.375  -0.136   0.632  0.00  0.00    -0.490 NA
ATOM      9  C   LIG    1        1.200  -0.738   0.530  0.00  0.00    +0.310 A 
ATOM     10  N   LIG    1        0.064  -0.082   0.710  0.00  0.00    -0.510 NA
ATOM     11  C   LIG    1        0.070   1.214   1.002  0.00  0.00    +0.330 A 
ATOM     12  C   LIG    1        1.295   1.877   1.117  0.00  0.00    -0.170 A 
ATOM     13  C   LIG    1        1.348   3.346   1.446  0.00  0.00    +0.130 C 
BRANCH   9  14
ATOM     14  C   LIG    1        1.155  -2.187   0.205  0.00  0.00    +0.580 C 
ATOM     15  N   LIG    1        2.286  -2.836  -0.137  0.00  0.00    -0.590 N 
ATOM     16  C   LIG    1        3.566  -2.124  -0.145  0.00  0.00    +0.310 C 
ATOM     17  C   LIG    1        2.234  -4.255  -0.500  0.00  0.00    +0.300 C 
ATOM     18  O   LIG    1        0.099  -2.786   0.247  0.00  0.00    -0.510 OA
ENDBRANCH   9  14
ENDBRANCH   1  11
BRANCH   4  19
ATOM     19  N   LIG    1       -4.356   1.066  -0.347  0.00  0.00    -0.500 N 
ATOM     20  H   LIG    1       -4.803   0.416   0.283  0.00  0.00    +0.430 HD
ATOM     21  H   LIG    1       -3.877   0.555  -1.073  0.00  0.00    +0.430 HD
BRANCH  19  22
ATOM     22  C   LIG    1       -5.371   1.940  -0.951  0.00  0.00    +0.370 C 
BRANCH  22  23
ATOM     23  C   LIG    1       -6.364   1.103  -1.715  0.00  0.00    +0.000 A 
ATOM     24  C   LIG    1       -6.278   0.756  -3.021  0.00  0.00    -0.200 A 
ATOM     25  C   LIG    1       -5.402   0.899  -4.246  0.00  0.00    +0.110 C 
ATOM     26  C   LIG    1       -5.866  -0.213  -5.211  0.00  0.00    +0.050 C 
ATOM     27  C   LIG    1       -7.334  -0.435  -4.789  0.00  0.00    +0.150 C 
ATOM     28  C   LIG    1       -7.397  -0.022  -3.335  0.00  0.00    +0.060 A 
ATOM     29  N   LIG    1       -8.132  -0.131  -2.256  0.00  0.00    -0.230 NA
ATOM     30  N   LIG    1       -7.501   0.570  -1.221  0.00  0.00    -0.360 N 
ATOM     31  C   LIG    1       -7.988   0.702   0.154  0.00  0.00    +0.370 C 
ENDBRANCH  22  23
ENDBRANCH  19  22
ENDBRANCH   4  19
TORSDOF 5
