REMARK  Name = ZINCpk00001AZiRX.0
REMARK                            x       y       z     vdW  Elec       q    Type
REMARK                         _______ _______ _______ _____ _____    ______ ____
ROOT
ATOM      1  N   LIG    1       -0.355  -4.133  -0.969  0.00  0.00    -0.250 N 
ATOM      2  N   LIG    1       -0.019  -2.899  -0.801  0.00  0.00    -0.260 NA
ATOM      3  C   LIG    1       -1.084  -2.174  -0.497  0.00  0.00    -0.010 A 
ATOM      4  C   LIG    1       -2.176  -3.052  -0.486  0.00  0.00    -0.140 A 
ATOM      5  C   LIG    1       -3.633  -2.800  -0.208  0.00  0.00    +0.110 C 
ATOM      6  C   LIG    1       -4.299  -4.161   0.050  0.00  0.00    +0.140 C 
ATOM      7  C   LIG    1       -5.820  -3.996   0.026  0.00  0.00    +0.080 C 
ATOM      8  O   LIG    1       -3.905  -5.089  -0.964  0.00  0.00    -0.360 OA
ATOM      9  C   LIG    1       -2.536  -5.511  -0.885  0.00  0.00    +0.250 C 
ATOM     10  C   LIG    1       -2.166  -6.304  -2.141  0.00  0.00    +0.070 C 
ATOM     11  C   LIG    1       -1.675  -4.278  -0.790  0.00  0.00    -0.030 A 
ENDROOT
BRANCH   3  12
ATOM     12  C   LIG    1       -1.115  -0.722  -0.228  0.00  0.00    +0.610 C 
ATOM     13  N   LIG    1        0.023  -0.003  -0.275  0.00  0.00    -0.720 N 
ATOM     14  H   LIG    1        0.864  -0.439  -0.485  0.00  0.00    +0.410 HD
ATOM     15  O   LIG    1       -2.169  -0.176   0.036  0.00  0.00    -0.520 OA
BRANCH  13  16
ATOM     16  C   LIG    1       -0.008   1.437  -0.008  0.00  0.00    +0.350 C 
BRANCH  16  17
ATOM     17  C   LIG    1        1.419   1.990  -0.021  0.00  0.00    +0.060 C 
ATOM     18  C   LIG    1        1.611   3.437  -0.478  0.00  0.00    +0.090 C 
ATOM     19  C   LIG    1        2.050   2.283  -1.384  0.00  0.00    +0.100 C 
BRANCH  17  20
ATOM     20  N   LIG    1        2.299   1.492   1.039  0.00  0.00    -0.260 N 
ATOM     21  C   LIG    1        1.979   1.383   2.349  0.00  0.00    +0.150 A 
ATOM     22  C   LIG    1        3.076   0.884   2.965  0.00  0.00    +0.140 A 
ATOM     23  N   LIG    1        4.001   0.713   2.014  0.00  0.00    -0.270 NA
ATOM     24  N   LIG    1        3.508   1.077   0.883  0.00  0.00    -0.080 NA
ENDBRANCH  17  20
ENDBRANCH  16  17
ENDBRANCH  13  16
ENDBRANCH   3  12
BRANCH   1  26
ATOM     25  C   LIG    1        0.675  -5.337  -2.832  0.00  0.00    +0.060 C 
ATOM     26  C   LIG    1        0.571  -5.216  -1.310  0.00  0.00    +0.320 C 
ENDBRANCH   1  26
TORSDOF 5
