REMARK  Name = ZINCpk00001AZirx.1
REMARK                            x       y       z     vdW  Elec       q    Type
REMARK                         _______ _______ _______ _____ _____    ______ ____
ROOT
ATOM      1  C   LIG    1        0.004   3.185   3.435  0.00  0.00    -0.130 A 
ATOM      2  C   LIG    1        0.130   1.795   3.492  0.00  0.00    +0.060 A 
ATOM      3  C   LIG    1        0.588   1.188   4.644  0.00  0.00    +0.020 A 
ATOM      4  C   LIG    1        0.912   1.947   5.751  0.00  0.00    +0.070 A 
ATOM      5  C   LIG    1        0.786   3.337   5.709  0.00  0.00    -0.070 A 
ATOM      6  C   LIG    1        0.331   3.957   4.549  0.00  0.00    +0.100 A 
ENDROOT
BRANCH   5   7
ATOM      7  C   LIG    1        1.135   4.150   6.897  0.00  0.00    +0.050 A 
ATOM      8  C   LIG    1        0.397   4.037   8.068  0.00  0.00    +0.050 A 
ATOM      9  C   LIG    1        0.755   4.814   9.175  0.00  0.00    +0.400 A 
ATOM     10  N   LIG    1        0.243   4.911  10.406  0.00  0.00    -0.580 NA
ATOM     11  C   LIG    1        0.932   5.804  11.111  0.00  0.00    +0.650 A 
ATOM     12  N   LIG    1        1.915   6.308  10.337  0.00  0.00    -0.540 N 
ATOM     13  H   LIG    1        2.568   6.977  10.595  0.00  0.00    +0.440 HD
ATOM     14  O   LIG    1        0.710   6.118  12.268  0.00  0.00    -0.530 OA
ATOM     15  N   LIG    1        1.811   5.678   9.087  0.00  0.00    -0.290 N 
ATOM     16  C   LIG    1        2.527   5.792   7.941  0.00  0.00    +0.310 A 
ATOM     17  C   LIG    1        2.217   5.054   6.852  0.00  0.00    +0.010 A 
ENDBRANCH   5   7
BRANCH   1  24
ATOM     18  C   LIG    1        2.422   3.450  -2.370  0.00  0.00    +0.190 C 
ATOM     19  N   LIG    1        1.400   3.167  -1.354  0.00  0.00    -0.540 NA
ATOM     20  C   LIG    1        2.017   2.768  -0.083  0.00  0.00    +0.170 C 
ATOM     21  C   LIG    1        0.925   2.310   0.890  0.00  0.00    +0.280 C 
ATOM     22  N   LIG    1       -0.084   3.375   0.996  0.00  0.00    -0.610 N 
ATOM     23  C   LIG    1       -0.649   3.923  -0.246  0.00  0.00    +0.300 C 
ATOM     24  C   LIG    1       -0.480   3.835   2.199  0.00  0.00    +0.560 C 
ATOM     25  O   LIG    1       -1.235   4.785   2.267  0.00  0.00    -0.530 OA
ATOM     26  C   LIG    1        0.505   4.318  -1.174  0.00  0.00    +0.170 C 
ENDBRANCH   1  24
TORSDOF 2
