REMARK  Name = ZINCqH0000006A2d.0
REMARK                            x       y       z     vdW  Elec       q    Type
REMARK                         _______ _______ _______ _____ _____    ______ ____
ROOT
ATOM      1  C   LIG    1        0.197   3.343   2.890  0.00  0.00    -0.050 A 
ATOM      2  C   LIG    1       -0.181   2.930   1.648  0.00  0.00    +0.100 A 
ATOM      3  C   LIG    1       -0.725   1.578   1.267  0.00  0.00    +0.140 C 
ATOM      4  C   LIG    1       -0.004   1.084   0.009  0.00  0.00    +0.020 C 
ATOM      5  C   LIG    1       -0.739   1.588  -1.229  0.00  0.00    +0.010 C 
ATOM      6  C   LIG    1       -1.351   2.962  -0.963  0.00  0.00    +0.030 C 
ATOM      7  C   LIG    1       -0.245   3.970  -0.640  0.00  0.00    +0.300 C 
ATOM      8  N   LIG    1        0.008   3.971   0.803  0.00  0.00    -0.440 N 
ATOM      9  C   LIG    1        0.485   5.016   1.543  0.00  0.00    +0.240 A 
ATOM     10  N   LIG    1        0.599   4.629   2.791  0.00  0.00    -0.420 NA
ENDROOT
BRANCH   9  11
ATOM     11  C   LIG    1        0.818   6.360   1.022  0.00  0.00    -0.020 A 
ATOM     12  C   LIG    1        1.060   6.543  -0.340  0.00  0.00    +0.050 A 
ATOM     13  C   LIG    1        1.365   7.799  -0.821  0.00  0.00    -0.010 A 
ATOM     14  C   LIG    1        1.443   8.876   0.048  0.00  0.00    +0.110 A 
ATOM     15  C   LIG    1        1.208   8.698   1.402  0.00  0.00    -0.010 A 
ATOM     16  F   LIG    1        1.747  10.103  -0.427  0.00  0.00    -0.130 F 
ATOM     17  C   LIG    1        0.897   7.448   1.893  0.00  0.00    +0.100 A 
ENDBRANCH   9  11
BRANCH   1  18
ATOM     18  C   LIG    1        0.173   2.533   4.119  0.00  0.00    +0.560 C 
ATOM     19  O   LIG    1       -0.212   1.380   4.080  0.00  0.00    -0.510 OA
BRANCH  18  20
ATOM     20  O   LIG    1        0.577   3.068   5.288  0.00  0.00    -0.320 OA
BRANCH  20  23
ATOM     21  C   LIG    1        0.515   2.288   8.576  0.00  0.00    +0.160 C 
ATOM     22  C   LIG    1       -0.520   2.649   7.497  0.00  0.00    +0.020 C 
ATOM     23  C   LIG    1        0.527   2.211   6.459  0.00  0.00    +0.180 C 
ATOM     24  C   LIG    1        1.596   2.544   7.513  0.00  0.00    +0.060 C 
BRANCH  21  26
ATOM     25  C   LIG    1        0.097   2.670  10.905  0.00  0.00    +0.200 C 
ATOM     26  O   LIG    1        0.553   3.213   9.665  0.00  0.00    -0.370 OA
ENDBRANCH  21  26
ENDBRANCH  20  23
ENDBRANCH  18  20
ENDBRANCH   1  18
TORSDOF 5
