REMARK  Name = ZINCrD0000074VZS.0
REMARK                            x       y       z     vdW  Elec       q    Type
REMARK                         _______ _______ _______ _____ _____    ______ ____
ROOT
ATOM      1  C   LIG    1        1.243   1.563   2.625  0.00  0.00    +0.190 A 
ATOM      2  C   LIG    1        2.073   1.222   1.562  0.00  0.00    +0.020 A 
ATOM      3  C   LIG    1        3.418   1.018   1.774  0.00  0.00    +0.100 A 
ATOM      4  C   LIG    1        3.947   1.144   3.061  0.00  0.00    -0.120 A 
ATOM      5  C   LIG    1        3.110   1.482   4.128  0.00  0.00    +0.110 A 
ATOM      6  C   LIG    1        1.767   1.689   3.908  0.00  0.00    +0.030 A 
ENDROOT
BRANCH   1  14
ATOM      7  C   LIG    1        0.082   3.919   0.984  0.00  0.00    +0.160 C 
ATOM      8  C   LIG    1       -0.676   2.816   1.676  0.00  0.00    +0.020 A 
ATOM      9  C   LIG    1       -1.997   2.673   1.703  0.00  0.00    +0.190 A 
ATOM     10  N   LIG    1       -2.288   1.534   2.440  0.00  0.00    -0.640 N 
ATOM     11  H   LIG    1       -3.174   1.185   2.623  0.00  0.00    +0.440 HD
ATOM     12  C   LIG    1       -1.124   1.002   2.863  0.00  0.00    +0.660 A 
ATOM     13  O   LIG    1       -1.002  -0.002   3.541  0.00  0.00    -0.560 OA
ATOM     14  N   LIG    1       -0.119   1.774   2.405  0.00  0.00    -0.490 N 
ENDBRANCH   1  14
BRANCH   4  15
ATOM     15  C   LIG    1        5.387   0.922   3.293  0.00  0.00    +0.520 C 
ATOM     16  O   LIG    1        5.846   1.032   4.413  0.00  0.00    -0.490 OA
BRANCH  15  17
ATOM     17  O   LIG    1        6.193   0.597   2.264  0.00  0.00    -0.350 OA
BRANCH  17  18
ATOM     18  C   LIG    1        7.598   0.392   2.566  0.00  0.00    +0.320 C 
BRANCH  18  19
ATOM     19  C   LIG    1        8.338   0.038   1.301  0.00  0.00    -0.030 A 
ATOM     20  C   LIG    1        7.655  -0.050   0.103  0.00  0.00    +0.080 A 
ATOM     21  C   LIG    1        8.334  -0.371  -1.058  0.00  0.00    +0.120 A 
ATOM     22  C   LIG    1        9.694  -0.612  -1.019  0.00  0.00    -0.030 A 
ATOM     23  C   LIG    1       10.378  -0.528   0.179  0.00  0.00    +0.130 A 
ATOM     24  C   LIG    1        9.700  -0.203   1.341  0.00  0.00    -0.040 A 
ATOM     25 CL   LIG    1       10.557  -0.099   2.846  0.00  0.00    -0.030 Cl
BRANCH  22  26
ATOM     26  N   LIG    1       10.420  -0.960  -2.262  0.00  0.00    +0.030 N 
ATOM     27  O   LIG    1        9.818  -1.034  -3.318  0.00  0.00    -0.150 OA
ATOM     28  O   LIG    1       11.618  -1.173  -2.228  0.00  0.00    -0.150 OA
ENDBRANCH  22  26
ENDBRANCH  18  19
ENDBRANCH  17  18
ENDBRANCH  15  17
ENDBRANCH   4  15
TORSDOF 6
