REMARK  Name = ZINCpe000000X0rg.0
REMARK                            x       y       z     vdW  Elec       q    Type
REMARK                         _______ _______ _______ _____ _____    ______ ____
ROOT
ATOM      1  C   LIG    1       -1.024   0.520  -1.999  0.00  0.00    +0.030 C 
ATOM      2  C   LIG    1       -0.665   1.706  -1.102  0.00  0.00    +0.000 C 
ATOM      3  C   LIG    1       -0.002   1.212   0.197  0.00  0.00    +0.260 C 
ATOM      4  N   LIG    1       -0.874   1.618   1.315  0.00  0.00    -0.620 N 
ATOM      5  C   LIG    1       -1.629   2.799   0.830  0.00  0.00    +0.270 C 
ATOM      6  C   LIG    1       -0.966   1.033   2.526  0.00  0.00    +0.510 C 
ATOM      7  O   LIG    1       -1.732   1.476   3.356  0.00  0.00    -0.520 OA
ATOM      8  C   LIG    1       -1.946   2.441  -0.644  0.00  0.00    +0.130 C 
ENDROOT
BRANCH   8   9
ATOM      9  N   LIG    1       -2.161   3.656  -1.440  0.00  0.00    -0.530 NA
ATOM     10  C   LIG    1       -3.290   4.437  -0.915  0.00  0.00    +0.150 C 
ATOM     11  C   LIG    1       -3.441   5.721  -1.735  0.00  0.00    +0.220 C 
ATOM     12  O   LIG    1       -3.612   5.383  -3.114  0.00  0.00    -0.380 OA
ATOM     13  C   LIG    1       -2.530   4.623  -3.658  0.00  0.00    +0.220 C 
ATOM     14  C   LIG    1       -2.370   3.327  -2.858  0.00  0.00    +0.150 C 
ENDBRANCH   8   9
BRANCH   6  15
ATOM     15  C   LIG    1       -0.119  -0.170   2.849  0.00  0.00    +0.370 C 
BRANCH  15  16
ATOM     16  N   LIG    1       -0.402  -0.615   4.215  0.00  0.00    -0.600 N 
ATOM     17  C   LIG    1       -1.428  -1.591   4.601  0.00  0.00    +0.340 C 
ATOM     18  C   LIG    1       -1.343  -1.723   6.101  0.00  0.00    -0.080 A 
ATOM     19  C   LIG    1       -2.036  -2.473   7.022  0.00  0.00    +0.030 A 
ATOM     20  C   LIG    1       -1.721  -2.380   8.368  0.00  0.00    +0.040 A 
ATOM     21  C   LIG    1       -0.713  -1.531   8.789  0.00  0.00    +0.000 A 
ATOM     22  C   LIG    1       -0.012  -0.773   7.874  0.00  0.00    +0.090 A 
ATOM     23  C   LIG    1       -0.322  -0.863   6.516  0.00  0.00    -0.160 A 
ATOM     24  C   LIG    1        0.238  -0.201   5.322  0.00  0.00    +0.570 C 
ATOM     25  O   LIG    1        1.147   0.606   5.338  0.00  0.00    -0.520 OA
ENDBRANCH  15  16
ENDBRANCH   6  15
TORSDOF 3
