REMARK  Name = ZINCqH0000005qcJ.0
REMARK                            x       y       z     vdW  Elec       q    Type
REMARK                         _______ _______ _______ _____ _____    ______ ____
ROOT
ATOM      1  N   LIG    1        2.377   5.429   0.009  0.00  0.00    -0.680 N 
ATOM      2  H   LIG    1        3.215   5.918   0.004  0.00  0.00    +0.420 HD
ENDROOT
BRANCH   1   3
ATOM      3  C   LIG    1        1.106   6.156   0.025  0.00  0.00    +0.290 C 
ATOM      4  C   LIG    1        1.314   7.496   0.688  0.00  0.00    +0.040 C 
ATOM      5  C   LIG    1        0.037   8.181   1.063  0.00  0.00    +0.090 C 
ATOM      6  C   LIG    1       -0.700   8.839  -0.059  0.00  0.00    -0.110 A 
ATOM      7  C   LIG    1       -1.346  10.033   0.267  0.00  0.00    +0.080 A 
ATOM      8  C   LIG    1       -2.048  10.750  -0.675  0.00  0.00    -0.120 A 
ATOM      9  C   LIG    1       -2.117  10.281  -1.975  0.00  0.00    +0.080 A 
ATOM     10  C   LIG    1       -1.487   9.106  -2.305  0.00  0.00    -0.020 A 
ATOM     11 BR   LIG    1       -2.913  12.363  -0.197  0.00  0.00    -0.040 Br
ATOM     12  C   LIG    1       -0.772   8.363  -1.350  0.00  0.00    +0.200 A 
ATOM     13  N   LIG    1       -0.208   7.202  -1.826  0.00  0.00    -0.650 N 
ATOM     14  H   LIG    1       -0.492   7.007  -2.732  0.00  0.00    +0.400 HD
ATOM     15  C   LIG    1        0.612   6.297  -1.369  0.00  0.00    +0.510 C 
ATOM     16  O   LIG    1        1.016   5.481  -2.171  0.00  0.00    -0.510 OA
ENDBRANCH   1   3
BRANCH   1  19
ATOM     17  C   LIG    1        3.625   2.091  -0.021  0.00  0.00    +0.510 A 
ATOM     18  N   LIG    1        3.554   3.414  -0.013  0.00  0.00    -0.630 NA
ATOM     19  C   LIG    1        2.384   4.046   0.001  0.00  0.00    +0.630 A 
ATOM     20  N   LIG    1        1.228   3.409   0.009  0.00  0.00    -0.600 NA
ATOM     21  C   LIG    1        1.192   2.068   0.002  0.00  0.00    +0.230 A 
ATOM     22  C   LIG    1       -0.016   1.359   0.009  0.00  0.00    +0.000 A 
ATOM     23  C   LIG    1        0.002  -0.004   0.002  0.00  0.00    +0.070 A 
ATOM     24  C   LIG    1        1.204  -0.705  -0.014  0.00  0.00    -0.030 A 
ATOM     25  C   LIG    1        2.399  -0.045  -0.021  0.00  0.00    +0.070 A 
ATOM     26  C   LIG    1        2.415   1.353  -0.013  0.00  0.00    -0.240 A 
BRANCH  17  28
ATOM     27  C   LIG    1        6.084   2.230  -0.044  0.00  0.00    +0.290 C 
ATOM     28  N   LIG    1        4.845   1.449  -0.036  0.00  0.00    -0.700 N 
ATOM     29  H   LIG    1        4.882   0.480  -0.042  0.00  0.00    +0.410 HD
ENDBRANCH  17  28
ENDBRANCH   1  19
TORSDOF 3
