REMARK  Name = ZINCqH0000050JCv.0
REMARK                            x       y       z     vdW  Elec       q    Type
REMARK                         _______ _______ _______ _____ _____    ______ ____
ROOT
ATOM      1  N   LIG    1        1.099  -2.082  -0.020  0.00  0.00    -0.650 N 
ATOM      2  H   LIG    1        0.251  -2.545   0.060  0.00  0.00    +0.420 HD
ATOM      3  C   LIG    1        2.243  -2.785  -0.137  0.00  0.00    +0.550 C 
ATOM      4  O   LIG    1        3.313  -2.209  -0.143  0.00  0.00    -0.450 OA
ENDROOT
BRANCH   1   9
ATOM      5  C   LIG    1        0.000   1.423   0.005  0.00  0.00    +0.060 A 
ATOM      6  C   LIG    1        1.256   2.038  -0.003  0.00  0.00    -0.010 A 
ATOM      7  C   LIG    1        2.389   1.253  -0.016  0.00  0.00    +0.300 A 
ATOM      8  N   LIG    1        2.303  -0.064  -0.022  0.00  0.00    -0.470 NA
ATOM      9  C   LIG    1        1.135  -0.689  -0.014  0.00  0.00    +0.360 A 
ATOM     10  C   LIG    1       -0.053   0.029  -0.001  0.00  0.00    -0.030 A 
BRANCH   5  14
ATOM     11  C   LIG    1       -3.036   5.384   0.052  0.00  0.00    +0.210 C 
ATOM     12  C   LIG    1       -2.553   3.956   0.040  0.00  0.00    +0.290 A 
ATOM     13  N   LIG    1       -1.305   3.570   0.027  0.00  0.00    -0.530 NA
ATOM     14  C   LIG    1       -1.244   2.232   0.020  0.00  0.00    +0.270 A 
ATOM     15  N   LIG    1       -2.469   1.754   0.024  0.00  0.00    -0.300 NA
ATOM     16  N   LIG    1       -3.334   2.860   0.042  0.00  0.00    -0.480 N 
ATOM     17  H   LIG    1       -4.304   2.838   0.051  0.00  0.00    +0.440 HD
ENDBRANCH   5  14
ENDBRANCH   1   9
BRANCH   3  18
ATOM     18  C   LIG    1        2.196  -4.261  -0.256  0.00  0.00    -0.070 A 
ATOM     19  C   LIG    1        0.974  -4.944  -0.250  0.00  0.00    -0.010 A 
ATOM     20  C   LIG    1        0.971  -6.319  -0.364  0.00  0.00    +0.280 A 
ATOM     21  N   LIG    1        2.099  -6.994  -0.478  0.00  0.00    -0.470 NA
ATOM     22  C   LIG    1        3.277  -6.391  -0.488  0.00  0.00    +0.120 A 
ATOM     23  C   LIG    1        3.369  -5.006  -0.383  0.00  0.00    +0.060 A 
BRANCH  22  24
ATOM     24  S   LIG    1        4.746  -7.352  -0.643  0.00  0.00    -0.060 S 
BRANCH  24  25
ATOM     25  C   LIG    1        4.114  -9.049  -0.752  0.00  0.00    -0.040 C 
ATOM     26  C   LIG    1        3.325  -9.381   0.516  0.00  0.00    +0.050 C 
ATOM     27  C   LIG    1        5.287 -10.021  -0.892  0.00  0.00    +0.090 C 
ATOM     28  C   LIG    1        3.198  -9.175  -1.970  0.00  0.00    +0.050 C 
ENDBRANCH  24  25
ENDBRANCH  22  24
ENDBRANCH   3  18
TORSDOF 5
