REMARK  Name = ZINCvU0000000FrG.0
REMARK                            x       y       z     vdW  Elec       q    Type
REMARK                         _______ _______ _______ _____ _____    ______ ____
ROOT
ATOM      1  N   LIG    1       -0.721   1.571  -1.179  0.00  0.00    -0.440 N 
ATOM      2  C   LIG    1       -1.291   0.816  -2.167  0.00  0.00    +0.180 A 
ATOM      3  N   LIG    1       -1.816   1.639  -3.030  0.00  0.00    -0.250 NA
ATOM      4  N   LIG    1       -1.618   2.853  -2.659  0.00  0.00    -0.290 NA
ATOM      5  C   LIG    1       -0.955   2.871  -1.526  0.00  0.00    +0.170 A 
ENDROOT
BRANCH   1   6
ATOM      6  C   LIG    1       -0.013   1.086   0.008  0.00  0.00    +0.250 C 
ATOM      7  C   LIG    1       -0.729   1.579   1.267  0.00  0.00    +0.080 C 
BRANCH   6   8
ATOM      8  C   LIG    1        1.423   1.615  -0.003  0.00  0.00    +0.190 C 
BRANCH   8  10
ATOM      9  C   LIG    1        3.484   1.494  -1.219  0.00  0.00    +0.220 C 
ATOM     10  O   LIG    1        2.126   1.061  -1.116  0.00  0.00    -0.390 OA
ENDBRANCH   8  10
ENDBRANCH   6   8
ENDBRANCH   1   6
BRANCH   2  11
ATOM     11  C   LIG    1       -1.310  -0.689  -2.242  0.00  0.00    +0.350 C 
BRANCH  11  12
ATOM     12  O   LIG    1       -2.476  -1.184  -1.581  0.00  0.00    -0.300 OA
BRANCH  12  13
ATOM     13  C   LIG    1       -2.646  -2.533  -1.558  0.00  0.00    +0.100 A 
ATOM     14  C   LIG    1       -1.711  -3.361  -2.158  0.00  0.00    -0.040 A 
ATOM     15  C   LIG    1       -1.886  -4.732  -2.134  0.00  0.00    +0.050 A 
ATOM     16  C   LIG    1       -2.993  -5.279  -1.511  0.00  0.00    +0.010 A 
ATOM     17  C   LIG    1       -3.928  -4.456  -0.911  0.00  0.00    +0.020 A 
ATOM     18  C   LIG    1       -3.755  -3.084  -0.927  0.00  0.00    +0.070 A 
ATOM     19  F   LIG    1       -4.666  -2.280  -0.336  0.00  0.00    -0.130 F 
ENDBRANCH  12  13
ENDBRANCH  11  12
ENDBRANCH   2  11
BRANCH   5  20
ATOM     20  S   LIG    1       -0.458   4.301  -0.625  0.00  0.00    +0.010 S 
BRANCH  20  21
ATOM     21  C   LIG    1       -1.120   5.597  -1.701  0.00  0.00    +0.160 C 
BRANCH  21  22
ATOM     22  C   LIG    1       -0.805   6.948  -1.113  0.00  0.00    -0.090 A 
ATOM     23  C   LIG    1       -1.695   7.547  -0.241  0.00  0.00    +0.040 A 
ATOM     24  C   LIG    1       -1.404   8.784   0.302  0.00  0.00    +0.010 A 
ATOM     25  C   LIG    1       -0.227   9.428  -0.035  0.00  0.00    -0.060 A 
ATOM     26  C   LIG    1        0.660   8.831  -0.911  0.00  0.00    +0.000 A 
ATOM     27  C   LIG    1        0.371   7.591  -1.450  0.00  0.00    +0.020 A 
BRANCH  25  28
ATOM     28  C   LIG    1        0.087  10.779   0.552  0.00  0.00    -0.030 C 
ATOM     29  C   LIG    1        1.393  10.699   1.346  0.00  0.00    +0.040 C 
ATOM     30  C   LIG    1       -1.050  11.208   1.482  0.00  0.00    +0.030 C 
ATOM     31  C   LIG    1        0.238  11.803  -0.575  0.00  0.00    +0.040 C 
ENDBRANCH  25  28
ENDBRANCH  21  22
ENDBRANCH  20  21
ENDBRANCH   5  20
TORSDOF 10
