REMARK  Name = ZINCrg00000aZUTi.0
REMARK                            x       y       z     vdW  Elec       q    Type
REMARK                         _______ _______ _______ _____ _____    ______ ____
ROOT
ATOM      1  C   LIG    1        7.150   6.549   0.934  0.00  0.00    +0.490 C 
ATOM      2  N   LIG    1        7.202   5.289   0.458  0.00  0.00    -0.610 N 
ATOM      3  C   LIG    1        6.792   4.993  -0.922  0.00  0.00    +0.280 C 
ATOM      4  C   LIG    1        5.740   3.880  -0.896  0.00  0.00    +0.020 C 
ATOM      5  C   LIG    1        6.296   2.675  -0.133  0.00  0.00    +0.040 C 
ATOM      6  C   LIG    1        6.606   3.081   1.310  0.00  0.00    +0.030 C 
ATOM      7  C   LIG    1        7.668   4.186   1.309  0.00  0.00    +0.260 C 
ATOM      8  O   LIG    1        6.854   7.465   0.196  0.00  0.00    -0.510 OA
ENDROOT
BRANCH   5   9
ATOM      9  C   LIG    1        5.261   1.548  -0.135  0.00  0.00    +0.100 C 
ATOM     10  C   LIG    1        5.584   0.293  -0.948  0.00  0.00    +0.040 C 
ATOM     11  C   LIG    1        5.632   0.248   0.581  0.00  0.00    +0.040 C 
BRANCH   9  12
ATOM     12  N   LIG    1        3.861   1.976  -0.079  0.00  0.00    -0.670 N 
ATOM     13  H   LIG    1        3.644   2.921  -0.042  0.00  0.00    +0.410 HD
ATOM     14  C   LIG    1        2.876   1.058  -0.077  0.00  0.00    +0.610 C 
ATOM     15  O   LIG    1        3.148  -0.126  -0.123  0.00  0.00    -0.510 OA
BRANCH  14  16
ATOM     16  C   LIG    1        1.464   1.489  -0.020  0.00  0.00    +0.010 A 
ATOM     17  N   LIG    1        1.078   2.745   0.031  0.00  0.00    -0.550 NA
ATOM     18  S   LIG    1       -0.481   2.778   0.080  0.00  0.00    +0.740 S 
ATOM     19  N   LIG    1       -0.759   1.244   0.034  0.00  0.00    -0.580 NA
ATOM     20  C   LIG    1        0.379   0.615  -0.015  0.00  0.00    +0.310 A 
ENDBRANCH  14  16
ENDBRANCH   9  12
ENDBRANCH   5   9
BRANCH   1  21
ATOM     21  C   LIG    1        7.460   6.819   2.384  0.00  0.00    +0.170 C 
BRANCH  21  22
ATOM     22  C   LIG    1        6.174   6.721   3.207  0.00  0.00    -0.020 C 
ATOM     23  C   LIG    1        6.427   7.133   4.678  0.00  0.00    +0.030 C 
ATOM     24  C   LIG    1        5.617   6.113   5.501  0.00  0.00    +0.190 C 
ATOM     25  O   LIG    1        4.941   5.253   4.569  0.00  0.00    -0.370 OA
ATOM     26  C   LIG    1        5.725   5.245   3.357  0.00  0.00    +0.220 C 
ENDBRANCH  21  22
BRANCH  21  28
ATOM     27  C   LIG    1        9.435   8.178   2.405  0.00  0.00    +0.220 C 
ATOM     28  O   LIG    1        8.011   8.132   2.516  0.00  0.00    -0.350 OA
ENDBRANCH  21  28
ENDBRANCH   1  21
TORSDOF 6
