REMARK  Name = ZINCpk000000nngF.0
REMARK                            x       y       z     vdW  Elec       q    Type
REMARK                         _______ _______ _______ _____ _____    ______ ____
ROOT
ATOM      1  N   LIG    1       -5.028  -6.830  -0.606  0.00  0.00    -0.720 N 
ATOM      2  H   LIG    1       -5.904  -6.420  -0.526  0.00  0.00    +0.410 HD
ATOM      3  C   LIG    1       -3.920  -6.066  -0.549  0.00  0.00    +0.520 C 
ATOM      4  O   LIG    1       -2.825  -6.577  -0.650  0.00  0.00    -0.540 OA
ENDROOT
BRANCH   1   5
ATOM      5  C   LIG    1       -4.911  -8.278  -0.791  0.00  0.00    +0.280 C 
BRANCH   5   7
ATOM      6  C   LIG    1       -6.941  -8.375  -2.244  0.00  0.00    +0.050 C 
ATOM      7  C   LIG    1       -6.306  -8.887  -0.950  0.00  0.00    +0.090 C 
ATOM      8  C   LIG    1       -6.193 -10.412  -1.005  0.00  0.00    +0.020 C 
BRANCH   7   9
ATOM      9  N   LIG    1       -7.142  -8.499   0.193  0.00  0.00    -0.520 NA
ATOM     10  C   LIG    1       -6.514  -8.891   1.463  0.00  0.00    +0.150 C 
ATOM     11  C   LIG    1       -7.389  -8.416   2.627  0.00  0.00    +0.220 C 
ATOM     12  O   LIG    1       -8.703  -8.960   2.482  0.00  0.00    -0.380 OA
ATOM     13  C   LIG    1       -9.345  -8.598   1.256  0.00  0.00    +0.220 C 
ATOM     14  C   LIG    1       -8.490  -9.075   0.079  0.00  0.00    +0.150 C 
ENDBRANCH   7   9
ENDBRANCH   5   7
ENDBRANCH   1   5
BRANCH   3  15
ATOM     15  C   LIG    1       -4.041  -4.575  -0.359  0.00  0.00    +0.050 C 
BRANCH  15  16
ATOM     16  C   LIG    1       -2.644  -3.950  -0.329  0.00  0.00    +0.310 C 
BRANCH  16  17
ATOM     17  N   LIG    1       -2.762  -2.502  -0.144  0.00  0.00    -0.740 N 
ATOM     18  H   LIG    1       -3.638  -2.092  -0.064  0.00  0.00    +0.400 HD
ATOM     19  C   LIG    1       -1.653  -1.737  -0.087  0.00  0.00    +0.700 C 
ATOM     20  N   LIG    1       -1.762  -0.405   0.083  0.00  0.00    -0.690 N 
ATOM     21  H   LIG    1       -2.631  -0.005   0.238  0.00  0.00    +0.410 HD
ATOM     22  O   LIG    1       -0.556  -2.250  -0.188  0.00  0.00    -0.570 OA
BRANCH  20  23
ATOM     23  C   LIG    1       -0.619   0.402   0.034  0.00  0.00    +0.160 A 
ATOM     24  C   LIG    1        0.433   0.068  -0.808  0.00  0.00    +0.020 A 
ATOM     25  C   LIG    1        1.560   0.866  -0.854  0.00  0.00    +0.030 A 
ATOM     26  C   LIG    1        1.640   1.997  -0.063  0.00  0.00    -0.020 A 
ATOM     27  C   LIG    1        0.594   2.333   0.777  0.00  0.00    +0.030 A 
ATOM     28  C   LIG    1       -0.535   1.538   0.828  0.00  0.00    -0.030 A 
ENDBRANCH  20  23
ENDBRANCH  16  17
ENDBRANCH  15  16
ENDBRANCH   3  15
TORSDOF 7
