REMARK  Name = ZINCpe00000MJIqe.0
REMARK                            x       y       z     vdW  Elec       q    Type
REMARK                         _______ _______ _______ _____ _____    ______ ____
ROOT
ATOM      1  C   LIG    1       -2.522   1.242   0.015  0.00  0.00    +0.150 C 
ATOM      2  C   LIG    1       -3.562   2.382   0.004  0.00  0.00    +0.070 C 
ATOM      3  C   LIG    1       -2.761   3.576  -0.579  0.00  0.00    +0.040 C 
ATOM      4  C   LIG    1       -1.356   3.332   0.026  0.00  0.00    +0.260 C 
ATOM      5  N   LIG    1       -1.191   1.867   0.018  0.00  0.00    -0.620 N 
ATOM      6  C   LIG    1       -0.014   1.209   0.009  0.00  0.00    +0.530 C 
ATOM      7  O   LIG    1        0.002  -0.004   0.002  0.00  0.00    -0.510 OA
ENDROOT
BRANCH   1  11
ATOM      8  C   LIG    1       -2.274  -0.071  -3.572  0.00  0.00    +0.280 C 
ATOM      9  N   LIG    1       -2.117   0.762  -2.378  0.00  0.00    -0.730 N 
ATOM     10  H   LIG    1       -1.606   1.586  -2.424  0.00  0.00    +0.400 HD
ATOM     11  C   LIG    1       -2.683   0.385  -1.214  0.00  0.00    +0.520 C 
ATOM     12  O   LIG    1       -3.322  -0.644  -1.156  0.00  0.00    -0.510 OA
ENDBRANCH   1  11
BRANCH   1  13
ATOM     13  C   LIG    1       -2.700   0.391   1.274  0.00  0.00    +0.200 C 
BRANCH  13  14
ATOM     14  O   LIG    1       -3.996  -0.211   1.262  0.00  0.00    -0.370 OA
ATOM     15  C   LIG    1       -4.266  -1.032   2.400  0.00  0.00    +0.200 C 
ENDBRANCH  13  14
ENDBRANCH   1  13
BRANCH   6  16
ATOM     16  C   LIG    1        1.280   1.980   0.001  0.00  0.00    +0.120 C 
BRANCH  16  17
ATOM     17  C   LIG    1        2.439   1.016  -0.016  0.00  0.00    -0.030 A 
ATOM     18  C   LIG    1        2.985   0.573   1.174  0.00  0.00    -0.020 A 
ATOM     19  C   LIG    1        4.045  -0.315   1.163  0.00  0.00    +0.050 A 
ATOM     20  C   LIG    1        4.568  -0.753  -0.038  0.00  0.00    -0.070 A 
ATOM     21  C   LIG    1        4.025  -0.305  -1.234  0.00  0.00    +0.130 A 
ATOM     22  C   LIG    1        2.958   0.581  -1.220  0.00  0.00    +0.000 A 
BRANCH  21  23
ATOM     23  O   LIG    1        4.538  -0.734  -2.417  0.00  0.00    -0.310 OA
BRANCH  23  24
ATOM     24  C   LIG    1        5.636  -1.647  -2.356  0.00  0.00    +0.380 C 
BRANCH  24  25
ATOM     25  C   LIG    1        6.057  -2.000  -3.721  0.00  0.00    +0.210 C 
ATOM     26  N   LIG    1        6.382  -2.273  -4.775  0.00  0.00    -0.390 NA
ENDBRANCH  24  25
ENDBRANCH  23  24
ENDBRANCH  21  23
ENDBRANCH  16  17
ENDBRANCH   6  16
TORSDOF 8
