REMARK  Name = ZINCah0000004Thg.0
REMARK                            x       y       z     vdW  Elec       q    Type
REMARK                         _______ _______ _______ _____ _____    ______ ____
ROOT
ATOM      1  O   LIG    1       -1.860   0.724   1.900  0.00  0.00    -0.900 OA
ATOM      2  S   LIG    1       -0.918   1.700   1.478  0.00  0.00    +2.400 S 
ATOM      3  C   LIG    1       -1.789   3.054   0.586  0.00  0.00    -0.260 C 
ATOM      4  C   LIG    1       -2.047   2.390  -0.792  0.00  0.00    +0.130 C 
ATOM      5  C   LIG    1       -0.795   1.614  -1.204  0.00  0.00    +0.080 C 
ATOM      6 CL   LIG    1       -1.284   0.220  -2.237  0.00  0.00    -0.090 Cl
ATOM      7 CL   LIG    1        0.277   2.700  -2.164  0.00  0.00    -0.090 Cl
ATOM      8 CL   LIG    1       -2.404   3.662  -2.020  0.00  0.00    -0.100 Cl
ATOM      9  O   LIG    1        0.003   2.255   2.408  0.00  0.00    -0.900 OA
ATOM     10  C   LIG    1       -0.013   1.086   0.008  0.00  0.00    -0.270 C 
ENDROOT
TORSDOF 0
