REMARK  Name = ZINCvU00000005eK.0
REMARK                            x       y       z     vdW  Elec       q    Type
REMARK                         _______ _______ _______ _____ _____    ______ ____
ROOT
ATOM      1  N   LIG    1       -0.347  10.230   1.015  0.00  0.00    -0.710 N 
ATOM      2  H   LIG    1        0.498  10.482   1.421  0.00  0.00    +0.410 HD
ATOM      3  C   LIG    1       -1.499  10.759   1.474  0.00  0.00    +0.550 C 
ATOM      4  O   LIG    1       -2.544  10.515   0.910  0.00  0.00    -0.520 OA
ENDROOT
BRANCH   3   5
ATOM      5  C   LIG    1       -1.487  11.652   2.688  0.00  0.00    -0.070 C 
ATOM      6  C   LIG    1       -2.751  12.517   2.828  0.00  0.00    +0.070 C 
ATOM      7  C   LIG    1       -2.027  13.573   1.978  0.00  0.00    +0.030 C 
ATOM      8  C   LIG    1       -0.709  12.962   2.482  0.00  0.00    +0.050 C 
BRANCH   5   9
ATOM      9  C   LIG    1       -1.112  10.918   3.950  0.00  0.00    -0.040 A 
ATOM     10  C   LIG    1        0.071  11.220   4.599  0.00  0.00    +0.030 A 
ATOM     11  C   LIG    1        0.413  10.551   5.759  0.00  0.00    +0.070 A 
ATOM     12  C   LIG    1       -0.423   9.574   6.265  0.00  0.00    -0.180 A 
ATOM     13  C   LIG    1       -1.603   9.268   5.613  0.00  0.00    +0.070 A 
ATOM     14  C   LIG    1       -1.948   9.940   4.456  0.00  0.00    +0.030 A 
BRANCH  12  15
ATOM     15  C   LIG    1       -0.048   8.841   7.527  0.00  0.00    +0.510 C 
ATOM     16  F   LIG    1       -1.209   8.456   8.206  0.00  0.00    -0.180 F 
ATOM     17  F   LIG    1        0.714   9.681   8.346  0.00  0.00    -0.180 F 
ATOM     18  F   LIG    1        0.700   7.704   7.202  0.00  0.00    -0.180 F 
ENDBRANCH  12  15
ENDBRANCH   5   9
ENDBRANCH   3   5
BRANCH   1  20
ATOM     19  C   LIG    1       -0.378  10.039  -1.423  0.00  0.00    +0.060 C 
ATOM     20  C   LIG    1       -0.370   9.277  -0.097  0.00  0.00    +0.370 C 
BRANCH  20  21
ATOM     21  C   LIG    1        0.852   8.397  -0.030  0.00  0.00    +0.180 A 
ATOM     22  N   LIG    1        2.069   8.809   0.193  0.00  0.00    -0.460 NA
ATOM     23  C   LIG    1        2.894   7.751   0.182  0.00  0.00    +0.170 A 
ATOM     24  C   LIG    1        2.141   6.647  -0.058  0.00  0.00    +0.010 A 
ATOM     25  O   LIG    1        0.864   7.067  -0.194  0.00  0.00    -0.190 OA
BRANCH  24  26
ATOM     26  C   LIG    1        2.625   5.254  -0.157  0.00  0.00    -0.030 A 
ATOM     27  C   LIG    1        3.983   4.972   0.002  0.00  0.00    +0.080 A 
ATOM     28  C   LIG    1        4.429   3.670  -0.091  0.00  0.00    +0.000 A 
ATOM     29  C   LIG    1        3.533   2.644  -0.343  0.00  0.00    +0.110 A 
ATOM     30  C   LIG    1        2.185   2.919  -0.506  0.00  0.00    -0.010 A 
ATOM     31  F   LIG    1        3.976   1.371  -0.434  0.00  0.00    -0.130 F 
ATOM     32  C   LIG    1        1.727   4.216  -0.410  0.00  0.00    +0.070 A 
ENDBRANCH  24  26
ENDBRANCH  20  21
ENDBRANCH   1  20
TORSDOF 6
