REMARK  Name = ZINCrH000004uvLN.0
REMARK                            x       y       z     vdW  Elec       q    Type
REMARK                         _______ _______ _______ _____ _____    ______ ____
ROOT
ATOM      1  C   LIG    1       -3.147   2.868  -2.558  0.00  0.00    +0.230 C 
ATOM      2  C   LIG    1       -4.251   3.929  -2.616  0.00  0.00    +0.030 C 
ATOM      3  C   LIG    1       -3.731   5.160  -3.363  0.00  0.00    +0.020 C 
ATOM      4  C   LIG    1       -2.535   5.747  -2.610  0.00  0.00    +0.020 C 
ATOM      5  C   LIG    1       -1.415   4.710  -2.549  0.00  0.00    +0.280 C 
ATOM      6  N   LIG    1       -1.944   3.469  -1.967  0.00  0.00    -0.990 NA
ENDROOT
BRANCH   6   7
ATOM      7  S   LIG    1       -1.202   2.764  -0.665  0.00  0.00    +2.680 S 
ATOM      8  O   LIG    1       -0.267   3.715  -0.173  0.00  0.00    -0.950 OA
ATOM      9  O   LIG    1       -2.237   2.208   0.134  0.00  0.00    -0.940 OA
BRANCH   7  10
ATOM     10  C   LIG    1       -0.259   1.407  -1.274  0.00  0.00    -0.670 A 
ATOM     11  C   LIG    1       -0.779   0.127  -1.227  0.00  0.00    +0.140 A 
ATOM     12  C   LIG    1       -0.037  -0.940  -1.700  0.00  0.00    +0.030 A 
ATOM     13  C   LIG    1        1.221  -0.726  -2.229  0.00  0.00    +0.090 A 
ATOM     14  C   LIG    1        1.741   0.556  -2.281  0.00  0.00    -0.060 A 
ATOM     15 CL   LIG    1        3.322   0.825  -2.945  0.00  0.00    -0.050 Cl
ATOM     16  C   LIG    1        1.000   1.622  -1.803  0.00  0.00    +0.140 A 
ENDBRANCH   7  10
ENDBRANCH   6   7
BRANCH   1  17
ATOM     17  C   LIG    1       -3.611   1.692  -1.696  0.00  0.00    +0.290 C 
BRANCH  17  22
ATOM     18  O   LIG    1       -4.860  -0.499  -0.737  0.00  0.00    -0.560 OA
ATOM     19  C   LIG    1       -5.289  -0.071  -1.792  0.00  0.00    +0.700 C 
ATOM     20  N   LIG    1       -6.287  -0.719  -2.425  0.00  0.00    -0.690 N 
ATOM     21  H   LIG    1       -6.588  -0.413  -3.295  0.00  0.00    +0.410 HD
ATOM     22  N   LIG    1       -4.766   1.050  -2.326  0.00  0.00    -0.740 N 
ATOM     23  H   LIG    1       -5.156   1.431  -3.129  0.00  0.00    +0.400 HD
BRANCH  20  24
ATOM     24  C   LIG    1       -6.889  -1.832  -1.828  0.00  0.00    +0.160 A 
ATOM     25  C   LIG    1       -7.029  -1.890  -0.448  0.00  0.00    +0.020 A 
ATOM     26  C   LIG    1       -7.630  -2.987   0.138  0.00  0.00    +0.030 A 
ATOM     27  C   LIG    1       -8.080  -4.033  -0.647  0.00  0.00    -0.020 A 
ATOM     28  C   LIG    1       -7.936  -3.980  -2.022  0.00  0.00    +0.030 A 
ATOM     29  C   LIG    1       -7.342  -2.883  -2.614  0.00  0.00    -0.030 A 
ENDBRANCH  20  24
ENDBRANCH  17  22
ENDBRANCH   1  17
TORSDOF 5
