REMARK  Name = ZINCrg00000BvNWq.0
REMARK                            x       y       z     vdW  Elec       q    Type
REMARK                         _______ _______ _______ _____ _____    ______ ____
ROOT
ATOM      1  O   LIG    1       -0.691   5.845   4.630  0.00  0.00    -0.510 OA
ATOM      2  C   LIG    1       -1.774   5.586   4.143  0.00  0.00    +0.560 C 
ATOM      3  N   LIG    1       -1.869   4.666   3.163  0.00  0.00    -0.720 N 
ATOM      4  H   LIG    1       -2.734   4.460   2.773  0.00  0.00    +0.400 HD
ENDROOT
BRANCH   2   5
ATOM      5  C   LIG    1       -2.987   6.281   4.625  0.00  0.00    -0.120 A 
ATOM      6  C   LIG    1       -4.231   5.991   4.063  0.00  0.00    +0.040 A 
ATOM      7  C   LIG    1       -5.359   6.640   4.520  0.00  0.00    +0.030 A 
ATOM      8  C   LIG    1       -5.258   7.584   5.527  0.00  0.00    -0.100 A 
ATOM      9  C   LIG    1       -4.027   7.880   6.085  0.00  0.00    +0.050 A 
ATOM     10  C   LIG    1       -2.892   7.235   5.640  0.00  0.00    +0.080 A 
BRANCH   8  11
ATOM     11  C   LIG    1       -6.494   8.292   6.018  0.00  0.00    +0.390 C 
BRANCH  11  12
ATOM     12  N   LIG    1       -6.704   9.511   5.231  0.00  0.00    -0.290 N 
ATOM     13  C   LIG    1       -7.829   9.832   4.552  0.00  0.00    +0.140 A 
ATOM     14  C   LIG    1       -7.591  11.033   3.975  0.00  0.00    +0.140 A 
ATOM     15  N   LIG    1       -6.345  11.379   4.318  0.00  0.00    -0.270 NA
ATOM     16  N   LIG    1       -5.847  10.456   5.063  0.00  0.00    -0.080 NA
ENDBRANCH  11  12
ENDBRANCH   8  11
ENDBRANCH   2   5
BRANCH   3  17
ATOM     17  C   LIG    1       -0.668   3.978   2.685  0.00  0.00    +0.260 C 
ATOM     18  C   LIG    1       -0.879   3.490   1.241  0.00  0.00    +0.050 C 
ATOM     19  C   LIG    1       -0.734   1.954   1.269  0.00  0.00    -0.020 C 
ATOM     20  C   LIG    1        0.127   1.677   2.526  0.00  0.00    +0.000 C 
ATOM     21  C   LIG    1       -0.402   2.722   3.540  0.00  0.00    +0.150 C 
BRANCH  21  22
ATOM     22  O   LIG    1        0.584   2.995   4.537  0.00  0.00    -0.550 OA
ATOM     23  H   LIG    1        0.790   2.239   5.104  0.00  0.00    +0.380 HD
ENDBRANCH  21  22
BRANCH  19  24
ATOM     24  C   LIG    1       -0.018   1.461   0.010  0.00  0.00    +0.310 C 
BRANCH  24  25
ATOM     25  N   LIG    1        0.002  -0.004   0.002  0.00  0.00    -0.460 N 
ATOM     26  C   LIG    1        0.975  -0.806   0.535  0.00  0.00    +0.120 A 
ATOM     27  C   LIG    1        0.597  -2.079   0.311  0.00  0.00    +0.140 A 
ATOM     28  N   LIG    1       -0.571  -2.055  -0.349  0.00  0.00    -0.490 NA
ATOM     29  C   LIG    1       -0.933  -0.815  -0.537  0.00  0.00    +0.380 A 
ENDBRANCH  24  25
ENDBRANCH  19  24
ENDBRANCH   3  17
TORSDOF 7
