REMARK  Name = ZINCqH0000007svf.1
REMARK                            x       y       z     vdW  Elec       q    Type
REMARK                         _______ _______ _______ _____ _____    ______ ____
ROOT
ATOM      1  C   LIG    1        0.002   1.101   0.007  0.00  0.00    +0.230 C 
ENDROOT
BRANCH   1   5
ATOM      2  C   LIG    1       -1.984   2.996   3.282  0.00  0.00    +0.160 A 
ATOM      3  C   LIG    1       -1.576   1.674   3.388  0.00  0.00    +0.010 A 
ATOM      4  C   LIG    1       -0.934   1.064   2.327  0.00  0.00    +0.090 A 
ATOM      5  C   LIG    1       -0.699   1.769   1.162  0.00  0.00    -0.180 A 
ATOM      6  C   LIG    1       -1.100   3.088   1.056  0.00  0.00    +0.050 A 
ATOM      7  C   LIG    1       -1.747   3.701   2.111  0.00  0.00    -0.060 A 
BRANCH   2   9
ATOM      8  C   LIG    1       -3.009   4.960   4.144  0.00  0.00    +0.250 C 
ATOM      9  O   LIG    1       -2.616   3.598   4.323  0.00  0.00    -0.310 OA
ENDBRANCH   2   9
ENDBRANCH   1   5
BRANCH   1  10
ATOM     10  N   LIG    1       -0.632   1.511  -1.254  0.00  0.00    -0.390 N 
ATOM     11  C   LIG    1        0.005   0.811  -2.398  0.00  0.00    +0.270 C 
ATOM     12  C   LIG    1       -1.078   0.886  -3.505  0.00  0.00    +0.080 C 
ATOM     13  C   LIG    1       -2.394   0.704  -2.716  0.00  0.00    +0.060 C 
ATOM     14  C   LIG    1       -2.053   1.100  -1.267  0.00  0.00    +0.260 C 
ATOM     15  H   LIG    1       -0.558   2.510  -1.372  0.00  0.00    +0.420 HD
ENDBRANCH   1  10
BRANCH   1  16
ATOM     16  C   LIG    1        1.475   1.515  -0.005  0.00  0.00    +0.270 C 
BRANCH  16  17
ATOM     17  N   LIG    1        2.138   0.996   1.194  0.00  0.00    -0.750 N 
ATOM     18  H   LIG    1        1.655   0.414   1.801  0.00  0.00    +0.390 HD
ATOM     19  C   LIG    1        3.418   1.326   1.452  0.00  0.00    +0.580 C 
ATOM     20  O   LIG    1        4.024   2.055   0.691  0.00  0.00    -0.510 OA
BRANCH  19  21
ATOM     21  C   LIG    1        4.086   0.802   2.659  0.00  0.00    -0.300 A 
ATOM     22  C   LIG    1        3.392  -0.031   3.540  0.00  0.00    +0.100 A 
ATOM     23  C   LIG    1        4.024  -0.521   4.663  0.00  0.00    -0.220 A 
ATOM     24  C   LIG    1        5.341  -0.182   4.929  0.00  0.00    +0.080 A 
ATOM     25  C   LIG    1        6.036   0.646   4.069  0.00  0.00    -0.130 A 
ATOM     26 BR   LIG    1        3.087  -1.656   5.851  0.00  0.00    -0.100 Br
ATOM     27  C   LIG    1        5.418   1.143   2.932  0.00  0.00    +0.320 A 
ATOM     28  O   LIG    1        6.099   1.957   2.087  0.00  0.00    -0.660 OA
ENDBRANCH  19  21
ENDBRANCH  16  17
ENDBRANCH   1  16
TORSDOF 6
