REMARK  Name = ZINCpk00000kR0wF.0
REMARK                            x       y       z     vdW  Elec       q    Type
REMARK                         _______ _______ _______ _____ _____    ______ ____
ROOT
ATOM      1  S   LIG    1       -2.079   5.124  -1.729  0.00  0.00    +2.410 S 
ATOM      2  O   LIG    1       -2.965   4.074  -2.093  0.00  0.00    -0.920 OA
ATOM      3  O   LIG    1       -0.955   5.401  -2.553  0.00  0.00    -0.900 OA
ENDROOT
BRANCH   1   4
ATOM      4  C   LIG    1       -1.495   4.827  -0.037  0.00  0.00    -0.210 C 
BRANCH   4   9
ATOM      5  C   LIG    1       -0.001   0.015   0.333  0.00  0.00    +0.200 C 
ATOM      6  C   LIG    1       -0.020   1.511   0.152  0.00  0.00    +0.200 A 
ATOM      7  N   LIG    1        1.011   2.273  -0.095  0.00  0.00    -0.290 NA
ATOM      8  N   LIG    1        0.630   3.498  -0.189  0.00  0.00    -0.260 NA
ATOM      9  C   LIG    1       -0.660   3.573  -0.007  0.00  0.00    +0.170 A 
ATOM     10  N   LIG    1       -1.110   2.313   0.210  0.00  0.00    -0.440 N 
BRANCH  10  11
ATOM     11  C   LIG    1       -2.494   1.903   0.459  0.00  0.00    +0.190 C 
ATOM     12  C   LIG    1       -3.281   2.679   1.517  0.00  0.00    +0.050 C 
ATOM     13  C   LIG    1       -2.806   1.254   1.809  0.00  0.00    +0.070 C 
ENDBRANCH  10  11
ENDBRANCH   4   9
ENDBRANCH   1   4
BRANCH   1  14
ATOM     14  C   LIG    1       -3.041   6.649  -1.531  0.00  0.00    -0.260 C 
BRANCH  14  15
ATOM     15  C   LIG    1       -3.615   7.057  -2.863  0.00  0.00    -0.090 A 
ATOM     16  C   LIG    1       -4.862   6.594  -3.246  0.00  0.00    +0.070 A 
ATOM     17  C   LIG    1       -5.395   6.964  -4.466  0.00  0.00    +0.050 A 
ATOM     18  C   LIG    1       -4.679   7.801  -5.306  0.00  0.00    +0.080 A 
ATOM     19  C   LIG    1       -3.423   8.268  -4.921  0.00  0.00    +0.040 A 
ATOM     20  O   LIG    1       -2.961   9.056  -5.923  0.00  0.00    -0.230 OA
ATOM     21  C   LIG    1       -3.873   9.096  -6.907  0.00  0.00    +0.640 A 
ATOM     22  O   LIG    1       -3.758   9.717  -7.946  0.00  0.00    -0.480 OA
ATOM     23  N   LIG    1       -4.936   8.341  -6.566  0.00  0.00    -0.550 N 
ATOM     24  C   LIG    1       -6.141   8.127  -7.371  0.00  0.00    +0.360 C 
ATOM     25  C   LIG    1       -2.898   7.896  -3.693  0.00  0.00    +0.090 A 
ENDBRANCH  14  15
ENDBRANCH   1  14
TORSDOF 5
