REMARK  Name = ZINCpe000000SXCU.0
REMARK                            x       y       z     vdW  Elec       q    Type
REMARK                         _______ _______ _______ _____ _____    ______ ____
ROOT
ATOM      1  C   LIG    1       -0.423   2.010   0.217  0.00  0.00    +0.300 C 
ENDROOT
BRANCH   1   3
ATOM      2  C   LIG    1       -1.311   3.507   1.922  0.00  0.00    +0.530 C 
ATOM      3  N   LIG    1       -1.401   2.998   0.677  0.00  0.00    -0.730 N 
ATOM      4  H   LIG    1       -2.114   3.287   0.086  0.00  0.00    +0.400 HD
ATOM      5  O   LIG    1       -0.419   3.147   2.661  0.00  0.00    -0.530 OA
BRANCH   2   8
ATOM      6  N   LIG    1       -3.460   5.043   4.438  0.00  0.00    -0.620 N 
ATOM      7  C   LIG    1       -2.112   4.850   3.891  0.00  0.00    +0.300 C 
ATOM      8  C   LIG    1       -2.317   4.524   2.395  0.00  0.00    +0.000 C 
ATOM      9  C   LIG    1       -3.745   3.932   2.394  0.00  0.00    +0.070 C 
ATOM     10  C   LIG    1       -4.397   4.532   3.620  0.00  0.00    +0.520 C 
ATOM     11  O   LIG    1       -5.590   4.550   3.834  0.00  0.00    -0.520 OA
BRANCH   6  13
ATOM     12  C   LIG    1       -4.636   6.929   5.460  0.00  0.00    +0.030 C 
ATOM     13  C   LIG    1       -3.748   5.708   5.711  0.00  0.00    +0.240 C 
ATOM     14  C   LIG    1       -4.473   4.734   6.643  0.00  0.00    +0.030 C 
ENDBRANCH   6  13
ENDBRANCH   2   8
ENDBRANCH   1   3
BRANCH   1  15
ATOM     15  C   LIG    1       -0.751   1.598  -1.220  0.00  0.00    -0.020 C 
BRANCH  15  16
ATOM     16  C   LIG    1       -2.079   0.888  -1.248  0.00  0.00    +0.520 C 
ATOM     17  O   LIG    1       -2.410   0.182  -0.319  0.00  0.00    -0.530 OA
ATOM     18  N   LIG    1       -2.901   1.037  -2.307  0.00  0.00    -0.850 N 
ATOM     19  H   LIG    1       -3.723   0.525  -2.358  0.00  0.00    +0.400 HD
ATOM     20  H   LIG    1       -2.669   1.656  -3.017  0.00  0.00    +0.400 HD
ENDBRANCH  15  16
BRANCH  15  21
ATOM     21  C   LIG    1        0.340   0.662  -1.743  0.00  0.00    +0.120 C 
BRANCH  21  22
ATOM     22  C   LIG    1        1.640   1.415  -1.851  0.00  0.00    -0.100 A 
ATOM     23  C   LIG    1        1.925   2.143  -2.991  0.00  0.00    +0.050 A 
ATOM     24  C   LIG    1        3.115   2.839  -3.088  0.00  0.00    -0.010 A 
ATOM     25  C   LIG    1        4.027   2.798  -2.047  0.00  0.00    +0.100 A 
ATOM     26  C   LIG    1        3.743   2.065  -0.908  0.00  0.00    -0.010 A 
ATOM     27  F   LIG    1        5.194   3.473  -2.144  0.00  0.00    -0.140 F 
ATOM     28  C   LIG    1        2.550   1.375  -0.810  0.00  0.00    +0.060 A 
ENDBRANCH  21  22
ENDBRANCH  15  21
ENDBRANCH   1  15
TORSDOF 7
