REMARK  Name = ZINCrD000000CQKl.0
REMARK                            x       y       z     vdW  Elec       q    Type
REMARK                         _______ _______ _______ _____ _____    ______ ____
ROOT
ATOM      1  O   LIG    1       -3.846  -0.614  -2.769  0.00  0.00    -0.540 OA
ATOM      2  C   LIG    1       -4.024  -0.002  -1.737  0.00  0.00    +0.520 C 
ATOM      3  C   LIG    1       -3.336   1.319  -1.571  0.00  0.00    +0.080 C 
ATOM      4  C   LIG    1       -2.568   1.347  -0.245  0.00  0.00    +0.310 C 
ATOM      5  N   LIG    1       -3.501   1.791   0.793  0.00  0.00    -0.630 N 
ATOM      6  C   LIG    1       -4.926   1.439   0.646  0.00  0.00    +0.280 C 
ATOM      7  C   LIG    1       -5.036  -0.086   0.544  0.00  0.00    +0.280 C 
ATOM      8  C   LIG    1       -3.069   2.502   1.853  0.00  0.00    +0.700 C 
ATOM      9  N   LIG    1       -3.957   3.006   2.734  0.00  0.00    -0.690 N 
ATOM     10  H   LIG    1       -4.901   2.800   2.642  0.00  0.00    +0.400 HD
ATOM     11  O   LIG    1       -1.879   2.690   2.016  0.00  0.00    -0.540 OA
ATOM     12  N   LIG    1       -4.817  -0.542  -0.820  0.00  0.00    -0.720 N 
ATOM     13  H   LIG    1       -5.308  -1.333  -1.091  0.00  0.00    +0.400 HD
ENDROOT
BRANCH   9  14
ATOM     14  C   LIG    1       -3.517   3.826   3.782  0.00  0.00    +0.140 A 
ATOM     15  C   LIG    1       -2.296   3.576   4.393  0.00  0.00    +0.070 A 
ATOM     16  C   LIG    1       -1.860   4.388   5.421  0.00  0.00    -0.030 A 
ATOM     17  C   LIG    1       -2.648   5.446   5.852  0.00  0.00    +0.090 A 
ATOM     18  C   LIG    1       -3.871   5.692   5.245  0.00  0.00    +0.030 A 
ATOM     19  C   LIG    1       -4.305   4.885   4.213  0.00  0.00    +0.030 A 
BRANCH  17  20
ATOM     20  O   LIG    1       -2.221   6.242   6.869  0.00  0.00    -0.320 OA
BRANCH  20  21
ATOM     21  C   LIG    1       -0.952   5.930   7.447  0.00  0.00    +0.590 C 
ATOM     22  F   LIG    1        0.041   6.011   6.464  0.00  0.00    -0.200 F 
ATOM     23  F   LIG    1       -0.984   4.634   7.972  0.00  0.00    -0.200 F 
ENDBRANCH  20  21
ENDBRANCH  17  20
ENDBRANCH   9  14
BRANCH   4  24
ATOM     24  C   LIG    1       -1.414   2.311  -0.342  0.00  0.00    -0.070 A 
ATOM     25  C   LIG    1       -0.130   1.835  -0.533  0.00  0.00    +0.020 A 
ATOM     26  C   LIG    1        0.928   2.719  -0.628  0.00  0.00    +0.000 A 
ATOM     27  C   LIG    1        0.704   4.079  -0.526  0.00  0.00    +0.010 A 
ATOM     28  C   LIG    1       -0.579   4.555  -0.329  0.00  0.00    +0.000 A 
ATOM     29  C   LIG    1       -1.637   3.671  -0.236  0.00  0.00    +0.030 A 
ENDBRANCH   4  24
TORSDOF 4
