REMARK  Name = ZINCkj000005jy6l.0
REMARK                            x       y       z     vdW  Elec       q    Type
REMARK                         _______ _______ _______ _____ _____    ______ ____
ROOT
ATOM      1  C   LIG    1        1.656  -4.795  -2.311  0.00  0.00    +0.510 C 
ATOM      2  N   LIG    1        1.704  -4.005  -1.220  0.00  0.00    -0.720 N 
ATOM      3  H   LIG    1        1.968  -4.376  -0.363  0.00  0.00    +0.410 HD
ATOM      4  O   LIG    1        1.326  -4.330  -3.381  0.00  0.00    -0.500 OA
ENDROOT
BRANCH   1   6
ATOM      5  C   LIG    1        1.068  -6.936  -1.208  0.00  0.00    +0.090 C 
ATOM      6  C   LIG    1        2.012  -6.255  -2.200  0.00  0.00    +0.290 C 
BRANCH   6   7
ATOM      7  N   LIG    1        1.882  -6.890  -3.514  0.00  0.00    -0.380 N 
ATOM      8  C   LIG    1        0.761  -7.396  -4.056  0.00  0.00    +0.490 A 
ATOM      9  N   LIG    1        1.061  -7.870  -5.239  0.00  0.00    -0.540 NA
ATOM     10  C   LIG    1        2.359  -7.693  -5.481  0.00  0.00    +0.430 A 
ATOM     11  N   LIG    1        2.905  -7.097  -4.453  0.00  0.00    -0.310 NA
ENDBRANCH   6   7
ENDBRANCH   1   6
BRANCH   2  12
ATOM     12  C   LIG    1        1.358  -2.585  -1.327  0.00  0.00    +0.290 C 
BRANCH  12  13
ATOM     13  C   LIG    1        1.619  -1.894   0.012  0.00  0.00    +0.240 C 
BRANCH  13  14
ATOM     14  C   LIG    1        3.096  -1.922   0.313  0.00  0.00    -0.150 A 
ATOM     15  C   LIG    1        3.956  -1.063  -0.235  0.00  0.00    -0.060 A 
ATOM     16  S   LIG    1        5.580  -1.401   0.349  0.00  0.00    +0.210 S 
ATOM     17  C   LIG    1        4.982  -2.729   1.334  0.00  0.00    -0.010 A 
ATOM     18  C   LIG    1        3.662  -2.842   1.179  0.00  0.00    +0.010 A 
ENDBRANCH  13  14
BRANCH  13  19
ATOM     19  N   LIG    1        1.161  -0.500  -0.059  0.00  0.00    -0.380 N 
ATOM     20  C   LIG    1        1.419   0.167   1.225  0.00  0.00    +0.330 C 
ATOM     21  C   LIG    1       -0.280  -0.472  -0.344  0.00  0.00    +0.330 C 
ATOM     22  H   LIG    1        1.659  -0.019  -0.793  0.00  0.00    +0.430 HD
ENDBRANCH  13  19
ENDBRANCH  12  13
ENDBRANCH   2  12
TORSDOF 6
