REMARK  Name = ZINCpe000000XSJs.0
REMARK                            x       y       z     vdW  Elec       q    Type
REMARK                         _______ _______ _______ _____ _____    ______ ____
ROOT
ATOM      1  N   LIG    1       -0.784   1.220   1.205  0.00  0.00    -0.490 N 
ATOM      2  C   LIG    1        0.448   1.832   0.689  0.00  0.00    +0.210 C 
ATOM      3  C   LIG    1        1.629   1.415   1.569  0.00  0.00    +0.190 C 
ATOM      4  N   LIG    1        1.736  -0.051   1.578  0.00  0.00    -0.520 NA
ATOM      5  C   LIG    1        0.504  -0.663   2.094  0.00  0.00    +0.190 C 
ATOM      6  C   LIG    1       -0.677  -0.246   1.214  0.00  0.00    +0.210 C 
ENDROOT
BRANCH   1  12
ATOM      7  C   LIG    1       -3.582   4.866  -0.536  0.00  0.00    +0.090 C 
ATOM      8  C   LIG    1       -3.277   3.397  -0.393  0.00  0.00    -0.060 A 
ATOM      9  C   LIG    1       -4.098   2.459  -0.991  0.00  0.00    -0.030 A 
ATOM     10  C   LIG    1       -3.821   1.110  -0.862  0.00  0.00    +0.030 A 
ATOM     11  C   LIG    1       -2.720   0.696  -0.138  0.00  0.00    -0.050 A 
ATOM     12  C   LIG    1       -1.896   1.636   0.469  0.00  0.00    +0.110 A 
ATOM     13  C   LIG    1       -2.177   2.989   0.337  0.00  0.00    -0.020 A 
ENDBRANCH   1  12
BRANCH   4  14
ATOM     14  C   LIG    1        2.905  -0.488   2.352  0.00  0.00    +0.130 C 
ATOM     15  C   LIG    1        4.154   0.235   1.843  0.00  0.00    +0.060 C 
BRANCH  14  16
ATOM     16  C   LIG    1        3.086  -1.976   2.193  0.00  0.00    +0.520 C 
ATOM     17  N   LIG    1        3.688  -2.689   3.165  0.00  0.00    -0.720 N 
ATOM     18  H   LIG    1        4.005  -2.245   3.967  0.00  0.00    +0.400 HD
ATOM     19  O   LIG    1        2.689  -2.530   1.190  0.00  0.00    -0.510 OA
BRANCH  17  20
ATOM     20  C   LIG    1        3.863  -4.136   3.010  0.00  0.00    +0.270 C 
ATOM     21  C   LIG    1        5.163  -4.419   2.237  0.00  0.00    +0.060 C 
ATOM     22  C   LIG    1        5.452  -5.934   2.396  0.00  0.00    -0.300 C 
ATOM     23  S   LIG    1        5.083  -6.224   4.168  0.00  0.00    +2.400 S 
ATOM     24  O   LIG    1        4.345  -7.430   4.306  0.00  0.00    -0.930 OA
ATOM     25  O   LIG    1        6.263  -6.024   4.934  0.00  0.00    -0.930 OA
ATOM     26  C   LIG    1        3.962  -4.797   4.399  0.00  0.00    -0.320 C 
ENDBRANCH  17  20
ENDBRANCH  14  16
ENDBRANCH   4  14
TORSDOF 4
