REMARK  Name = ZINCpk00000kCnBn.0
REMARK                            x       y       z     vdW  Elec       q    Type
REMARK                         _______ _______ _______ _____ _____    ______ ____
ROOT
ATOM      1  C   LIG    1        1.491   3.307   0.005  0.00  0.00    +0.480 C 
ENDROOT
BRANCH   1   7
ATOM      2  C   LIG    1        1.738  -1.204  -1.279  0.00  0.00    +0.090 C 
ATOM      3  C   LIG    1        1.419  -0.406  -0.014  0.00  0.00    +0.150 C 
ATOM      4  N   LIG    1        0.002  -0.004   0.002  0.00  0.00    -0.720 N 
ATOM      5  H   LIG    1       -0.768  -0.594   0.006  0.00  0.00    +0.440 HD
ATOM      6  C   LIG    1       -0.016   1.341   0.009  0.00  0.00    +0.700 C 
ATOM      7  N   LIG    1        1.213   1.869   0.001  0.00  0.00    -0.570 N 
ATOM      8  O   LIG    1       -1.036   2.003   0.018  0.00  0.00    -0.540 OA
ATOM      9  C   LIG    1        2.164   0.914  -0.014  0.00  0.00    +0.540 C 
ATOM     10  O   LIG    1        3.365   1.077  -0.024  0.00  0.00    -0.450 OA
BRANCH   3  11
ATOM     11  C   LIG    1        1.761  -1.221   1.235  0.00  0.00    -0.050 C 
ATOM     12  C   LIG    1        2.595  -2.490   1.044  0.00  0.00    +0.050 C 
ATOM     13  C   LIG    1        1.106  -2.595   1.383  0.00  0.00    +0.040 C 
ENDBRANCH   3  11
ENDBRANCH   1   7
BRANCH   1  14
ATOM     14  N   LIG    1        1.598   3.781   1.391  0.00  0.00    -0.560 NA
ATOM     15  C   LIG    1        0.268   4.014   1.971  0.00  0.00    +0.190 C 
ATOM     16  C   LIG    1        0.419   4.430   3.437  0.00  0.00    +0.190 C 
ATOM     17  N   LIG    1        1.245   5.643   3.516  0.00  0.00    -0.530 NA
ATOM     18  C   LIG    1        2.575   5.410   2.936  0.00  0.00    +0.180 C 
ATOM     19  C   LIG    1        2.424   4.994   1.471  0.00  0.00    +0.200 C 
BRANCH  17  20
ATOM     20  C   LIG    1        1.351   6.117   4.903  0.00  0.00    +0.210 C 
BRANCH  20  21
ATOM     21  C   LIG    1       -0.002   6.576   5.382  0.00  0.00    -0.080 A 
ATOM     22  C   LIG    1       -0.385   7.893   5.210  0.00  0.00    +0.020 A 
ATOM     23  C   LIG    1       -1.628   8.314   5.646  0.00  0.00    +0.000 A 
ATOM     24  C   LIG    1       -2.484   7.419   6.261  0.00  0.00    +0.000 A 
ATOM     25  C   LIG    1       -2.098   6.103   6.437  0.00  0.00    +0.000 A 
ATOM     26  C   LIG    1       -0.857   5.682   5.997  0.00  0.00    +0.000 A 
ENDBRANCH  20  21
ENDBRANCH  17  20
ENDBRANCH   1  14
TORSDOF 5
