REMARK  Name = ZINCrD00000l1hQf.0
REMARK                            x       y       z     vdW  Elec       q    Type
REMARK                         _______ _______ _______ _____ _____    ______ ____
ROOT
ATOM      1  C   LIG    1        3.001   8.824  -0.595  0.00  0.00    -0.260 A 
ATOM      2  C   LIG    1        3.803   7.753  -0.599  0.00  0.00    +0.030 A 
ATOM      3  C   LIG    1        3.212   6.555  -0.178  0.00  0.00    -0.200 A 
ATOM      4  C   LIG    1        3.770   5.259  -0.064  0.00  0.00    +0.260 A 
ATOM      5  N   LIG    1        3.016   4.270   0.359  0.00  0.00    -0.510 NA
ATOM      6  C   LIG    1        1.738   4.463   0.684  0.00  0.00    +0.430 A 
ATOM      7  N   LIG    1        1.166   5.654   0.591  0.00  0.00    -0.480 NA
ATOM      8  C   LIG    1        5.212   5.016  -0.426  0.00  0.00    +0.160 C 
ATOM      9  C   LIG    1        1.860   6.714   0.175  0.00  0.00    +0.080 A 
ATOM     10  C   LIG    1        5.245   7.830  -1.028  0.00  0.00    +0.130 C 
ATOM     11  S   LIG    1        1.391   8.394  -0.045  0.00  0.00    +0.230 S 
ENDROOT
BRANCH   6  12
ATOM     12  C   LIG    1        0.937   3.318   1.153  0.00  0.00    +0.020 A 
ATOM     13  C   LIG    1       -0.374   3.356   1.520  0.00  0.00    +0.030 A 
ATOM     14  C   LIG    1       -0.729   2.046   1.890  0.00  0.00    -0.060 A 
ATOM     15  C   LIG    1        0.372   1.280   1.742  0.00  0.00    +0.210 A 
ATOM     16  O   LIG    1        1.374   2.051   1.294  0.00  0.00    -0.150 OA
ENDBRANCH   6  12
BRANCH   1  18
ATOM     17  N   LIG    1        2.493  11.156  -1.102  0.00  0.00    -0.590 N 
ATOM     18  C   LIG    1        3.412  10.176  -0.998  0.00  0.00    +0.590 C 
ATOM     19  O   LIG    1        4.581  10.410  -1.237  0.00  0.00    -0.520 OA
BRANCH  17  20
ATOM     20  C   LIG    1        2.917  12.530  -1.383  0.00  0.00    +0.330 C 
BRANCH  20  21
ATOM     21  C   LIG    1        2.954  12.754  -2.896  0.00  0.00    +0.160 C 
BRANCH  21  23
ATOM     22  C   LIG    1        1.552  12.845  -4.838  0.00  0.00    +0.200 C 
ATOM     23  O   LIG    1        1.630  12.652  -3.425  0.00  0.00    -0.390 OA
ENDBRANCH  21  23
ENDBRANCH  20  21
ENDBRANCH  17  20
BRANCH  17  24
ATOM     24  C   LIG    1        1.071  10.848  -0.935  0.00  0.00    +0.320 C 
BRANCH  24  25
ATOM     25  C   LIG    1        0.703  10.925   0.548  0.00  0.00    +0.160 C 
BRANCH  25  26
ATOM     26  O   LIG    1        0.855  12.269   1.008  0.00  0.00    -0.380 OA
ATOM     27  C   LIG    1        0.535  12.450   2.389  0.00  0.00    +0.200 C 
ENDBRANCH  25  26
ENDBRANCH  24  25
ENDBRANCH  17  24
ENDBRANCH   1  18
TORSDOF 8
