REMARK  Name = ZINCrH00000No4W1.0
REMARK                            x       y       z     vdW  Elec       q    Type
REMARK                         _______ _______ _______ _____ _____    ______ ____
ROOT
ATOM      1  C   LIG    1        4.878  -6.045  -2.894  0.00  0.00    +0.100 C 
ATOM      2  C   LIG    1        4.507  -5.223  -4.102  0.00  0.00    +0.160 C 
ATOM      3  N   LIG    1        3.913  -4.075  -3.951  0.00  0.00    -0.220 NA
ENDROOT
BRANCH   2   4
ATOM      4  C   LIG    1        4.815  -5.718  -5.446  0.00  0.00    -0.160 A 
ATOM      5  C   LIG    1        4.528  -5.064  -6.610  0.00  0.00    +0.070 A 
ATOM      6  C   LIG    1        4.914  -5.725  -7.748  0.00  0.00    +0.040 A 
ATOM      7  C   LIG    1        5.521  -6.925  -7.533  0.00  0.00    -0.150 A 
ATOM      8  S   LIG    1        5.618  -7.240  -5.806  0.00  0.00    +0.180 S 
BRANCH   7   9
ATOM      9  C   LIG    1        6.026  -7.824  -8.591  0.00  0.00    -0.060 A 
ATOM     10  C   LIG    1        7.323  -8.333  -8.518  0.00  0.00    +0.060 A 
ATOM     11  C   LIG    1        7.789  -9.172  -9.509  0.00  0.00    +0.010 A 
ATOM     12  C   LIG    1        6.974  -9.510 -10.575  0.00  0.00    +0.060 A 
ATOM     13  C   LIG    1        5.686  -9.010 -10.656  0.00  0.00    -0.010 A 
ATOM     14  C   LIG    1        5.204  -8.173  -9.668  0.00  0.00    +0.120 A 
ATOM     15  F   LIG    1        3.945  -7.689  -9.744  0.00  0.00    -0.130 F 
ENDBRANCH   7   9
ENDBRANCH   2   4
BRANCH   3  16
ATOM     16  N   LIG    1        3.618  -3.603  -2.666  0.00  0.00    -0.580 N 
ATOM     17  H   LIG    1        3.857  -4.131  -1.888  0.00  0.00    +0.390 HD
ATOM     18  C   LIG    1        3.003  -2.414  -2.510  0.00  0.00    +0.510 C 
ATOM     19  O   LIG    1        2.704  -1.753  -3.482  0.00  0.00    -0.490 OA
BRANCH  18  20
ATOM     20  C   LIG    1        2.686  -1.906  -1.127  0.00  0.00    +0.330 C 
BRANCH  20  21
ATOM     21  N   LIG    1        2.022  -0.603  -1.226  0.00  0.00    -0.590 N 
ATOM     22  C   LIG    1        0.555  -0.535  -1.322  0.00  0.00    +0.280 C 
ATOM     23  C   LIG    1        0.002  -0.004   0.002  0.00  0.00    +0.010 C 
ATOM     24  C   LIG    1       -0.018   1.514   0.010  0.00  0.00    +0.020 C 
ATOM     25  C   LIG    1        1.362   2.145   0.001  0.00  0.00    +0.040 C 
ATOM     26  C   LIG    1        2.077   1.865  -1.323  0.00  0.00    +0.050 C 
ATOM     27  C   LIG    1        2.752   0.513  -1.228  0.00  0.00    +0.520 C 
ATOM     28  O   LIG    1        3.961   0.446  -1.153  0.00  0.00    -0.540 OA
ENDBRANCH  20  21
ENDBRANCH  18  20
ENDBRANCH   3  16
TORSDOF 5
