REMARK  Name = ZINCrH000004khsj.0
REMARK                            x       y       z     vdW  Elec       q    Type
REMARK                         _______ _______ _______ _____ _____    ______ ____
ROOT
ATOM      1  C   LIG    1        2.404   0.037  -0.026  0.00  0.00    +0.150 A 
ATOM      2  C   LIG    1        2.376   1.414  -0.199  0.00  0.00    +0.020 A 
ATOM      3  C   LIG    1        1.170   2.090  -0.189  0.00  0.00    -0.010 A 
ATOM      4  C   LIG    1       -0.013   1.394  -0.007  0.00  0.00    +0.090 A 
ATOM      5  C   LIG    1        0.011   0.013   0.166  0.00  0.00    +0.120 A 
ATOM      6  C   LIG    1        1.219  -0.663   0.157  0.00  0.00    -0.060 A 
ENDROOT
BRANCH   1   8
ATOM      7  C   LIG    1        4.734  -0.051   0.449  0.00  0.00    +0.600 C 
ATOM      8  N   LIG    1        3.626  -0.646  -0.036  0.00  0.00    -0.660 N 
ATOM      9  H   LIG    1        3.676  -1.546  -0.394  0.00  0.00    +0.410 HD
ATOM     10  O   LIG    1        4.655   1.039   0.984  0.00  0.00    -0.510 OA
BRANCH   7  12
ATOM     11  C   LIG    1        6.883  -0.554  -0.757  0.00  0.00    +0.160 A 
ATOM     12  C   LIG    1        6.035  -0.719   0.334  0.00  0.00    -0.340 A 
ATOM     13  C   LIG    1        6.539  -1.585   1.303  0.00  0.00    +0.200 A 
ATOM     14  N   LIG    1        7.701  -2.108   1.078  0.00  0.00    -0.490 NA
ATOM     15  C   LIG    1        5.765  -1.898   2.558  0.00  0.00    +0.170 C 
ATOM     16  S   LIG    1        8.258  -1.530  -0.414  0.00  0.00    +0.260 S 
BRANCH  11  18
ATOM     17  C   LIG    1        7.678   0.285  -2.934  0.00  0.00    +0.310 C 
ATOM     18  N   LIG    1        6.668   0.229  -1.874  0.00  0.00    -0.680 N 
ATOM     19  H   LIG    1        5.849   0.741  -1.957  0.00  0.00    +0.410 HD
ENDBRANCH  11  18
ENDBRANCH   7  12
ENDBRANCH   1   8
BRANCH   4  20
ATOM     20  O   LIG    1       -1.200   2.060  -0.003  0.00  0.00    -0.310 OA
ATOM     21  C   LIG    1       -1.150   3.476  -0.186  0.00  0.00    +0.250 C 
ENDBRANCH   4  20
BRANCH   5  22
ATOM     22  O   LIG    1       -1.151  -0.671   0.344  0.00  0.00    -0.290 OA
BRANCH  22  23
ATOM     23  C   LIG    1       -1.051  -2.086   0.516  0.00  0.00    +0.260 C 
BRANCH  23  24
ATOM     24  C   LIG    1       -2.429  -2.669   0.699  0.00  0.00    -0.050 A 
ATOM     25  C   LIG    1       -2.983  -2.799   1.963  0.00  0.00    -0.010 A 
ATOM     26  C   LIG    1       -4.250  -3.334   2.091  0.00  0.00    +0.260 A 
ATOM     27  N   LIG    1       -4.927  -3.727   1.029  0.00  0.00    -0.480 NA
ATOM     28  C   LIG    1       -4.430  -3.622  -0.188  0.00  0.00    +0.260 A 
ATOM     29  C   LIG    1       -3.170  -3.093  -0.394  0.00  0.00    -0.010 A 
ENDBRANCH  23  24
ENDBRANCH  22  23
ENDBRANCH   5  22
TORSDOF 7
