REMARK  Name = ZINCrD000000CQfz.0
REMARK                            x       y       z     vdW  Elec       q    Type
REMARK                         _______ _______ _______ _____ _____    ______ ____
ROOT
ATOM      1  C   LIG    1       -0.011   0.225   0.762  0.00  0.00    +0.510 C 
ATOM      2  N   LIG    1       -0.016   1.344   0.009  0.00  0.00    -0.670 N 
ATOM      3  H   LIG    1        0.776   1.596  -0.489  0.00  0.00    +0.410 HD
ATOM      4  O   LIG    1       -0.967  -0.042   1.458  0.00  0.00    -0.490 OA
ENDROOT
BRANCH   1   8
ATOM      5  O   LIG    1       -0.090  -2.224  -2.192  0.00  0.00    -0.520 OA
ATOM      6  C   LIG    1        0.323  -2.185  -1.052  0.00  0.00    +0.520 C 
ATOM      7  C   LIG    1        1.405  -1.205  -0.686  0.00  0.00    +0.100 C 
ATOM      8  C   LIG    1        1.184  -0.693   0.738  0.00  0.00    +0.070 C 
ATOM      9  C   LIG    1        0.939  -1.859   1.659  0.00  0.00    -0.110 A 
ATOM     10  C   LIG    1        1.385  -1.818   2.965  0.00  0.00    +0.060 A 
ATOM     11  C   LIG    1        1.158  -2.890   3.809  0.00  0.00    -0.010 A 
ATOM     12  C   LIG    1        0.484  -4.006   3.347  0.00  0.00    +0.050 A 
ATOM     13  C   LIG    1        0.036  -4.054   2.041  0.00  0.00    -0.020 A 
ATOM     14  C   LIG    1        0.262  -2.979   1.193  0.00  0.00    +0.170 A 
ATOM     15  N   LIG    1       -0.190  -3.020  -0.130  0.00  0.00    -0.660 N 
ATOM     16  H   LIG    1       -0.878  -3.655  -0.385  0.00  0.00    +0.410 HD
ENDBRANCH   1   8
BRANCH   2  17
ATOM     17  C   LIG    1       -1.167   2.137  -0.057  0.00  0.00    +0.190 A 
ATOM     18  C   LIG    1       -2.423   1.547   0.010  0.00  0.00    -0.030 A 
ATOM     19  C   LIG    1       -3.559   2.331  -0.051  0.00  0.00    +0.070 A 
ATOM     20  C   LIG    1       -3.450   3.701  -0.188  0.00  0.00    -0.090 A 
ATOM     21  C   LIG    1       -2.197   4.295  -0.260  0.00  0.00    +0.150 A 
ATOM     22  C   LIG    1       -1.055   3.513  -0.195  0.00  0.00    -0.040 A 
BRANCH  21  23
ATOM     23  O   LIG    1       -2.091   5.644  -0.395  0.00  0.00    -0.310 OA
BRANCH  23  24
ATOM     24  C   LIG    1       -3.310   6.387  -0.456  0.00  0.00    +0.210 C 
BRANCH  24  25
ATOM     25  C   LIG    1       -2.992   7.876  -0.607  0.00  0.00    +0.160 C 
ATOM     26  C   LIG    1       -4.296   8.674  -0.799  0.00  0.00    +0.010 C 
ATOM     27  C   LIG    1       -4.300   9.683   0.375  0.00  0.00    +0.000 C 
ATOM     28  C   LIG    1       -2.802   9.730   0.768  0.00  0.00    +0.200 C 
ATOM     29  O   LIG    1       -2.364   8.366   0.591  0.00  0.00    -0.360 OA
ENDBRANCH  24  25
ENDBRANCH  23  24
ENDBRANCH  21  23
ENDBRANCH   2  17
TORSDOF 5
