REMARK  Name = ZINCpe00000MJJOY.0
REMARK                            x       y       z     vdW  Elec       q    Type
REMARK                         _______ _______ _______ _____ _____    ______ ____
ROOT
ATOM      1  C   LIG    1       -3.856   3.054   5.058  0.00  0.00    +0.590 C 
ATOM      2  N   LIG    1       -3.266   2.675   3.907  0.00  0.00    -0.640 N 
ATOM      3  C   LIG    1       -3.298   1.451   3.083  0.00  0.00    +0.280 C 
ATOM      4  C   LIG    1       -2.904   2.360   1.905  0.00  0.00    +0.260 C 
ATOM      5  C   LIG    1       -2.329   3.316   2.965  0.00  0.00    +0.280 C 
ATOM      6  O   LIG    1       -4.679   2.332   5.586  0.00  0.00    -0.520 OA
ENDROOT
BRANCH   1  13
ATOM      7  C   LIG    1       -4.419   5.004   6.503  0.00  0.00    -0.030 A 
ATOM      8  C   LIG    1       -4.083   6.210   7.083  0.00  0.00    +0.040 A 
ATOM      9  C   LIG    1       -2.845   6.777   6.840  0.00  0.00    +0.020 A 
ATOM     10  C   LIG    1       -1.933   6.136   6.017  0.00  0.00    +0.090 A 
ATOM     11  C   LIG    1       -2.256   4.925   5.435  0.00  0.00    +0.020 A 
ATOM     12  F   LIG    1       -0.725   6.696   5.785  0.00  0.00    -0.140 F 
ATOM     13  C   LIG    1       -3.503   4.349   5.678  0.00  0.00    -0.100 A 
BRANCH   7  15
ATOM     14  C   LIG    1       -5.674   3.430   7.953  0.00  0.00    +0.040 C 
ATOM     15  C   LIG    1       -5.771   4.391   6.766  0.00  0.00    +0.070 C 
ENDBRANCH   7  15
ENDBRANCH   1  13
BRANCH   4  16
ATOM     16  N   LIG    1       -1.889   1.777   1.024  0.00  0.00    -0.610 N 
ATOM     17  C   LIG    1       -2.087   1.512  -0.406  0.00  0.00    +0.310 C 
ATOM     18  C   LIG    1       -0.669   1.326  -0.991  0.00  0.00    +0.000 C 
ATOM     19  C   LIG    1        0.126   0.861   0.251  0.00  0.00    +0.080 C 
ATOM     20  C   LIG    1       -0.654   1.415   1.423  0.00  0.00    +0.520 C 
ATOM     21  O   LIG    1       -0.229   1.518   2.554  0.00  0.00    -0.520 OA
BRANCH  18  22
ATOM     22  C   LIG    1       -0.128   2.630  -1.520  0.00  0.00    +0.520 C 
ATOM     23  N   LIG    1        1.144   2.703  -1.958  0.00  0.00    -0.730 N 
ATOM     24  H   LIG    1        1.712   1.917  -1.933  0.00  0.00    +0.400 HD
ATOM     25  C   LIG    1        1.670   3.970  -2.472  0.00  0.00    +0.290 C 
ATOM     26  O   LIG    1       -0.838   3.613  -1.551  0.00  0.00    -0.530 OA
ENDBRANCH  18  22
ENDBRANCH   4  16
TORSDOF 4
