REMARK  Name = ZINCrD00000F5Lq4.0
REMARK                            x       y       z     vdW  Elec       q    Type
REMARK                         _______ _______ _______ _____ _____    ______ ____
ROOT
ATOM      1  N   LIG    1        0.104  -3.457   1.361  0.00  0.00    -0.450 N 
ENDROOT
BRANCH   1   2
ATOM      2  C   LIG    1       -0.961  -4.341   1.390  0.00  0.00    +0.440 A 
ATOM      3  C   LIG    1       -2.168  -4.036   0.710  0.00  0.00    -0.050 A 
ATOM      4  N   LIG    1       -2.496  -2.963  -0.031  0.00  0.00    -0.440 NA
ATOM      5  C   LIG    1       -3.665  -2.928  -0.554  0.00  0.00    +0.300 A 
ATOM      6  S   LIG    1       -4.567  -4.380  -0.141  0.00  0.00    +0.130 S 
ATOM      7  C   LIG    1       -3.195  -4.983   0.783  0.00  0.00    +0.090 A 
ATOM      8  N   LIG    1       -3.010  -6.105   1.481  0.00  0.00    -0.500 NA
ATOM      9  C   LIG    1       -1.873  -6.337   2.098  0.00  0.00    +0.370 A 
ATOM     10  C   LIG    1       -1.711  -7.618   2.875  0.00  0.00    +0.180 C 
ATOM     11  N   LIG    1       -0.869  -5.481   2.058  0.00  0.00    -0.550 NA
ENDBRANCH   1   2
BRANCH   1  12
ATOM     12  C   LIG    1        1.239  -3.975   2.136  0.00  0.00    +0.240 C 
BRANCH  12  13
ATOM     13  C   LIG    1        0.860  -4.039   3.616  0.00  0.00    +0.160 C 
ATOM     14  C   LIG    1        2.043  -4.578   4.423  0.00  0.00    +0.020 C 
BRANCH  13  16
ATOM     15  C   LIG    1       -0.438  -2.714   5.135  0.00  0.00    +0.190 C 
ATOM     16  O   LIG    1        0.525  -2.729   4.080  0.00  0.00    -0.370 OA
ENDBRANCH  13  16
ENDBRANCH  12  13
ENDBRANCH   1  12
BRANCH   1  17
ATOM     17  C   LIG    1        0.502  -3.158  -0.021  0.00  0.00    +0.330 C 
BRANCH  17  18
ATOM     18  C   LIG    1        1.488  -2.018  -0.024  0.00  0.00    -0.070 A 
ATOM     19  C   LIG    1        2.834  -2.122  -0.038  0.00  0.00    +0.230 A 
ATOM     20  N   LIG    1        3.358  -0.894  -0.036  0.00  0.00    -0.490 NA
ATOM     21  C   LIG    1        2.376  -0.003  -0.021  0.00  0.00    +0.240 A 
ATOM     22  C   LIG    1        2.374   1.406  -0.013  0.00  0.00    +0.060 A 
ATOM     23  C   LIG    1        1.187   2.071   0.002  0.00  0.00    -0.060 A 
ATOM     24  C   LIG    1       -0.016   1.345   0.009  0.00  0.00    +0.010 A 
ATOM     25  C   LIG    1        0.002  -0.004   0.002  0.00  0.00    +0.240 A 
ATOM     26  C   LIG    1        1.163   3.577   0.010  0.00  0.00    +0.120 C 
ATOM     27  N   LIG    1        1.186  -0.683  -0.013  0.00  0.00    -0.340 N 
ENDBRANCH  17  18
ENDBRANCH   1  17
TORSDOF 6
