REMARK  Name = ZINCqH0000038zoA.0
REMARK                            x       y       z     vdW  Elec       q    Type
REMARK                         _______ _______ _______ _____ _____    ______ ____
ROOT
ATOM      1  N   LIG    1        4.081   0.623  -2.282  0.00  0.00    -0.690 N 
ATOM      2  H   LIG    1        3.543   0.904  -3.039  0.00  0.00    +0.410 HD
ATOM      3  C   LIG    1        3.503  -0.011  -1.243  0.00  0.00    +0.710 C 
ATOM      4  N   LIG    1        2.164  -0.160  -1.205  0.00  0.00    -0.720 N 
ATOM      5  H   LIG    1        1.616   0.188  -1.926  0.00  0.00    +0.390 HD
ATOM      6  O   LIG    1        4.189  -0.447  -0.339  0.00  0.00    -0.570 OA
ENDROOT
BRANCH   1  10
ATOM      7  C   LIG    1        8.184   1.372  -2.247  0.00  0.00    -0.200 A 
ATOM      8  C   LIG    1        7.535   1.113  -3.448  0.00  0.00    +0.110 A 
ATOM      9  C   LIG    1        6.178   0.865  -3.459  0.00  0.00    -0.020 A 
ATOM     10  C   LIG    1        5.460   0.874  -2.270  0.00  0.00    +0.210 A 
ATOM     11  C   LIG    1        6.107   1.138  -1.070  0.00  0.00    +0.020 A 
ATOM     12  C   LIG    1        7.466   1.381  -1.057  0.00  0.00    +0.110 A 
BRANCH   7  13
ATOM     13  S   LIG    1        9.918   1.687  -2.232  0.00  0.00    +0.120 S 
BRANCH  13  18
ATOM     14  C   LIG    1       11.899   6.500  -2.227  0.00  0.00    +0.160 C 
ATOM     15  C   LIG    1       10.770   5.505  -2.308  0.00  0.00    +0.080 A 
ATOM     16  C   LIG    1        9.498   5.870  -2.469  0.00  0.00    -0.090 A 
ATOM     17  S   LIG    1        8.512   4.411  -2.521  0.00  0.00    +0.140 S 
ATOM     18  C   LIG    1        9.909   3.448  -2.312  0.00  0.00    +0.010 A 
ATOM     19  N   LIG    1       10.962   4.201  -2.227  0.00  0.00    -0.460 NA
ENDBRANCH  13  18
ENDBRANCH   7  13
ENDBRANCH   1  10
BRANCH   4  20
ATOM     20  C   LIG    1        1.535  -0.849  -0.075  0.00  0.00    +0.290 C 
ATOM     21  C   LIG    1        1.549  -2.358  -0.325  0.00  0.00    +0.020 C 
ATOM     22  C   LIG    1        0.893  -3.077   0.855  0.00  0.00    +0.020 C 
ATOM     23  C   LIG    1       -0.553  -2.598   1.003  0.00  0.00    +0.020 C 
ATOM     24  C   LIG    1       -0.567  -1.089   1.254  0.00  0.00    +0.030 C 
ATOM     25  C   LIG    1        0.089  -0.370   0.073  0.00  0.00    -0.020 C 
BRANCH  25  26
ATOM     26  C   LIG    1        0.075   1.117   0.320  0.00  0.00    +0.520 C 
ATOM     27  O   LIG    1        1.119   1.733   0.372  0.00  0.00    -0.530 OA
ATOM     28  N   LIG    1       -1.097   1.763   0.477  0.00  0.00    -0.860 N 
ATOM     29  H   LIG    1       -1.106   2.720   0.636  0.00  0.00    +0.400 HD
ATOM     30  H   LIG    1       -1.932   1.271   0.432  0.00  0.00    +0.400 HD
ENDBRANCH  25  26
ENDBRANCH   4  20
TORSDOF 5
