REMARK  Name = ZINCrD0000074tht.0
REMARK                            x       y       z     vdW  Elec       q    Type
REMARK                         _______ _______ _______ _____ _____    ______ ____
ROOT
ATOM      1  C   LIG    1        4.819   4.013   0.194  0.00  0.00    +0.270 C 
ENDROOT
BRANCH   1   2
ATOM      2  C   LIG    1        3.532   3.236   0.088  0.00  0.00    +0.520 C 
ATOM      3  N   LIG    1        2.356   3.889   0.001  0.00  0.00    -0.670 N 
ATOM      4  H   LIG    1        2.342   4.856  -0.071  0.00  0.00    +0.420 HD
ATOM      5  O   LIG    1        3.554   2.023   0.082  0.00  0.00    -0.490 OA
BRANCH   3   6
ATOM      6  C   LIG    1        1.155   3.171   0.014  0.00  0.00    +0.150 A 
ATOM      7  C   LIG    1        1.050   2.003   0.758  0.00  0.00    +0.060 A 
ATOM      8  C   LIG    1       -0.137   1.297   0.769  0.00  0.00    +0.040 A 
ATOM      9  C   LIG    1       -1.219   1.749   0.036  0.00  0.00    +0.060 A 
ATOM     10  C   LIG    1       -1.119   2.914  -0.702  0.00  0.00    -0.160 A 
ATOM     11  C   LIG    1        0.065   3.625  -0.718  0.00  0.00    +0.040 A 
BRANCH  10  12
ATOM     12  C   LIG    1       -2.302   3.406  -1.496  0.00  0.00    +0.510 C 
ATOM     13  F   LIG    1       -2.259   4.801  -1.582  0.00  0.00    -0.180 F 
ATOM     14  F   LIG    1       -3.486   3.015  -0.860  0.00  0.00    -0.170 F 
ATOM     15  F   LIG    1       -2.262   2.858  -2.782  0.00  0.00    -0.170 F 
ENDBRANCH  10  12
ENDBRANCH   3   6
ENDBRANCH   1   2
BRANCH   1  16
ATOM     16  O   LIG    1        5.936   3.090   0.275  0.00  0.00    -0.320 OA
BRANCH  16  17
ATOM     17  C   LIG    1        7.163   3.626   0.375  0.00  0.00    +0.490 C 
ATOM     18  O   LIG    1        7.298   4.826   0.394  0.00  0.00    -0.490 OA
BRANCH  17  19
ATOM     19  C   LIG    1        8.371   2.729   0.463  0.00  0.00    +0.150 C 
BRANCH  19  20
ATOM     20  S   LIG    1        9.866   3.743   0.587  0.00  0.00    +0.090 S 
BRANCH  20  26
ATOM     21  C   LIG    1       11.160  -1.208   0.656  0.00  0.00    +0.140 C 
ATOM     22  C   LIG    1       11.600   0.232   0.699  0.00  0.00    +0.190 A 
ATOM     23  C   LIG    1       12.945   0.552   0.807  0.00  0.00    -0.090 A 
ATOM     24  C   LIG    1       13.307   1.889   0.844  0.00  0.00    +0.200 A 
ATOM     25  N   LIG    1       12.366   2.815   0.776  0.00  0.00    -0.510 NA
ATOM     26  C   LIG    1       11.088   2.476   0.674  0.00  0.00    +0.290 A 
ATOM     27  C   LIG    1       14.757   2.283   0.960  0.00  0.00    +0.150 C 
ATOM     28  N   LIG    1       10.708   1.207   0.641  0.00  0.00    -0.540 NA
ENDBRANCH  20  26
ENDBRANCH  19  20
ENDBRANCH  17  19
ENDBRANCH  16  17
ENDBRANCH   1  16
TORSDOF 8
