REMARK  Name = ZINCrH00000No4X0.0
REMARK                            x       y       z     vdW  Elec       q    Type
REMARK                         _______ _______ _______ _____ _____    ______ ____
ROOT
ATOM      1  C   LIG    1        2.746  -0.803   3.703  0.00  0.00    +0.150 C 
ATOM      2  C   LIG    1        3.272  -1.163   4.896  0.00  0.00    -0.110 C 
ENDROOT
BRANCH   1   6
ATOM      3  C   LIG    1       -0.748   1.602   3.568  0.00  0.00    +0.120 A 
ATOM      4  C   LIG    1       -0.210   1.228   4.792  0.00  0.00    -0.040 A 
ATOM      5  C   LIG    1        0.925   0.449   4.841  0.00  0.00    +0.050 A 
ATOM      6  C   LIG    1        1.535   0.027   3.654  0.00  0.00    -0.080 A 
ATOM      7  C   LIG    1        0.989   0.401   2.420  0.00  0.00    -0.010 A 
ATOM      8  C   LIG    1       -0.148   1.182   2.380  0.00  0.00    +0.100 A 
BRANCH   3   9
ATOM      9  O   LIG    1       -1.864   2.375   3.526  0.00  0.00    -0.300 OA
BRANCH   9  10
ATOM     10  C   LIG    1       -2.426   2.770   4.779  0.00  0.00    +0.350 C 
BRANCH  10  12
ATOM     11  C   LIG    1       -4.574   4.256   4.352  0.00  0.00    +0.080 C 
ATOM     12  C   LIG    1       -3.621   3.596   4.542  0.00  0.00    -0.210 C 
ENDBRANCH  10  12
ENDBRANCH   9  10
ENDBRANCH   3   9
BRANCH   8  13
ATOM     13  O   LIG    1       -0.682   1.547   1.184  0.00  0.00    -0.300 OA
BRANCH  13  14
ATOM     14  C   LIG    1       -0.013   1.086   0.008  0.00  0.00    +0.170 C 
ATOM     15  C   LIG    1       -0.753   1.593  -1.232  0.00  0.00    +0.070 C 
ENDBRANCH  13  14
ENDBRANCH   8  13
ENDBRANCH   1   6
BRANCH   2  16
ATOM     16  C   LIG    1        4.440  -1.965   4.943  0.00  0.00    +0.430 C 
ATOM     17  O   LIG    1        4.970  -2.330   3.909  0.00  0.00    -0.460 OA
BRANCH  16  18
ATOM     18  C   LIG    1        5.015  -2.357   6.246  0.00  0.00    -0.160 A 
ATOM     19  C   LIG    1        4.409  -1.940   7.433  0.00  0.00    +0.070 A 
ATOM     20  C   LIG    1        4.947  -2.307   8.646  0.00  0.00    +0.010 A 
ATOM     21  C   LIG    1        6.092  -3.093   8.696  0.00  0.00    +0.080 A 
ATOM     22  O   LIG    1        6.608  -3.439   9.905  0.00  0.00    -0.300 OA
ATOM     23  C   LIG    1        7.533  -4.532   9.921  0.00  0.00    +0.230 C 
ATOM     24  C   LIG    1        8.542  -4.325   8.783  0.00  0.00    +0.230 C 
ATOM     25  O   LIG    1        7.820  -4.288   7.547  0.00  0.00    -0.300 OA
ATOM     26  C   LIG    1        6.700  -3.514   7.516  0.00  0.00    +0.040 A 
ATOM     27  C   LIG    1        6.163  -3.152   6.294  0.00  0.00    +0.090 A 
ENDBRANCH  16  18
ENDBRANCH   2  16
TORSDOF 8
