REMARK  Name = ZINCrD000000Bs7w.0
REMARK                            x       y       z     vdW  Elec       q    Type
REMARK                         _______ _______ _______ _____ _____    ______ ____
ROOT
ATOM      1  O   LIG    1        1.064  -0.598  -0.011  0.00  0.00    -0.510 OA
ATOM      2  C   LIG    1        0.002  -0.004   0.002  0.00  0.00    +0.610 C 
ATOM      3  N   LIG    1       -0.016   1.344   0.009  0.00  0.00    -0.720 N 
ATOM      4  H   LIG    1       -0.863   1.817   0.016  0.00  0.00    +0.410 HD
ENDROOT
BRANCH   2   5
ATOM      5  C   LIG    1       -1.258  -0.755   0.010  0.00  0.00    -0.070 A 
ATOM      6  C   LIG    1       -1.382  -2.114  -0.002  0.00  0.00    +0.050 A 
ATOM      7  C   LIG    1       -2.757  -2.394   0.015  0.00  0.00    -0.010 A 
ATOM      8  C   LIG    1       -3.404  -1.208   0.027  0.00  0.00    -0.010 A 
ATOM      9  O   LIG    1       -2.498  -0.222   0.024  0.00  0.00    -0.160 OA
BRANCH   8  10
ATOM     10  C   LIG    1       -4.900  -1.024   0.042  0.00  0.00    +0.460 C 
BRANCH  10  11
ATOM     11  N   LIG    1       -5.372  -0.973   1.427  0.00  0.00    -0.380 N 
ATOM     12  C   LIG    1       -6.102   0.018   1.981  0.00  0.00    +0.240 A 
ATOM     13  C   LIG    1       -6.335  -0.314   3.272  0.00  0.00    -0.120 A 
ATOM     14  C   LIG    1       -5.718  -1.545   3.519  0.00  0.00    +0.240 A 
ATOM     15  N   LIG    1       -5.141  -1.941   2.413  0.00  0.00    -0.290 NA
ENDBRANCH  10  11
ENDBRANCH   8  10
ENDBRANCH   2   5
BRANCH   3  16
ATOM     16  C   LIG    1        1.242   2.093   0.001  0.00  0.00    +0.340 C 
BRANCH  16  17
ATOM     17  C   LIG    1        0.947   3.571   0.012  0.00  0.00    -0.070 A 
ATOM     18  C   LIG    1        0.806   4.256  -1.180  0.00  0.00    +0.000 A 
ATOM     19  C   LIG    1        0.530   5.611  -1.174  0.00  0.00    +0.050 A 
ATOM     20  C   LIG    1        0.405   6.286   0.025  0.00  0.00    -0.070 A 
ATOM     21  C   LIG    1        0.552   5.602   1.223  0.00  0.00    +0.120 A 
ATOM     22  C   LIG    1        0.823   4.241   1.214  0.00  0.00    +0.020 A 
BRANCH  21  23
ATOM     23  O   LIG    1        0.430   6.263   2.404  0.00  0.00    -0.300 OA
BRANCH  23  24
ATOM     24  C   LIG    1        0.150   7.663   2.337  0.00  0.00    +0.230 C 
BRANCH  24  25
ATOM     25  C   LIG    1        0.049   8.231   3.754  0.00  0.00    +0.470 C 
ATOM     26  F   LIG    1       -0.981   7.582   4.444  0.00  0.00    -0.170 F 
ATOM     27  F   LIG    1       -0.226   9.601   3.689  0.00  0.00    -0.170 F 
ATOM     28  F   LIG    1        1.260   8.029   4.425  0.00  0.00    -0.170 F 
ENDBRANCH  24  25
ENDBRANCH  23  24
ENDBRANCH  21  23
ENDBRANCH  16  17
ENDBRANCH   3  16
TORSDOF 8
