REMARK  Name = ZINCpe000000Ttlx.0
REMARK                            x       y       z     vdW  Elec       q    Type
REMARK                         _______ _______ _______ _____ _____    ______ ____
ROOT
ATOM      1  N   LIG    1       -1.066   1.903  -1.320  0.00  0.00    -1.010 NA
ATOM      2  C   LIG    1       -0.462   1.730   0.010  0.00  0.00    +0.300 C 
ATOM      3  C   LIG    1       -1.393   2.351   1.057  0.00  0.00    +0.180 C 
ATOM      4  N   LIG    1       -1.690   3.740   0.680  0.00  0.00    -0.520 NA
ATOM      5  C   LIG    1       -2.406   3.809  -0.600  0.00  0.00    +0.170 C 
ATOM      6  C   LIG    1       -1.512   3.249  -1.712  0.00  0.00    +0.300 C 
ENDROOT
BRANCH   1   7
ATOM      7  S   LIG    1       -1.240   0.617  -2.348  0.00  0.00    +2.780 S 
ATOM      8  O   LIG    1       -0.204  -0.300  -2.023  0.00  0.00    -0.970 OA
ATOM      9  O   LIG    1       -1.416   1.163  -3.648  0.00  0.00    -0.970 OA
BRANCH   7  10
ATOM     10  N   LIG    1       -2.665  -0.132  -1.959  0.00  0.00    -1.010 NA
BRANCH  10  12
ATOM     11  C   LIG    1       -4.298  -0.385  -3.762  0.00  0.00    +0.020 C 
ATOM     12  C   LIG    1       -3.931   0.381  -2.489  0.00  0.00    +0.270 C 
ENDBRANCH  10  12
BRANCH  10  13
ATOM     13  C   LIG    1       -2.660  -1.308  -1.085  0.00  0.00    +0.280 C 
ATOM     14  C   LIG    1       -2.965  -0.877   0.351  0.00  0.00    +0.010 C 
ENDBRANCH  10  13
ENDBRANCH   7  10
ENDBRANCH   1   7
BRANCH   4  15
ATOM     15  C   LIG    1       -2.442   4.423   1.741  0.00  0.00    +0.210 C 
BRANCH  15  16
ATOM     16  C   LIG    1       -1.578   4.549   2.969  0.00  0.00    +0.510 C 
ATOM     17  N   LIG    1       -2.062   5.146   4.076  0.00  0.00    -0.730 N 
ATOM     18  H   LIG    1       -2.967   5.495   4.082  0.00  0.00    +0.400 HD
ATOM     19  O   LIG    1       -0.447   4.112   2.962  0.00  0.00    -0.520 OA
BRANCH  17  20
ATOM     20  C   LIG    1       -1.222   5.268   5.270  0.00  0.00    +0.240 C 
ATOM     21  C   LIG    1       -1.322   3.984   6.097  0.00  0.00    +0.000 C 
ATOM     22  C   LIG    1       -0.444   4.111   7.344  0.00  0.00    +0.000 C 
ATOM     23  C   LIG    1       -0.921   5.298   8.184  0.00  0.00    +0.000 C 
ATOM     24  C   LIG    1       -0.821   6.581   7.357  0.00  0.00    +0.030 C 
ATOM     25  C   LIG    1       -1.699   6.454   6.111  0.00  0.00    -0.030 C 
ATOM     26  C   LIG    1       -1.599   7.737   5.284  0.00  0.00    +0.020 C 
ENDBRANCH  17  20
ENDBRANCH  15  16
ENDBRANCH   4  15
TORSDOF 7
