REMARK  Name = ZINCpk00000Kazp8.0
REMARK                            x       y       z     vdW  Elec       q    Type
REMARK                         _______ _______ _______ _____ _____    ______ ____
ROOT
ATOM      1  C   LIG    1        3.498   3.055   1.821  0.00  0.00    +0.120 C 
ATOM      2  C   LIG    1        4.994   2.864   1.562  0.00  0.00    +0.080 C 
ENDROOT
BRANCH   1   3
ATOM      3  N   LIG    1        2.787   3.151   0.539  0.00  0.00    -0.500 NA
ATOM      4  C   LIG    1        2.983   1.933  -0.265  0.00  0.00    +0.240 C 
ATOM      5  C   LIG    1        2.606   0.723   0.591  0.00  0.00    +0.080 C 
ATOM      6  C   LIG    1        1.257   0.941   1.222  0.00  0.00    -0.250 A 
ATOM      7  C   LIG    1        0.685   2.168   1.301  0.00  0.00    +0.150 A 
ATOM      8  N   LIG    1       -0.514   2.300   1.886  0.00  0.00    -0.530 NA
ATOM      9  C   LIG    1       -1.155   1.278   2.380  0.00  0.00    +0.580 A 
ATOM     10  N   LIG    1       -0.643   0.032   2.323  0.00  0.00    -0.630 N 
ATOM     11  H   LIG    1       -1.139  -0.716   2.690  0.00  0.00    +0.420 HD
ATOM     12  C   LIG    1        0.565  -0.169   1.756  0.00  0.00    +0.520 A 
ATOM     13  O   LIG    1        1.046  -1.288   1.700  0.00  0.00    -0.530 OA
ATOM     14  C   LIG    1        1.357   3.397   0.748  0.00  0.00    +0.310 C 
ENDBRANCH   1   3
BRANCH   1  17
ATOM     15  N   LIG    1        3.309   4.287   3.957  0.00  0.00    -0.730 N 
ATOM     16  H   LIG    1        3.467   3.449   4.419  0.00  0.00    +0.400 HD
ATOM     17  C   LIG    1        3.282   4.321   2.610  0.00  0.00    +0.520 C 
ATOM     18  O   LIG    1        3.085   5.369   2.034  0.00  0.00    -0.510 OA
BRANCH  15  19
ATOM     19  C   LIG    1        3.100   5.517   4.725  0.00  0.00    +0.270 C 
BRANCH  19  21
ATOM     20  C   LIG    1        4.596   4.746   6.571  0.00  0.00    +0.030 C 
ATOM     21  C   LIG    1        3.179   5.205   6.221  0.00  0.00    +0.020 C 
BRANCH  21  22
ATOM     22  C   LIG    1        2.842   6.443   7.011  0.00  0.00    -0.080 A 
ATOM     23  C   LIG    1        3.612   7.583   6.871  0.00  0.00    +0.010 A 
ATOM     24  C   LIG    1        3.301   8.720   7.593  0.00  0.00    +0.000 A 
ATOM     25  C   LIG    1        2.225   8.715   8.461  0.00  0.00    +0.000 A 
ATOM     26  C   LIG    1        1.459   7.574   8.605  0.00  0.00    +0.000 A 
ATOM     27  C   LIG    1        1.767   6.438   7.880  0.00  0.00    +0.010 A 
ENDBRANCH  21  22
ENDBRANCH  19  21
ENDBRANCH  15  19
ENDBRANCH   1  17
TORSDOF 5
