REMARK  Name = ZINCvU0000000B7c.0
REMARK                            x       y       z     vdW  Elec       q    Type
REMARK                         _______ _______ _______ _____ _____    ______ ____
ROOT
ATOM      1  C   LIG    1       -0.581  -2.112  -0.003  0.00  0.00    +0.240 A 
ATOM      2  N   LIG    1        0.728  -2.008  -0.015  0.00  0.00    -0.270 NA
ATOM      3  N   LIG    1        1.071  -0.770  -0.012  0.00  0.00    -0.290 NA
ATOM      4  C   LIG    1        0.002  -0.004   0.002  0.00  0.00    +0.150 A 
ATOM      5  N   LIG    1       -1.088  -0.831   0.013  0.00  0.00    -0.410 N 
ENDROOT
BRANCH   1   9
ATOM      6  C   LIG    1       -2.828  -5.716   0.002  0.00  0.00    -0.050 A 
ATOM      7  C   LIG    1       -1.477  -5.747   0.299  0.00  0.00    +0.010 A 
ATOM      8  C   LIG    1       -0.741  -4.579   0.300  0.00  0.00    +0.070 A 
ATOM      9  C   LIG    1       -1.363  -3.366  -0.001  0.00  0.00    -0.030 A 
ATOM     10  C   LIG    1       -2.727  -3.342  -0.294  0.00  0.00    +0.030 A 
ATOM     11  C   LIG    1       -3.450  -4.518  -0.297  0.00  0.00    +0.010 A 
BRANCH   6  13
ATOM     12  C   LIG    1       -3.564  -7.633   1.392  0.00  0.00    +0.040 C 
ATOM     13  C   LIG    1       -3.624  -6.996   0.003  0.00  0.00    -0.030 C 
ATOM     14  C   LIG    1       -3.038  -7.962  -1.028  0.00  0.00    +0.040 C 
ATOM     15  C   LIG    1       -5.080  -6.690  -0.355  0.00  0.00    +0.030 C 
ENDBRANCH   6  13
ENDBRANCH   1   9
BRANCH   5  16
ATOM     16  C   LIG    1       -2.438  -0.454   0.035  0.00  0.00    +0.100 A 
ATOM     17  C   LIG    1       -3.230  -0.766   1.132  0.00  0.00    +0.030 A 
ATOM     18  C   LIG    1       -4.558  -0.388   1.153  0.00  0.00    +0.040 A 
ATOM     19  C   LIG    1       -5.102   0.290   0.078  0.00  0.00    +0.040 A 
ATOM     20  C   LIG    1       -4.317   0.598  -1.018  0.00  0.00    +0.040 A 
ATOM     21  C   LIG    1       -2.987   0.228  -1.042  0.00  0.00    +0.030 A 
ENDBRANCH   5  16
BRANCH   4  22
ATOM     22  S   LIG    1       -0.022   1.758   0.012  0.00  0.00    +0.100 S 
BRANCH  22  23
ATOM     23  C   LIG    1        1.756   2.096  -0.004  0.00  0.00    +0.110 C 
BRANCH  23  24
ATOM     24  C   LIG    1        1.984   3.586   0.002  0.00  0.00    +0.550 C 
ATOM     25  N   LIG    1        3.240   4.076  -0.007  0.00  0.00    -0.720 N 
ATOM     26  H   LIG    1        3.997   3.469  -0.018  0.00  0.00    +0.410 HD
ATOM     27  O   LIG    1        1.037   4.344   0.015  0.00  0.00    -0.510 OA
BRANCH  25  28
ATOM     28  C   LIG    1        3.461   5.524  -0.001  0.00  0.00    +0.320 C 
BRANCH  28  29
ATOM     29  C   LIG    1        4.964   5.810  -0.014  0.00  0.00    +0.450 C 
ATOM     30  F   LIG    1        5.556   5.243   1.119  0.00  0.00    -0.180 F 
ATOM     31  F   LIG    1        5.175   7.193  -0.009  0.00  0.00    -0.170 F 
ATOM     32  F   LIG    1        5.534   5.255  -1.165  0.00  0.00    -0.180 F 
ENDBRANCH  28  29
ENDBRANCH  25  28
ENDBRANCH  23  24
ENDBRANCH  22  23
ENDBRANCH   4  22
TORSDOF 8
