REMARK  Name = ZINCrg000000pY0L.0
REMARK                            x       y       z     vdW  Elec       q    Type
REMARK                         _______ _______ _______ _____ _____    ______ ____
ROOT
ATOM      1  S   LIG    1       -3.120  -0.314   0.030  0.00  0.00    +2.740 S 
ATOM      2  O   LIG    1       -4.427  -0.298   0.588  0.00  0.00    -0.930 OA
ATOM      3  O   LIG    1       -2.058  -1.096   0.560  0.00  0.00    -0.950 OA
ENDROOT
BRANCH   1   9
ATOM      4  C   LIG    1        1.097   3.240   0.009  0.00  0.00    -0.150 A 
ATOM      5  C   LIG    1       -0.112   3.872   0.024  0.00  0.00    +0.340 A 
ATOM      6  N   LIG    1       -1.270   3.152   0.031  0.00  0.00    -0.370 N 
ATOM      7  C   LIG    1       -2.578   3.519   0.046  0.00  0.00    +0.400 A 
ATOM      8  N   LIG    1       -3.326   2.446   0.047  0.00  0.00    -0.360 NA
ATOM      9  C   LIG    1       -2.557   1.356   0.034  0.00  0.00    -0.560 A 
ATOM     10  C   LIG    1       -1.242   1.771   0.018  0.00  0.00    +0.130 A 
ATOM     11  C   LIG    1       -0.013   1.076   0.008  0.00  0.00    +0.070 A 
ATOM     12  C   LIG    1        1.148   1.775   0.001  0.00  0.00    +0.110 A 
BRANCH   4  13
ATOM     13  C   LIG    1        2.344   4.025   0.001  0.00  0.00    +0.520 C 
ATOM     14  O   LIG    1        2.297   5.239   0.008  0.00  0.00    -0.500 OA
BRANCH  13  16
ATOM     15  C   LIG    1        4.722   4.233  -0.022  0.00  0.00    +0.290 C 
ATOM     16  O   LIG    1        3.536   3.396  -0.014  0.00  0.00    -0.350 OA
ENDBRANCH  13  16
ENDBRANCH   4  13
ENDBRANCH   1   9
BRANCH   1  17
ATOM     17  N   LIG    1       -3.292  -0.769  -1.552  0.00  0.00    -1.010 NA
ATOM     18  C   LIG    1       -2.247  -1.389  -2.387  0.00  0.00    +0.280 C 
ATOM     19  C   LIG    1       -2.651  -1.052  -3.844  0.00  0.00    +0.060 C 
ATOM     20  C   LIG    1       -4.197  -1.158  -3.771  0.00  0.00    +0.090 C 
ATOM     21  C   LIG    1       -4.515  -0.629  -2.356  0.00  0.00    +0.290 C 
BRANCH  20  22
ATOM     22  C   LIG    1       -4.841  -0.294  -4.824  0.00  0.00    +0.210 A 
ATOM     23  N   LIG    1       -4.690   0.996  -4.946  0.00  0.00    -0.480 NA
ATOM     24  C   LIG    1       -5.408   1.429  -5.993  0.00  0.00    +0.140 A 
ATOM     25  C   LIG    1       -6.034   0.367  -6.536  0.00  0.00    +0.130 A 
ATOM     26  N   LIG    1       -5.674  -0.726  -5.795  0.00  0.00    -0.460 N 
ATOM     27  C   LIG    1       -6.112  -2.107  -6.014  0.00  0.00    +0.330 C 
ENDBRANCH  20  22
ENDBRANCH   1  17
TORSDOF 5
