REMARK  Name = ZINCpk00000eb5h7.0
REMARK                            x       y       z     vdW  Elec       q    Type
REMARK                         _______ _______ _______ _____ _____    ______ ____
ROOT
ATOM      1  C   LIG    1       -7.749   7.639   3.380  0.00  0.00    +0.170 A 
ATOM      2  C   LIG    1       -7.001   7.250   4.487  0.00  0.00    +0.020 A 
ATOM      3  C   LIG    1       -5.740   6.724   4.317  0.00  0.00    +0.110 A 
ATOM      4  C   LIG    1       -5.212   6.581   3.032  0.00  0.00    -0.130 A 
ATOM      5  C   LIG    1       -5.964   6.978   1.922  0.00  0.00    +0.060 A 
ATOM      6  C   LIG    1       -7.226   7.498   2.099  0.00  0.00    +0.020 A 
ENDROOT
BRANCH   1  14
ATOM      7  C   LIG    1      -10.177   6.042   4.452  0.00  0.00    +0.160 C 
ATOM      8  C   LIG    1      -10.138   7.489   4.033  0.00  0.00    +0.020 A 
ATOM      9  C   LIG    1      -11.161   8.337   4.055  0.00  0.00    +0.190 A 
ATOM     10  N   LIG    1      -10.708   9.564   3.592  0.00  0.00    -0.640 N 
ATOM     11  H   LIG    1      -11.240  10.370   3.501  0.00  0.00    +0.440 HD
ATOM     12  C   LIG    1       -9.399   9.442   3.298  0.00  0.00    +0.660 A 
ATOM     13  O   LIG    1       -8.677  10.325   2.871  0.00  0.00    -0.560 OA
ATOM     14  N   LIG    1       -9.028   8.172   3.556  0.00  0.00    -0.490 N 
ENDBRANCH   1  14
BRANCH   4  15
ATOM     15  C   LIG    1       -3.861   6.017   2.846  0.00  0.00    +0.570 C 
ATOM     16  N   LIG    1       -3.353   5.880   1.605  0.00  0.00    -0.700 N 
ATOM     17  H   LIG    1       -3.875   6.151   0.834  0.00  0.00    +0.400 HD
ATOM     18  O   LIG    1       -3.206   5.677   3.812  0.00  0.00    -0.530 OA
BRANCH  16  19
ATOM     19  C   LIG    1       -2.011   5.320   1.421  0.00  0.00    +0.240 C 
ATOM     20  C   LIG    1       -1.090   6.011   0.414  0.00  0.00    +0.050 C 
ATOM     21  C   LIG    1       -1.704   4.650   0.080  0.00  0.00    +0.040 C 
BRANCH  21  22
ATOM     22  C   LIG    1       -0.789   3.452   0.095  0.00  0.00    +0.100 A 
ATOM     23  N   LIG    1       -1.166   2.200   0.131  0.00  0.00    -0.290 NA
ATOM     24  N   LIG    1       -0.018   1.397   0.136  0.00  0.00    -0.380 N 
ATOM     25  C   LIG    1        1.058   2.211   0.092  0.00  0.00    +0.240 A 
ATOM     26  C   LIG    1        0.010  -0.067   0.175  0.00  0.00    +0.360 C 
ATOM     27  C   LIG    1        0.609   3.487   0.066  0.00  0.00    -0.120 A 
ENDBRANCH  21  22
ENDBRANCH  16  19
ENDBRANCH   4  15
TORSDOF 4
