REMARK  Name = ZINCvU0000000Hxd.0
REMARK                            x       y       z     vdW  Elec       q    Type
REMARK                         _______ _______ _______ _____ _____    ______ ____
ROOT
ATOM      1  C   LIG    1        1.315   1.800   0.578  0.00  0.00    +0.150 A 
ATOM      2  N   LIG    1        1.997   0.709   0.314  0.00  0.00    -0.280 NA
ATOM      3  N   LIG    1        1.225  -0.318   0.353  0.00  0.00    -0.260 NA
ATOM      4  C   LIG    1       -0.002   0.054   0.646  0.00  0.00    +0.270 A 
ATOM      5  N   LIG    1        0.017   1.424   0.799  0.00  0.00    -0.410 N 
ENDROOT
BRANCH   5   6
ATOM      6  C   LIG    1       -1.066   2.258   1.111  0.00  0.00    +0.090 A 
ATOM      7  C   LIG    1       -2.119   2.394   0.216  0.00  0.00    +0.040 A 
ATOM      8  C   LIG    1       -3.187   3.213   0.527  0.00  0.00    +0.040 A 
ATOM      9  C   LIG    1       -3.203   3.905   1.724  0.00  0.00    +0.050 A 
ATOM     10  C   LIG    1       -2.153   3.775   2.615  0.00  0.00    +0.040 A 
ATOM     11  C   LIG    1       -1.085   2.954   2.312  0.00  0.00    +0.040 A 
ENDBRANCH   5   6
BRANCH   4  12
ATOM     12  C   LIG    1       -1.174  -0.826   0.783  0.00  0.00    -0.140 A 
ATOM     13  C   LIG    1       -1.244  -2.105   0.353  0.00  0.00    +0.080 A 
ATOM     14  C   LIG    1       -2.449  -2.729   0.600  0.00  0.00    +0.010 A 
ATOM     15  C   LIG    1       -3.363  -1.974   1.216  0.00  0.00    -0.030 A 
ATOM     16  S   LIG    1       -2.702  -0.374   1.528  0.00  0.00    +0.150 S 
ENDBRANCH   4  12
BRANCH   1  17
ATOM     17  S   LIG    1        1.953   3.442   0.636  0.00  0.00    +0.100 S 
BRANCH  17  18
ATOM     18  C   LIG    1        3.690   3.119   0.245  0.00  0.00    +0.100 C 
BRANCH  18  20
ATOM     19  N   LIG    1        5.774   4.422  -0.030  0.00  0.00    -0.560 N 
ATOM     20  C   LIG    1        4.454   4.418   0.239  0.00  0.00    +0.540 C 
ATOM     21  O   LIG    1        3.879   5.460   0.475  0.00  0.00    -0.500 OA
BRANCH  19  22
ATOM     22  C   LIG    1        6.463   5.636  -0.136  0.00  0.00    +0.130 A 
ATOM     23  C   LIG    1        6.201   6.494  -1.196  0.00  0.00    +0.010 A 
ATOM     24  C   LIG    1        6.878   7.694  -1.294  0.00  0.00    +0.020 A 
ATOM     25  C   LIG    1        7.825   8.035  -0.346  0.00  0.00    +0.020 A 
ATOM     26  C   LIG    1        8.092   7.180   0.708  0.00  0.00    +0.020 A 
ATOM     27  C   LIG    1        7.414   5.982   0.815  0.00  0.00    +0.010 A 
ENDBRANCH  19  22
BRANCH  19  28
ATOM     28  C   LIG    1        6.489   3.156  -0.211  0.00  0.00    +0.310 C 
BRANCH  28  29
ATOM     29  C   LIG    1        6.450   2.755  -1.687  0.00  0.00    +0.180 C 
BRANCH  29  31
ATOM     30  N   LIG    1        7.723   0.501  -2.009  0.00  0.00    -0.420 NA
ATOM     31  C   LIG    1        7.169   1.483  -1.868  0.00  0.00    +0.200 C 
ENDBRANCH  29  31
ENDBRANCH  28  29
ENDBRANCH  19  28
ENDBRANCH  18  20
ENDBRANCH  17  18
ENDBRANCH   1  17
TORSDOF 9
