REMARK  Name = ZINCpk00000iRU86.0
REMARK                            x       y       z     vdW  Elec       q    Type
REMARK                         _______ _______ _______ _____ _____    ______ ____
ROOT
ATOM      1  N   LIG    1       -0.668  -1.237  -2.308  0.00  0.00    -0.700 N 
ATOM      2  H   LIG    1       -0.945  -1.849  -3.007  0.00  0.00    +0.400 HD
ATOM      3  C   LIG    1        0.598  -0.776  -2.278  0.00  0.00    +0.530 C 
ATOM      4  O   LIG    1        0.968  -0.078  -1.357  0.00  0.00    -0.520 OA
ENDROOT
BRANCH   1   5
ATOM      5  C   LIG    1       -1.626  -0.814  -1.284  0.00  0.00    +0.090 C 
ATOM      6  C   LIG    1       -2.284   0.557  -1.456  0.00  0.00    +0.040 C 
ATOM      7  C   LIG    1       -3.098  -0.719  -1.690  0.00  0.00    +0.030 C 
BRANCH   5   8
ATOM      8  C   LIG    1       -1.315  -1.274   0.142  0.00  0.00    +0.330 C 
BRANCH   8  10
ATOM      9  C   LIG    1       -0.996  -3.685  -0.001  0.00  0.00    +0.510 C 
ATOM     10  N   LIG    1       -1.790  -2.647   0.327  0.00  0.00    -0.610 N 
ATOM     11  C   LIG    1       -3.130  -2.892   0.867  0.00  0.00    +0.270 C 
ATOM     12  O   LIG    1        0.111  -3.483  -0.453  0.00  0.00    -0.530 OA
BRANCH   9  13
ATOM     13  C   LIG    1       -1.486  -5.098   0.189  0.00  0.00    +0.070 C 
BRANCH  13  14
ATOM     14  C   LIG    1       -0.399  -6.079  -0.257  0.00  0.00    +0.180 C 
BRANCH  14  16
ATOM     15  C   LIG    1       -1.258  -8.559   0.077  0.00  0.00    +0.020 C 
ATOM     16  C   LIG    1       -0.877  -7.458  -0.071  0.00  0.00    -0.190 C 
ENDBRANCH  14  16
ENDBRANCH  13  14
ENDBRANCH   9  13
ENDBRANCH   8  10
ENDBRANCH   5   8
ENDBRANCH   1   5
BRANCH   3  17
ATOM     17  C   LIG    1        1.555  -1.128  -3.388  0.00  0.00    +0.100 C 
BRANCH  17  18
ATOM     18  C   LIG    1        2.894  -0.493  -3.117  0.00  0.00    -0.030 A 
ATOM     19  C   LIG    1        3.170   0.772  -3.601  0.00  0.00    +0.010 A 
ATOM     20  C   LIG    1        4.397   1.357  -3.348  0.00  0.00    +0.100 A 
ATOM     21  C   LIG    1        5.352   0.672  -2.620  0.00  0.00    -0.460 A 
ATOM     22  C   LIG    1        5.079  -0.595  -2.141  0.00  0.00    +0.080 A 
ATOM     23  C   LIG    1        3.850  -1.178  -2.389  0.00  0.00    +0.000 A 
BRANCH  21  24
ATOM     24  S   LIG    1        6.918   1.416  -2.303  0.00  0.00    +1.330 S 
ATOM     25  O   LIG    1        7.361   0.740  -1.134  0.00  0.00    -0.860 OA
ATOM     26  C   LIG    1        7.916   0.886  -3.723  0.00  0.00    -0.200 C 
ENDBRANCH  21  24
ENDBRANCH  17  18
ENDBRANCH   3  17
TORSDOF 9
