REMARK  Name = ZINCpe000027pHk5.0
REMARK                            x       y       z     vdW  Elec       q    Type
REMARK                         _______ _______ _______ _____ _____    ______ ____
ROOT
ATOM      1  C   LIG    1       -2.380   0.302  -0.811  0.00  0.00    +0.310 C 
ENDROOT
BRANCH   1   2
ATOM      2  C   LIG    1       -1.439  -0.580   0.013  0.00  0.00    +0.000 C 
ATOM      3  C   LIG    1       -1.817  -0.536   1.508  0.00  0.00    +0.270 C 
ATOM      4  N   LIG    1       -0.564  -0.508   2.275  0.00  0.00    -0.610 N 
ATOM      5  C   LIG    1        0.569  -0.559   1.333  0.00  0.00    +0.230 C 
ATOM      6  C   LIG    1       -0.466  -0.446   3.618  0.00  0.00    +0.550 C 
ATOM      7  O   LIG    1       -1.469  -0.407   4.298  0.00  0.00    -0.500 OA
ATOM      8  C   LIG    1        0.002  -0.004   0.002  0.00  0.00    +0.190 C 
BRANCH   6   9
ATOM      9  C   LIG    1        0.891  -0.424   4.274  0.00  0.00    -0.020 C 
ATOM     10  C   LIG    1        1.302  -1.654   5.086  0.00  0.00    +0.140 C 
ATOM     11  C   LIG    1        0.935  -0.353   5.802  0.00  0.00    +0.020 C 
ATOM     12 CL   LIG    1       -0.639  -0.301   6.679  0.00  0.00    -0.050 Cl
ATOM     13 CL   LIG    1        2.275   0.591   6.553  0.00  0.00    -0.080 Cl
ENDBRANCH   6   9
BRANCH   8  14
ATOM     14  O   LIG    1       -0.017   1.425   0.010  0.00  0.00    -0.550 OA
ATOM     15  H   LIG    1        0.861   1.830   0.004  0.00  0.00    +0.390 HD
ENDBRANCH   8  14
ENDBRANCH   1   2
BRANCH   1  17
ATOM     16  C   LIG    1       -4.698   0.273  -1.560  0.00  0.00    +0.560 C 
ATOM     17  N   LIG    1       -3.701  -0.328  -0.881  0.00  0.00    -0.720 N 
ATOM     18  H   LIG    1       -3.858  -1.177  -0.440  0.00  0.00    +0.400 HD
ATOM     19  O   LIG    1       -4.502   1.337  -2.113  0.00  0.00    -0.520 OA
BRANCH  16  23
ATOM     20  C   LIG    1       -7.751  -3.489  -0.384  0.00  0.00    +0.150 C 
ATOM     21  C   LIG    1       -7.503  -2.169  -1.069  0.00  0.00    +0.170 A 
ATOM     22  C   LIG    1       -6.276  -1.603  -0.999  0.00  0.00    -0.070 A 
ATOM     23  C   LIG    1       -6.037  -0.364  -1.632  0.00  0.00    -0.030 A 
ATOM     24  C   LIG    1       -7.068   0.243  -2.325  0.00  0.00    -0.010 A 
ATOM     25  C   LIG    1       -8.326  -0.392  -2.373  0.00  0.00    +0.520 A 
ATOM     26  O   LIG    1       -9.248   0.128  -2.980  0.00  0.00    -0.540 OA
ATOM     27  N   LIG    1       -8.511  -1.570  -1.750  0.00  0.00    -0.600 N 
ATOM     28  H   LIG    1       -9.381  -1.999  -1.789  0.00  0.00    +0.420 HD
ENDBRANCH  16  23
ENDBRANCH   1  17
TORSDOF 5
