REMARK  Name = ZINCrH000004nzz5.0
REMARK                            x       y       z     vdW  Elec       q    Type
REMARK                         _______ _______ _______ _____ _____    ______ ____
ROOT
ATOM      1  N   LIG    1       -0.698   1.558   1.213  0.00  0.00    -0.740 N 
ATOM      2  H   LIG    1       -1.495   2.106   1.135  0.00  0.00    +0.400 HD
ATOM      3  C   LIG    1       -0.222   1.232   2.431  0.00  0.00    +0.710 C 
ATOM      4  N   LIG    1       -0.853   1.667   3.540  0.00  0.00    -0.730 N 
ATOM      5  H   LIG    1       -1.650   2.214   3.462  0.00  0.00    +0.400 HD
ATOM      6  O   LIG    1        0.777   0.546   2.530  0.00  0.00    -0.580 OA
ENDROOT
BRANCH   1   7
ATOM      7  C   LIG    1       -0.013   1.086   0.008  0.00  0.00    +0.290 C 
BRANCH   7   8
ATOM      8  C   LIG    1       -0.753   1.593  -1.232  0.00  0.00    +0.080 C 
BRANCH   8  14
ATOM      9  C   LIG    1       -0.325  -0.155  -2.979  0.00  0.00    +0.130 A 
ATOM     10  C   LIG    1        0.322  -0.597  -4.124  0.00  0.00    -0.080 A 
ATOM     11  C   LIG    1        1.249   0.215  -4.749  0.00  0.00    +0.050 A 
ATOM     12  C   LIG    1        1.528   1.469  -4.238  0.00  0.00    -0.030 A 
ATOM     13  C   LIG    1        0.880   1.914  -3.100  0.00  0.00    +0.050 A 
ATOM     14  C   LIG    1       -0.047   1.107  -2.471  0.00  0.00    -0.120 A 
BRANCH   9  16
ATOM     15  C   LIG    1       -1.468  -2.239  -2.936  0.00  0.00    +0.250 C 
ATOM     16  O   LIG    1       -1.233  -0.953  -2.358  0.00  0.00    -0.310 OA
ENDBRANCH   9  16
ENDBRANCH   8  14
ENDBRANCH   7   8
ENDBRANCH   1   7
BRANCH   4  17
ATOM     17  C   LIG    1       -0.335   1.313   4.864  0.00  0.00    +0.370 C 
BRANCH  17  18
ATOM     18  C   LIG    1       -0.776   2.346   5.869  0.00  0.00    +0.120 A 
ATOM     19  C   LIG    1        0.168   3.138   6.493  0.00  0.00    -0.010 A 
ATOM     20  C   LIG    1       -0.248   4.085   7.416  0.00  0.00    +0.070 A 
ATOM     21  C   LIG    1       -1.605   4.200   7.678  0.00  0.00    -0.030 A 
ATOM     22  C   LIG    1       -2.491   3.372   7.014  0.00  0.00    +0.260 A 
ATOM     23  N   LIG    1       -2.059   2.486   6.138  0.00  0.00    -0.470 NA
ENDBRANCH  17  18
BRANCH  17  24
ATOM     24  C   LIG    1       -0.866  -0.039   5.266  0.00  0.00    -0.090 A 
ATOM     25  C   LIG    1       -2.179  -0.375   4.992  0.00  0.00    +0.040 A 
ATOM     26  C   LIG    1       -2.665  -1.616   5.357  0.00  0.00    -0.010 A 
ATOM     27  C   LIG    1       -1.842  -2.518   6.005  0.00  0.00    +0.000 A 
ATOM     28  C   LIG    1       -0.531  -2.180   6.284  0.00  0.00    +0.000 A 
ATOM     29  C   LIG    1       -0.043  -0.940   5.915  0.00  0.00    +0.020 A 
ENDBRANCH  17  24
ENDBRANCH   4  17
TORSDOF 7
