REMARK  Name = ZINCpk00000xQ0gv.0
REMARK                            x       y       z     vdW  Elec       q    Type
REMARK                         _______ _______ _______ _____ _____    ______ ____
ROOT
ATOM      1  C   LIG    1       -8.366   0.544  -1.148  0.00  0.00    +0.480 A 
ATOM      2  C   LIG    1       -8.667   1.878  -0.866  0.00  0.00    -0.210 A 
ATOM      3  C   LIG    1       -7.633   2.731  -0.532  0.00  0.00    +0.380 A 
ATOM      4  N   LIG    1       -6.395   2.261  -0.488  0.00  0.00    -0.600 NA
ATOM      5  C   LIG    1       -6.138   0.990  -0.760  0.00  0.00    +0.600 A 
ATOM      6  N   LIG    1       -7.100   0.142  -1.090  0.00  0.00    -0.630 NA
ENDROOT
BRANCH   1   7
ATOM      7  N   LIG    1       -9.371  -0.347  -1.488  0.00  0.00    -0.700 N 
ATOM      8  H   LIG    1       -9.154  -1.272  -1.682  0.00  0.00    +0.410 HD
BRANCH   7  14
ATOM      9  C   LIG    1      -11.554  -0.802  -2.496  0.00  0.00    +0.150 C 
ATOM     10  O   LIG    1      -12.923  -0.391  -2.515  0.00  0.00    -0.360 OA
ATOM     11  C   LIG    1      -13.572  -0.469  -1.244  0.00  0.00    +0.210 C 
ATOM     12  C   LIG    1      -12.861   0.455  -0.252  0.00  0.00    +0.010 C 
ATOM     13  C   LIG    1      -11.387   0.051  -0.157  0.00  0.00    +0.000 C 
ATOM     14  C   LIG    1      -10.762   0.109  -1.554  0.00  0.00    +0.220 C 
BRANCH   9  16
ATOM     15  C   LIG    1      -11.765  -1.614  -4.850  0.00  0.00    +0.030 C 
ATOM     16  C   LIG    1      -10.973  -0.704  -3.908  0.00  0.00    -0.010 C 
ATOM     17  C   LIG    1      -11.066   0.742  -4.399  0.00  0.00    +0.020 C 
ENDBRANCH   9  16
ENDBRANCH   7  14
ENDBRANCH   1   7
BRANCH   5  18
ATOM     18  N   LIG    1       -4.831   0.539  -0.703  0.00  0.00    -0.700 N 
ATOM     19  H   LIG    1       -4.630  -0.389  -0.900  0.00  0.00    +0.410 HD
BRANCH  18  20
ATOM     20  C   LIG    1       -3.752   1.463  -0.346  0.00  0.00    +0.280 C 
BRANCH  20  21
ATOM     21  C   LIG    1       -2.417   0.716  -0.356  0.00  0.00    +0.020 C 
BRANCH  21  22
ATOM     22  C   LIG    1       -1.290   1.681   0.017  0.00  0.00    +0.280 C 
BRANCH  22  23
ATOM     23  N   LIG    1       -0.011   0.966   0.007  0.00  0.00    -1.120 NA
ATOM     24  H   LIG    1        0.002  -0.004   0.002  0.00  0.00    +0.420 HD
BRANCH  23  25
ATOM     25  S   LIG    1        1.412   1.813  -0.002  0.00  0.00    +2.620 S 
ATOM     26  O   LIG    1        1.260   2.742  -1.067  0.00  0.00    -0.950 OA
ATOM     27  O   LIG    1        2.417   0.810  -0.042  0.00  0.00    -0.960 OA
ATOM     28  C   LIG    1        1.436   2.674   1.595  0.00  0.00    -0.280 C 
ENDBRANCH  23  25
ENDBRANCH  22  23
ENDBRANCH  21  22
ENDBRANCH  20  21
ENDBRANCH  18  20
ENDBRANCH   5  18
TORSDOF 9
