REMARK  Name = ZINCrD00000725dt.0
REMARK                            x       y       z     vdW  Elec       q    Type
REMARK                         _______ _______ _______ _____ _____    ______ ____
ROOT
ATOM      1  C   LIG    1        8.486   3.176  -0.021  0.00  0.00    +0.480 C 
ATOM      2  O   LIG    1        8.375   1.972  -0.022  0.00  0.00    -0.500 OA
ENDROOT
BRANCH   1   3
ATOM      3  C   LIG    1        7.255   4.045   0.002  0.00  0.00    +0.130 C 
BRANCH   3   4
ATOM      4  C   LIG    1        6.006   3.162   0.020  0.00  0.00    +0.210 C 
BRANCH   4   5
ATOM      5  O   LIG    1        4.839   3.986   0.042  0.00  0.00    -0.310 OA
BRANCH   5   9
ATOM      6  C   LIG    1        1.187   2.064   0.100  0.00  0.00    +0.100 A 
ATOM      7  C   LIG    1        2.360   1.324   0.083  0.00  0.00    -0.040 A 
ATOM      8  C   LIG    1        3.582   1.967   0.059  0.00  0.00    -0.040 A 
ATOM      9  C   LIG    1        3.636   3.353   0.061  0.00  0.00    +0.090 A 
ATOM     10  C   LIG    1        2.463   4.093   0.082  0.00  0.00    +0.030 A 
ATOM     11  C   LIG    1        1.241   3.450   0.102  0.00  0.00    +0.030 A 
BRANCH   6  12
ATOM     12  O   LIG    1       -0.017   1.430   0.119  0.00  0.00    -0.320 OA
BRANCH  12  14
ATOM     13  C   LIG    1       -1.433  -0.527   0.139  0.00  0.00    +0.070 C 
ATOM     14  C   LIG    1        0.002   0.002   0.115  0.00  0.00    +0.170 C 
ENDBRANCH  12  14
ENDBRANCH   6  12
ENDBRANCH   5   9
ENDBRANCH   4   5
ENDBRANCH   3   4
ENDBRANCH   1   3
BRANCH   1  15
ATOM     15  O   LIG    1        9.704   3.738  -0.040  0.00  0.00    -0.330 OA
BRANCH  15  16
ATOM     16  C   LIG    1       10.845   2.839  -0.062  0.00  0.00    +0.270 C 
BRANCH  16  17
ATOM     17  C   LIG    1       12.118   3.644  -0.081  0.00  0.00    +0.520 C 
ATOM     18  N   LIG    1       13.311   3.017  -0.103  0.00  0.00    -0.670 N 
ATOM     19  H   LIG    1       13.352   2.050  -0.041  0.00  0.00    +0.420 HD
ATOM     20  O   LIG    1       12.070   4.856  -0.077  0.00  0.00    -0.490 OA
BRANCH  18  21
ATOM     21  C   LIG    1       14.493   3.763  -0.215  0.00  0.00    +0.100 A 
ATOM     22  C   LIG    1       14.585   5.011   0.382  0.00  0.00    +0.100 A 
ATOM     23  C   LIG    1       15.753   5.743   0.275  0.00  0.00    +0.010 A 
ATOM     24  C   LIG    1       16.827   5.236  -0.437  0.00  0.00    +0.120 A 
ATOM     25  C   LIG    1       16.736   3.992  -1.039  0.00  0.00    -0.010 A 
ATOM     26  F   LIG    1       17.965   5.956  -0.544  0.00  0.00    -0.130 F 
ATOM     27  C   LIG    1       15.572   3.254  -0.930  0.00  0.00    +0.110 A 
ATOM     28  F   LIG    1       15.483   2.041  -1.517  0.00  0.00    -0.130 F 
ENDBRANCH  18  21
ENDBRANCH  16  17
ENDBRANCH  15  16
ENDBRANCH   1  15
TORSDOF 10
