REMARK  Name = ZINCrg000000nPWu.0
REMARK                            x       y       z     vdW  Elec       q    Type
REMARK                         _______ _______ _______ _____ _____    ______ ____
ROOT
ATOM      1  C   LIG    1       -0.723  -0.247   3.136  0.00  0.00    -0.740 A 
ATOM      2  C   LIG    1       -0.800   0.081   4.477  0.00  0.00    +0.220 A 
ATOM      3  C   LIG    1       -0.336  -0.800   5.434  0.00  0.00    -0.060 A 
ATOM      4  C   LIG    1        0.209  -2.018   5.048  0.00  0.00    +0.320 A 
ATOM      5  C   LIG    1        0.286  -2.345   3.700  0.00  0.00    -0.140 A 
ATOM      6  C   LIG    1       -0.185  -1.462   2.749  0.00  0.00    +0.250 A 
ENDROOT
BRANCH   1   7
ATOM      7  S   LIG    1       -1.316   0.880   1.919  0.00  0.00    +2.700 S 
ATOM      8  O   LIG    1       -1.621   0.104   0.768  0.00  0.00    -0.950 OA
ATOM      9  O   LIG    1       -2.267   1.710   2.571  0.00  0.00    -0.950 OA
BRANCH   7  10
ATOM     10  N   LIG    1       -0.049   1.860   1.500  0.00  0.00    -1.000 NA
BRANCH  10  12
ATOM     11  C   LIG    1        0.369   2.149  -0.893  0.00  0.00    +0.020 C 
ATOM     12  C   LIG    1        0.840   1.478   0.399  0.00  0.00    +0.280 C 
ENDBRANCH  10  12
BRANCH  10  13
ATOM     13  C   LIG    1        0.184   3.109   2.229  0.00  0.00    +0.280 C 
ATOM     14  C   LIG    1       -0.483   4.267   1.484  0.00  0.00    +0.020 C 
ENDBRANCH  10  13
ENDBRANCH   7  10
ENDBRANCH   1   7
BRANCH   5  15
ATOM     15  N   LIG    1        0.866  -3.642   3.284  0.00  0.00    +0.030 N 
ATOM     16  O   LIG    1        0.384  -4.251   2.346  0.00  0.00    -0.150 OA
ATOM     17  O   LIG    1        1.825  -4.099   3.880  0.00  0.00    -0.160 OA
ENDBRANCH   5  15
BRANCH   4  18
ATOM     18  N   LIG    1        0.680  -2.911   6.013  0.00  0.00    -0.700 N 
ATOM     19  H   LIG    1        0.981  -3.795   5.749  0.00  0.00    +0.420 HD
BRANCH  18  20
ATOM     20  C   LIG    1        0.718  -2.514   7.422  0.00  0.00    +0.280 C 
BRANCH  20  21
ATOM     21  C   LIG    1        1.271  -3.667   8.262  0.00  0.00    +0.130 C 
ATOM     22  C   LIG    1        1.445  -3.208   9.714  0.00  0.00    +0.200 C 
ATOM     23  N   LIG    1        2.865  -3.334  10.085  0.00  0.00    -0.510 NA
ATOM     24  C   LIG    1        3.694  -2.483   9.214  0.00  0.00    +0.170 C 
ATOM     25  C   LIG    1        3.520  -2.942   7.763  0.00  0.00    +0.180 C 
ATOM     26  C   LIG    1        3.294  -4.739   9.976  0.00  0.00    +0.170 C 
ATOM     27  C   LIG    1        3.120  -5.198   8.525  0.00  0.00    +0.180 C 
ATOM     28  N   LIG    1        2.583  -4.078   7.734  0.00  0.00    -0.510 NA
ENDBRANCH  20  21
ENDBRANCH  18  20
ENDBRANCH   4  18
TORSDOF 8
