REMARK  Name = ZINCpk00000xIaFM.0
REMARK                            x       y       z     vdW  Elec       q    Type
REMARK                         _______ _______ _______ _____ _____    ______ ____
ROOT
ATOM      1  N   LIG    1        2.812   3.055  -2.240  0.00  0.00    -0.480 N 
ATOM      2  H   LIG    1        2.409   3.888  -1.837  0.00  0.00    +0.430 HD
ATOM      3  H   LIG    1        2.145   2.300  -2.190  0.00  0.00    +0.420 HD
ENDROOT
BRANCH   1   4
ATOM      4  C   LIG    1        3.158   3.310  -3.645  0.00  0.00    +0.150 C 
ATOM      5  C   LIG    1        1.881   3.568  -4.450  0.00  0.00    +0.050 C 
ATOM      6  C   LIG    1        2.095   3.242  -5.917  0.00  0.00    +0.050 C 
ATOM      7  C   LIG    1        3.075   4.167  -6.614  0.00  0.00    +0.020 C 
ATOM      8  C   LIG    1        4.490   3.977  -6.065  0.00  0.00    +0.280 C 
ATOM      9  N   LIG    1        4.656   4.837  -4.882  0.00  0.00    -0.540 N 
ATOM     10  C   LIG    1        4.040   4.538  -3.737  0.00  0.00    +0.510 C 
ATOM     11  O   LIG    1        4.187   5.250  -2.767  0.00  0.00    -0.550 OA
BRANCH   9  12
ATOM     12  C   LIG    1        5.502   6.030  -4.962  0.00  0.00    +0.210 C 
BRANCH  12  13
ATOM     13  C   LIG    1        6.916   5.669  -4.586  0.00  0.00    +0.490 C 
ATOM     14  O   LIG    1        7.785   6.524  -4.589  0.00  0.00    -0.680 OA
ATOM     15  O   LIG    1        7.191   4.521  -4.280  0.00  0.00    -0.690 OA
ENDBRANCH  12  13
ENDBRANCH   9  12
ENDBRANCH   1   4
BRANCH   1  20
ATOM     16  C   LIG    1        4.349  -0.809  -0.326  0.00  0.00    +0.210 C 
ATOM     17  N   LIG    1        3.733   0.506  -0.549  0.00  0.00    -0.510 NA
ATOM     18  C   LIG    1        3.992   1.416   0.596  0.00  0.00    +0.200 C 
ATOM     19  C   LIG    1        3.787   2.834   0.021  0.00  0.00    +0.070 C 
ATOM     20  C   LIG    1        4.024   2.688  -1.497  0.00  0.00    +0.190 C 
ATOM     21  C   LIG    1        4.352   1.194  -1.710  0.00  0.00    +0.190 C 
BRANCH  21  22
ATOM     22  C   LIG    1        3.745   0.702  -2.998  0.00  0.00    -0.110 A 
ATOM     23  C   LIG    1        2.400   0.388  -3.053  0.00  0.00    +0.010 A 
ATOM     24  C   LIG    1        1.843  -0.064  -4.235  0.00  0.00    +0.020 A 
ATOM     25  C   LIG    1        2.632  -0.203  -5.362  0.00  0.00    +0.030 A 
ATOM     26  C   LIG    1        3.978   0.109  -5.306  0.00  0.00    +0.030 A 
ATOM     27  C   LIG    1        4.534   0.561  -4.125  0.00  0.00    +0.030 A 
ENDBRANCH  21  22
ENDBRANCH   1  20
TORSDOF 5
