REMARK  Name = ZINCrH000004qCXd.0
REMARK                            x       y       z     vdW  Elec       q    Type
REMARK                         _______ _______ _______ _____ _____    ______ ____
ROOT
ATOM      1  N   LIG    1        2.146   3.475  -0.929  0.00  0.00    -0.740 N 
ATOM      2  H   LIG    1        1.220   3.749  -1.018  0.00  0.00    +0.400 HD
ATOM      3  C   LIG    1        2.444   2.269  -0.405  0.00  0.00    +0.730 C 
ATOM      4  N   LIG    1        1.456   1.446  -0.004  0.00  0.00    -0.660 N 
ATOM      5  C   LIG    1       -0.019   1.530   0.011  0.00  0.00    +0.270 C 
ATOM      6  C   LIG    1        0.002  -0.004   0.002  0.00  0.00    -0.080 C 
ATOM      7  C   LIG    1       -0.034  -0.611  -1.399  0.00  0.00    +0.030 C 
ATOM      8  C   LIG    1       -1.472  -0.559  -1.926  0.00  0.00    +0.210 C 
ATOM      9  O   LIG    1       -2.340  -1.209  -0.995  0.00  0.00    -0.380 OA
ATOM     10  C   LIG    1       -2.402  -0.584   0.289  0.00  0.00    +0.210 C 
ATOM     11  C   LIG    1       -1.018  -0.637   0.946  0.00  0.00    +0.020 C 
ATOM     12  C   LIG    1        1.413   0.097   0.596  0.00  0.00    +0.310 C 
ATOM     13  O   LIG    1        3.605   1.925  -0.293  0.00  0.00    -0.570 OA
ENDROOT
BRANCH  12  14
ATOM     14  C   LIG    1        2.398  -0.870  -0.010  0.00  0.00    -0.090 A 
ATOM     15  C   LIG    1        2.982  -0.587  -1.231  0.00  0.00    +0.050 A 
ATOM     16  C   LIG    1        3.889  -1.471  -1.785  0.00  0.00    +0.000 A 
ATOM     17  C   LIG    1        4.204  -2.643  -1.122  0.00  0.00    +0.010 A 
ATOM     18  C   LIG    1        3.617  -2.928   0.096  0.00  0.00    +0.000 A 
ATOM     19  C   LIG    1        2.713  -2.042   0.652  0.00  0.00    +0.010 A 
ENDBRANCH  12  14
BRANCH   1  20
ATOM     20  C   LIG    1        3.221   4.370  -1.364  0.00  0.00    +0.340 C 
BRANCH  20  24
ATOM     21  C   LIG    1        1.567   9.059  -0.716  0.00  0.00    +0.130 C 
ATOM     22  C   LIG    1        1.835   7.876  -1.611  0.00  0.00    +0.130 A 
ATOM     23  C   LIG    1        2.382   6.725  -1.076  0.00  0.00    -0.020 A 
ATOM     24  C   LIG    1        2.624   5.643  -1.908  0.00  0.00    -0.060 A 
ATOM     25  C   LIG    1        2.311   5.761  -3.254  0.00  0.00    -0.020 A 
ATOM     26  C   LIG    1        1.760   6.942  -3.715  0.00  0.00    +0.130 A 
ATOM     27  C   LIG    1        1.409   7.080  -5.175  0.00  0.00    +0.130 C 
ATOM     28  N   LIG    1        1.544   7.951  -2.895  0.00  0.00    -0.480 NA
ENDBRANCH  20  24
ENDBRANCH   1  20
TORSDOF 3
