REMARK  Name = ZINCvU00000007ea.0
REMARK                            x       y       z     vdW  Elec       q    Type
REMARK                         _______ _______ _______ _____ _____    ______ ____
ROOT
ATOM      1  N   LIG    1       -1.152   1.835  -0.171  0.00  0.00    -0.560 N 
ATOM      2  C   LIG    1       -0.015   1.117  -0.245  0.00  0.00    +0.550 C 
ATOM      3  O   LIG    1       -0.045  -0.085  -0.084  0.00  0.00    -0.510 OA
ENDROOT
BRANCH   1   9
ATOM      4  C   LIG    1       -2.480   5.552  -3.103  0.00  0.00    +0.090 C 
ATOM      5  C   LIG    1       -1.771   5.033  -1.879  0.00  0.00    -0.070 A 
ATOM      6  C   LIG    1       -1.104   5.909  -1.043  0.00  0.00    +0.020 A 
ATOM      7  C   LIG    1       -0.453   5.436   0.082  0.00  0.00    +0.030 A 
ATOM      8  C   LIG    1       -0.471   4.087   0.376  0.00  0.00    +0.000 A 
ATOM      9  C   LIG    1       -1.136   3.204  -0.464  0.00  0.00    +0.130 A 
ATOM     10  C   LIG    1       -1.789   3.681  -1.592  0.00  0.00    +0.010 A 
ENDBRANCH   1   9
BRANCH   2  11
ATOM     11  C   LIG    1        1.294   1.806  -0.535  0.00  0.00    +0.110 C 
BRANCH  11  12
ATOM     12  S   LIG    1        2.606   0.568  -0.688  0.00  0.00    +0.090 S 
BRANCH  12  13
ATOM     13  C   LIG    1        3.982   1.620  -1.015  0.00  0.00    +0.150 A 
ATOM     14  N   LIG    1        3.960   2.929  -1.104  0.00  0.00    -0.290 NA
ATOM     15  N   LIG    1        5.141   3.371  -1.352  0.00  0.00    -0.280 NA
ATOM     16  C   LIG    1        5.982   2.380  -1.436  0.00  0.00    +0.400 A 
ATOM     17  N   LIG    1        5.276   1.227  -1.220  0.00  0.00    -0.420 N 
BRANCH  17  18
ATOM     18  C   LIG    1        5.775  -0.085  -1.212  0.00  0.00    +0.060 A 
ATOM     19  C   LIG    1        6.680  -0.478  -0.237  0.00  0.00    +0.070 A 
ATOM     20  C   LIG    1        7.170  -1.771  -0.232  0.00  0.00    +0.030 A 
ATOM     21  C   LIG    1        6.759  -2.672  -1.196  0.00  0.00    +0.080 A 
ATOM     22  C   LIG    1        5.857  -2.285  -2.169  0.00  0.00    +0.010 A 
ATOM     23  C   LIG    1        5.359  -0.995  -2.177  0.00  0.00    +0.120 A 
ATOM     24  F   LIG    1        4.473  -0.617  -3.125  0.00  0.00    -0.120 F 
ENDBRANCH  17  18
ENDBRANCH  12  13
ENDBRANCH  11  12
ENDBRANCH   2  11
BRANCH   1  25
ATOM     25  C   LIG    1       -2.406   1.184   0.216  0.00  0.00    +0.350 C 
BRANCH  25  26
ATOM     26  C   LIG    1       -2.565   1.250   1.713  0.00  0.00    -0.110 A 
ATOM     27  C   LIG    1       -2.067   0.233   2.506  0.00  0.00    +0.030 A 
ATOM     28  C   LIG    1       -2.208   0.295   3.880  0.00  0.00    +0.000 A 
ATOM     29  C   LIG    1       -2.856   1.370   4.460  0.00  0.00    +0.010 A 
ATOM     30  C   LIG    1       -3.358   2.384   3.667  0.00  0.00    +0.000 A 
ATOM     31  C   LIG    1       -3.213   2.324   2.293  0.00  0.00    +0.020 A 
ENDBRANCH  25  26
ENDBRANCH   1  25
TORSDOF 7
