REMARK  Name = ZINCvU000000075d.0
REMARK                            x       y       z     vdW  Elec       q    Type
REMARK                         _______ _______ _______ _____ _____    ______ ____
ROOT
ATOM      1  C   LIG    1       -2.027   5.397   3.683  0.00  0.00    +0.270 C 
ATOM      2  C   LIG    1       -0.840   5.547   4.655  0.00  0.00    +0.090 C 
ATOM      3  C   LIG    1       -0.731   7.039   4.870  0.00  0.00    +0.150 C 
ATOM      4  N   LIG    1       -1.641   7.641   4.186  0.00  0.00    -0.240 NA
ATOM      5  N   LIG    1       -2.460   6.785   3.452  0.00  0.00    -0.460 N 
ATOM      6  C   LIG    1       -3.481   7.165   2.659  0.00  0.00    +0.600 C 
ATOM      7  O   LIG    1       -4.073   6.339   1.991  0.00  0.00    -0.490 OA
ENDROOT
BRANCH   3   8
ATOM      8  C   LIG    1        0.265   7.704   5.731  0.00  0.00    -0.050 A 
ATOM      9  C   LIG    1        1.204   6.945   6.433  0.00  0.00    +0.050 A 
ATOM     10  C   LIG    1        2.136   7.574   7.232  0.00  0.00    +0.010 A 
ATOM     11  C   LIG    1        2.135   8.953   7.348  0.00  0.00    -0.060 A 
ATOM     12  C   LIG    1        1.204   9.711   6.660  0.00  0.00    +0.010 A 
ATOM     13  C   LIG    1        3.152   9.633   8.228  0.00  0.00    +0.100 C 
ATOM     14  C   LIG    1        0.270   9.096   5.853  0.00  0.00    +0.060 A 
ENDBRANCH   3   8
BRANCH   6  15
ATOM     15  C   LIG    1       -3.882   8.585   2.601  0.00  0.00    -0.180 A 
ATOM     16  C   LIG    1       -3.295   9.515   3.462  0.00  0.00    +0.130 A 
ATOM     17  C   LIG    1       -3.673  10.840   3.403  0.00  0.00    -0.010 A 
ATOM     18  C   LIG    1       -4.633  11.251   2.494  0.00  0.00    +0.080 A 
ATOM     19  C   LIG    1       -5.220  10.337   1.638  0.00  0.00    -0.030 A 
ATOM     20  C   LIG    1       -4.847   9.007   1.681  0.00  0.00    +0.160 A 
ATOM     21  F   LIG    1       -5.417   8.116   0.840  0.00  0.00    -0.120 F 
ENDBRANCH   6  15
BRANCH   1  26
ATOM     22  C   LIG    1       -1.098   2.792   1.099  0.00  0.00    +0.110 A 
ATOM     23  C   LIG    1       -0.756   3.591   0.020  0.00  0.00    -0.050 A 
ATOM     24  C   LIG    1       -0.827   4.968   0.129  0.00  0.00    +0.050 A 
ATOM     25  C   LIG    1       -1.238   5.550   1.313  0.00  0.00    +0.000 A 
ATOM     26  C   LIG    1       -1.580   4.759   2.394  0.00  0.00    -0.070 A 
ATOM     27  C   LIG    1       -1.518   3.379   2.289  0.00  0.00    +0.080 A 
BRANCH  22  29
ATOM     28  C   LIG    1       -0.596   0.906  -0.260  0.00  0.00    +0.240 C 
ATOM     29  O   LIG    1       -1.030   1.438   0.993  0.00  0.00    -0.310 OA
ENDBRANCH  22  29
BRANCH  27  30
ATOM     30  O   LIG    1       -1.860   2.599   3.350  0.00  0.00    -0.320 OA
ATOM     31  C   LIG    1       -0.818   2.256   4.266  0.00  0.00    +0.220 C 
ENDBRANCH  27  30
ENDBRANCH   1  26
TORSDOF 5
