REMARK  Name = ZINCpk00000e9CLi.1
REMARK                            x       y       z     vdW  Elec       q    Type
REMARK                         _______ _______ _______ _____ _____    ______ ____
ROOT
ATOM      1  N   LIG    1       -4.522   0.733   1.267  0.00  0.00    -0.530 NA
ATOM      2  C   LIG    1       -5.344   1.106   0.108  0.00  0.00    +0.170 C 
ATOM      3  C   LIG    1       -4.605   0.744  -1.181  0.00  0.00    +0.040 C 
ATOM      4  C   LIG    1       -3.266   1.486  -1.222  0.00  0.00    +0.000 C 
ATOM      5  C   LIG    1       -2.449   1.117   0.020  0.00  0.00    +0.250 C 
ATOM      6  C   LIG    1       -3.251   1.468   1.275  0.00  0.00    +0.170 C 
ENDROOT
BRANCH   5   7
ATOM      7  N   LIG    1       -1.191   1.867   0.018  0.00  0.00    -0.610 N 
ATOM      8  C   LIG    1       -0.014   1.209   0.009  0.00  0.00    +0.520 C 
ATOM      9  O   LIG    1        0.002  -0.004   0.002  0.00  0.00    -0.530 OA
ATOM     10  C   LIG    1       -1.210   3.331   0.026  0.00  0.00    +0.270 C 
BRANCH   8  11
ATOM     11  C   LIG    1        1.280   1.980   0.001  0.00  0.00    +0.060 C 
BRANCH  11  12
ATOM     12  C   LIG    1        2.457   1.002  -0.016  0.00  0.00    +0.150 C 
BRANCH  12  13
ATOM     13  C   LIG    1        3.751   1.773  -0.024  0.00  0.00    -0.030 A 
ATOM     14  C   LIG    1        4.386   2.265  -1.105  0.00  0.00    +0.150 A 
ATOM     15  N   LIG    1        5.498   2.886  -0.687  0.00  0.00    -0.490 NA
ATOM     16  C   LIG    1        5.582   2.789   0.612  0.00  0.00    +0.390 A 
ATOM     17  N   LIG    1        4.512   2.102   1.065  0.00  0.00    -0.570 N 
ATOM     18  H   LIG    1        4.318   1.883   1.990  0.00  0.00    +0.420 HD
ENDBRANCH  12  13
ENDBRANCH  11  12
ENDBRANCH   8  11
ENDBRANCH   5   7
BRANCH   1  19
ATOM     19  C   LIG    1       -5.258   0.939   2.522  0.00  0.00    +0.330 C 
BRANCH  19  22
ATOM     20  C   LIG    1       -7.632  -1.713   2.943  0.00  0.00    +0.180 A 
ATOM     21  N   LIG    1       -6.414  -1.253   3.102  0.00  0.00    -0.470 NA
ATOM     22  C   LIG    1       -6.425  -0.013   2.582  0.00  0.00    +0.180 A 
ATOM     23  N   LIG    1       -7.627   0.217   2.147  0.00  0.00    -0.380 NA
ATOM     24  O   LIG    1       -8.335  -0.749   2.340  0.00  0.00    +0.080 OA
BRANCH  20  26
ATOM     25  C   LIG    1       -8.685  -2.990   4.790  0.00  0.00    +0.050 C 
ATOM     26  C   LIG    1       -8.142  -3.068   3.361  0.00  0.00    +0.180 C 
ENDBRANCH  20  26
ENDBRANCH  19  22
ENDBRANCH   1  19
TORSDOF 7
