REMARK  Name = ZINCpk00000e9CLi.0
REMARK                            x       y       z     vdW  Elec       q    Type
REMARK                         _______ _______ _______ _____ _____    ______ ____
ROOT
ATOM      1  N   LIG    1        1.359   2.036   0.000  0.00  0.00    -0.530 NA
ATOM      2  C   LIG    1        2.093   1.605   1.197  0.00  0.00    +0.160 C 
ATOM      3  C   LIG    1        2.177   0.078   1.224  0.00  0.00    +0.040 C 
ATOM      4  C   LIG    1        0.761  -0.506   1.233  0.00  0.00    +0.000 C 
ATOM      5  C   LIG    1        0.002  -0.004   0.002  0.00  0.00    +0.250 C 
ATOM      6  C   LIG    1       -0.019   1.526   0.010  0.00  0.00    +0.170 C 
ENDROOT
BRANCH   5   7
ATOM      7  N   LIG    1       -1.372  -0.512   0.034  0.00  0.00    -0.610 N 
ATOM      8  C   LIG    1       -1.827  -1.288  -0.970  0.00  0.00    +0.520 C 
ATOM      9  O   LIG    1       -1.099  -1.565  -1.900  0.00  0.00    -0.540 OA
ATOM     10  C   LIG    1       -2.251  -0.177   1.156  0.00  0.00    +0.280 C 
BRANCH   8  11
ATOM     11  C   LIG    1       -3.240  -1.810  -0.938  0.00  0.00    +0.060 C 
BRANCH  11  12
ATOM     12  C   LIG    1       -3.499  -2.657  -2.185  0.00  0.00    +0.140 C 
BRANCH  12  13
ATOM     13  C   LIG    1       -4.912  -3.180  -2.153  0.00  0.00    +0.000 A 
ATOM     14  C   LIG    1       -5.840  -3.013  -3.114  0.00  0.00    +0.130 A 
ATOM     15  N   LIG    1       -6.975  -3.646  -2.684  0.00  0.00    -0.570 N 
ATOM     16  H   LIG    1       -7.817  -3.704  -3.161  0.00  0.00    +0.420 HD
ATOM     17  C   LIG    1       -6.703  -4.171  -1.470  0.00  0.00    +0.400 A 
ATOM     18  N   LIG    1       -5.468  -3.888  -1.159  0.00  0.00    -0.490 NA
ENDBRANCH  12  13
ENDBRANCH  11  12
ENDBRANCH   8  11
ENDBRANCH   5   7
BRANCH   1  19
ATOM     19  C   LIG    1        1.378   3.499  -0.132  0.00  0.00    +0.320 C 
BRANCH  19  22
ATOM     20  C   LIG    1        4.777   4.632  -0.180  0.00  0.00    +0.180 A 
ATOM     21  N   LIG    1        3.731   4.176  -0.826  0.00  0.00    -0.470 NA
ATOM     22  C   LIG    1        2.776   4.006   0.106  0.00  0.00    +0.180 A 
ATOM     23  N   LIG    1        3.280   4.365   1.249  0.00  0.00    -0.380 NA
ATOM     24  O   LIG    1        4.430   4.723   1.107  0.00  0.00    +0.080 OA
BRANCH  20  26
ATOM     25  C   LIG    1        6.114   6.457  -1.196  0.00  0.00    +0.050 C 
ATOM     26  C   LIG    1        6.116   4.985  -0.776  0.00  0.00    +0.180 C 
ENDBRANCH  20  26
ENDBRANCH  19  22
ENDBRANCH   1  19
TORSDOF 7
