REMARK  Name = ZINCqH0000004gvc.0
REMARK                            x       y       z     vdW  Elec       q    Type
REMARK                         _______ _______ _______ _____ _____    ______ ____
ROOT
ATOM      1  C   LIG    1        4.268   9.791  -1.682  0.00  0.00    +0.520 C 
ATOM      2  N   LIG    1        3.298   8.941  -1.294  0.00  0.00    -0.730 N 
ATOM      3  H   LIG    1        3.001   8.238  -1.893  0.00  0.00    +0.400 HD
ATOM      4  O   LIG    1        4.577  10.724  -0.971  0.00  0.00    -0.520 OA
ENDROOT
BRANCH   1   5
ATOM      5  C   LIG    1        4.970   9.584  -3.000  0.00  0.00    +0.040 C 
BRANCH   5   6
ATOM      6  C   LIG    1        6.083  10.589  -3.140  0.00  0.00    -0.070 A 
ATOM      7  C   LIG    1        5.844  11.926  -2.882  0.00  0.00    +0.050 A 
ATOM      8  C   LIG    1        6.867  12.848  -3.007  0.00  0.00    -0.010 A 
ATOM      9  C   LIG    1        8.127  12.434  -3.397  0.00  0.00    +0.000 A 
ATOM     10  C   LIG    1        8.365  11.097  -3.659  0.00  0.00    -0.010 A 
ATOM     11  C   LIG    1        7.343  10.175  -3.531  0.00  0.00    +0.010 A 
ENDBRANCH   5   6
BRANCH   5  12
ATOM     12  C   LIG    1        3.971   9.767  -4.144  0.00  0.00    +0.000 C 
ATOM     13  C   LIG    1        3.369  11.171  -4.075  0.00  0.00    +0.030 C 
BRANCH  12  15
ATOM     14  C   LIG    1        5.167   8.137  -5.611  0.00  0.00    +0.000 C 
ATOM     15  C   LIG    1        4.689   9.584  -5.482  0.00  0.00    +0.020 C 
ENDBRANCH  12  15
ENDBRANCH   5  12
ENDBRANCH   1   5
BRANCH   2  16
ATOM     16  C   LIG    1        2.692   9.076   0.033  0.00  0.00    +0.330 C 
BRANCH  16  17
ATOM     17  C   LIG    1        1.643   8.011   0.218  0.00  0.00    -0.180 A 
ATOM     18  C   LIG    1        1.982   6.779   0.757  0.00  0.00    +0.120 A 
ATOM     19  C   LIG    1        0.987   5.828   0.910  0.00  0.00    -0.020 A 
ATOM     20  C   LIG    1       -0.310   6.139   0.521  0.00  0.00    +0.380 A 
ATOM     21  N   LIG    1       -0.593   7.325   0.006  0.00  0.00    -0.510 NA
ATOM     22  C   LIG    1        0.332   8.252  -0.147  0.00  0.00    +0.330 A 
BRANCH  20  23
ATOM     23  N   LIG    1       -1.324   5.188   0.670  0.00  0.00    -0.330 N 
ATOM     24  C   LIG    1       -2.631   5.352   0.334  0.00  0.00    +0.260 A 
ATOM     25  C   LIG    1       -3.276   4.201   0.629  0.00  0.00    -0.100 A 
ATOM     26  C   LIG    1       -2.343   3.308   1.169  0.00  0.00    +0.270 A 
ATOM     27  N   LIG    1       -1.175   3.896   1.191  0.00  0.00    -0.290 NA
ENDBRANCH  20  23
ENDBRANCH  16  17
ENDBRANCH   2  16
TORSDOF 7
