REMARK  Name = ZINCrD000000CFwu.0
REMARK                            x       y       z     vdW  Elec       q    Type
REMARK                         _______ _______ _______ _____ _____    ______ ____
ROOT
ATOM      1  O   LIG    1       -1.038   2.967   0.894  0.00  0.00    -0.520 OA
ATOM      2  C   LIG    1       -1.187   2.136   0.019  0.00  0.00    +0.570 C 
ATOM      3  N   LIG    1       -0.188   1.887  -0.851  0.00  0.00    -0.610 N 
ATOM      4  C   LIG    1       -0.318   0.824  -1.856  0.00  0.00    +0.270 C 
ATOM      5  C   LIG    1       -0.046   1.418  -3.241  0.00  0.00    +0.030 C 
ATOM      6  C   LIG    1        1.318   2.113  -3.235  0.00  0.00    +0.040 C 
ATOM      7  C   LIG    1        1.306   3.253  -2.214  0.00  0.00    +0.080 C 
ATOM      8  C   LIG    1        1.049   2.679  -0.817  0.00  0.00    +0.320 C 
ENDROOT
BRANCH   7   9
ATOM      9  C   LIG    1        2.638   3.957  -2.231  0.00  0.00    +0.150 A 
ATOM     10  N   LIG    1        3.802   3.417  -1.974  0.00  0.00    -0.240 NA
ATOM     11  N   LIG    1        4.735   4.298  -2.078  0.00  0.00    -0.290 NA
ATOM     12  C   LIG    1        4.206   5.464  -2.411  0.00  0.00    +0.190 A 
ATOM     13  C   LIG    1        4.750   6.740  -2.653  0.00  0.00    +0.080 A 
ATOM     14  C   LIG    1        3.920   7.760  -3.002  0.00  0.00    +0.060 A 
ATOM     15  C   LIG    1        2.538   7.531  -3.103  0.00  0.00    +0.030 A 
ATOM     16  C   LIG    1        2.030   6.303  -2.865  0.00  0.00    +0.230 A 
ATOM     17  N   LIG    1        2.851   5.269  -2.522  0.00  0.00    -0.390 N 
ENDBRANCH   7   9
BRANCH   2  18
ATOM     18  C   LIG    1       -2.461   1.400  -0.090  0.00  0.00    -0.150 A 
ATOM     19  C   LIG    1       -2.466   0.003  -0.098  0.00  0.00    +0.080 A 
ATOM     20  C   LIG    1       -3.660  -0.679  -0.200  0.00  0.00    -0.010 A 
ATOM     21  C   LIG    1       -4.855   0.015  -0.295  0.00  0.00    +0.080 A 
ATOM     22  C   LIG    1       -4.864   1.396  -0.288  0.00  0.00    -0.050 A 
ATOM     23  C   LIG    1       -3.673   2.098  -0.180  0.00  0.00    +0.150 A 
BRANCH  23  24
ATOM     24  O   LIG    1       -3.680   3.454  -0.168  0.00  0.00    -0.310 OA
BRANCH  24  25
ATOM     25  C   LIG    1       -4.953   4.097  -0.264  0.00  0.00    +0.590 C 
ATOM     26  F   LIG    1       -5.755   3.707   0.814  0.00  0.00    -0.190 F 
ATOM     27  F   LIG    1       -5.572   3.728  -1.463  0.00  0.00    -0.200 F 
ENDBRANCH  24  25
ENDBRANCH  23  24
ENDBRANCH   2  18
TORSDOF 4
