REMARK  Name = ZINCvU0000000G2O.0
REMARK                            x       y       z     vdW  Elec       q    Type
REMARK                         _______ _______ _______ _____ _____    ______ ____
ROOT
ATOM      1  C   LIG    1       -1.126   8.283   1.437  0.00  0.00    +0.160 A 
ATOM      2  N   LIG    1        0.179   8.134   1.478  0.00  0.00    -0.280 NA
ATOM      3  N   LIG    1        0.477   6.918   1.768  0.00  0.00    -0.260 NA
ATOM      4  C   LIG    1       -0.620   6.211   1.922  0.00  0.00    +0.230 A 
ATOM      5  N   LIG    1       -1.682   7.065   1.718  0.00  0.00    -0.410 N 
ENDROOT
BRANCH   4   6
ATOM      6  C   LIG    1       -0.699   4.774   2.256  0.00  0.00    -0.010 A 
ATOM      7  C   LIG    1        0.429   3.962   2.130  0.00  0.00    +0.090 A 
ATOM      8  C   LIG    1        0.348   2.621   2.443  0.00  0.00    +0.030 A 
ATOM      9  C   LIG    1       -0.848   2.080   2.882  0.00  0.00    -0.020 A 
ATOM     10  C   LIG    1       -1.972   2.880   3.005  0.00  0.00    +0.030 A 
ATOM     11 CL   LIG    1       -0.942   0.392   3.274  0.00  0.00    -0.060 Cl
ATOM     12  C   LIG    1       -1.903   4.223   2.700  0.00  0.00    +0.050 A 
ENDBRANCH   4   6
BRANCH   5  13
ATOM     13  C   LIG    1       -3.046   6.751   1.786  0.00  0.00    +0.090 A 
ATOM     14  C   LIG    1       -3.727   6.863   2.990  0.00  0.00    +0.030 A 
ATOM     15  C   LIG    1       -5.073   6.557   3.052  0.00  0.00    +0.030 A 
ATOM     16  C   LIG    1       -5.739   6.131   1.919  0.00  0.00    +0.050 A 
ATOM     17  C   LIG    1       -5.063   6.014   0.718  0.00  0.00    +0.030 A 
ATOM     18  C   LIG    1       -3.718   6.323   0.649  0.00  0.00    -0.040 A 
BRANCH  18  19
ATOM     19  C   LIG    1       -2.982   6.194  -0.660  0.00  0.00    +0.010 C 
ATOM     20  C   LIG    1       -3.625   7.113  -1.700  0.00  0.00    +0.040 C 
ATOM     21  C   LIG    1       -3.054   4.745  -1.145  0.00  0.00    +0.040 C 
ENDBRANCH  18  19
ENDBRANCH   5  13
BRANCH   1  22
ATOM     22  S   LIG    1       -1.997   9.774   1.087  0.00  0.00    +0.070 S 
BRANCH  22  23
ATOM     23  C   LIG    1       -0.603  10.900   0.832  0.00  0.00    +0.090 C 
BRANCH  23  24
ATOM     24  C   LIG    1       -1.122  12.278   0.509  0.00  0.00    +0.450 C 
ATOM     25  O   LIG    1       -2.318  12.479   0.458  0.00  0.00    -0.490 OA
BRANCH  24  28
ATOM     26  C   LIG    1        0.253  15.744  -0.243  0.00  0.00    +0.150 C 
ATOM     27  C   LIG    1       -0.685  14.568  -0.155  0.00  0.00    +0.350 C 
ATOM     28  C   LIG    1       -0.215  13.337   0.267  0.00  0.00    -0.320 C 
BRANCH  27  29
ATOM     29  N   LIG    1       -1.984  14.715  -0.489  0.00  0.00    -0.780 N 
ATOM     30  H   LIG    1       -2.329  15.591  -0.720  0.00  0.00    +0.410 HD
ATOM     31  H   LIG    1       -2.573  13.944  -0.497  0.00  0.00    +0.430 HD
ENDBRANCH  27  29
BRANCH  28  32
ATOM     32  C   LIG    1        1.190  13.135   0.458  0.00  0.00    +0.270 C 
ATOM     33  N   LIG    1        2.304  12.975   0.610  0.00  0.00    -0.430 NA
ENDBRANCH  28  32
ENDBRANCH  24  28
ENDBRANCH  23  24
ENDBRANCH  22  23
ENDBRANCH   1  22
TORSDOF 9
