REMARK  Name = ZINCrH000004mZfq.0
REMARK                            x       y       z     vdW  Elec       q    Type
REMARK                         _______ _______ _______ _____ _____    ______ ____
ROOT
ATOM      1  N   LIG    1       -2.434   4.060   0.239  0.00  0.00    -0.730 N 
ATOM      2  H   LIG    1       -3.266   3.561   0.240  0.00  0.00    +0.400 HD
ATOM      3  C   LIG    1       -1.259   3.410   0.128  0.00  0.00    +0.710 C 
ATOM      4  N   LIG    1       -1.240   2.067   0.019  0.00  0.00    -0.680 N 
ATOM      5  H   LIG    1       -2.072   1.574  -0.058  0.00  0.00    +0.410 HD
ATOM      6  O   LIG    1       -0.216   4.035   0.127  0.00  0.00    -0.560 OA
ENDROOT
BRANCH   4   7
ATOM      7  C   LIG    1       -0.017   1.382   0.016  0.00  0.00    +0.150 A 
ATOM      8  C   LIG    1        1.051   1.864   0.761  0.00  0.00    +0.050 A 
ATOM      9  C   LIG    1        2.258   1.192   0.751  0.00  0.00    +0.030 A 
ATOM     10  C   LIG    1        2.409   0.035   0.000  0.00  0.00    +0.070 A 
ATOM     11  O   LIG    1        3.615  -0.598   0.010  0.00  0.00    -0.310 OA
ATOM     12  C   LIG    1        3.642  -1.937  -0.496  0.00  0.00    +0.210 C 
ATOM     13  C   LIG    1        2.844  -1.962  -1.806  0.00  0.00    +0.220 C 
ATOM     14  N   LIG    1        1.448  -1.620  -1.510  0.00  0.00    -0.490 N 
ATOM     15  C   LIG    1        0.758  -2.741  -0.858  0.00  0.00    +0.210 C 
ATOM     16  C   LIG    1        1.342  -0.454  -0.745  0.00  0.00    +0.050 A 
ATOM     17  C   LIG    1        0.128   0.225  -0.735  0.00  0.00    +0.020 A 
ENDBRANCH   4   7
BRANCH   1  18
ATOM     18  C   LIG    1       -2.456   5.520   0.357  0.00  0.00    +0.340 C 
BRANCH  18  22
ATOM     19  C   LIG    1       -6.039   6.736   2.343  0.00  0.00    +0.130 A 
ATOM     20  C   LIG    1       -4.838   7.368   2.629  0.00  0.00    -0.020 A 
ATOM     21  C   LIG    1       -3.681   6.973   1.986  0.00  0.00    +0.070 A 
ATOM     22  C   LIG    1       -3.719   5.949   1.058  0.00  0.00    -0.130 A 
ATOM     23  C   LIG    1       -4.917   5.321   0.767  0.00  0.00    +0.050 A 
ATOM     24  C   LIG    1       -6.075   5.708   1.412  0.00  0.00    -0.080 A 
BRANCH  19  26
ATOM     25  C   LIG    1       -8.379   6.427   2.631  0.00  0.00    +0.250 C 
ATOM     26  O   LIG    1       -7.179   7.122   2.975  0.00  0.00    -0.320 OA
ENDBRANCH  19  26
ENDBRANCH  18  22
BRANCH  18  27
ATOM     27  C   LIG    1       -2.409   6.146  -1.038  0.00  0.00    -0.060 C 
ATOM     28  C   LIG    1       -2.555   5.208  -2.238  0.00  0.00    +0.010 C 
ATOM     29  C   LIG    1       -1.195   5.829  -1.913  0.00  0.00    +0.030 C 
ENDBRANCH  18  27
ENDBRANCH   1  18
TORSDOF 5
