REMARK  Name = ZINCnE000001TrKd.0
REMARK                            x       y       z     vdW  Elec       q    Type
REMARK                         _______ _______ _______ _____ _____    ______ ____
ROOT
ATOM      1  O   LIG    1        1.027   1.964   0.006  0.00  0.00    -0.510 OA
ATOM      2  C   LIG    1       -0.015   1.343   0.017  0.00  0.00    +0.520 C 
ATOM      3  N   LIG    1        0.002  -0.004   0.002  0.00  0.00    -0.670 N 
ATOM      4  H   LIG    1       -0.828  -0.501   0.075  0.00  0.00    +0.420 HD
ENDROOT
BRANCH   3   5
ATOM      5  C   LIG    1        1.219  -0.688  -0.119  0.00  0.00    +0.160 A 
ATOM      6  C   LIG    1        2.368  -0.171   0.463  0.00  0.00    +0.040 A 
ATOM      7  C   LIG    1        3.566  -0.850   0.347  0.00  0.00    +0.050 A 
ATOM      8  C   LIG    1        3.627  -2.038  -0.357  0.00  0.00    +0.020 A 
ATOM      9  C   LIG    1        2.487  -2.556  -0.946  0.00  0.00    -0.030 A 
ATOM     10 CL   LIG    1        2.568  -4.048  -1.829  0.00  0.00    -0.050 Cl
ATOM     11  C   LIG    1        1.280  -1.884  -0.829  0.00  0.00    +0.060 A 
BRANCH  11  12
ATOM     12  O   LIG    1        0.159  -2.392  -1.407  0.00  0.00    -0.310 OA
BRANCH  12  13
ATOM     13  C   LIG    1       -0.120  -1.989  -2.749  0.00  0.00    +0.190 C 
BRANCH  13  14
ATOM     14  C   LIG    1       -1.411  -2.657  -3.225  0.00  0.00    +0.400 C 
ATOM     15  F   LIG    1       -2.469  -2.273  -2.393  0.00  0.00    -0.200 F 
ATOM     16  F   LIG    1       -1.261  -4.047  -3.178  0.00  0.00    -0.200 F 
ENDBRANCH  13  14
ENDBRANCH  12  13
ENDBRANCH  11  12
ENDBRANCH   3   5
BRANCH   2  17
ATOM     17  C   LIG    1       -1.330   2.080   0.039  0.00  0.00    -0.010 C 
ATOM     18  C   LIG    1       -2.106   1.733   1.322  0.00  0.00    +0.010 C 
ATOM     19  C   LIG    1       -2.304   3.057   2.089  0.00  0.00    +0.040 C 
ATOM     20  C   LIG    1       -2.200   4.149   0.995  0.00  0.00    -0.090 C 
ATOM     21  C   LIG    1       -1.083   3.602   0.070  0.00  0.00    +0.060 C 
BRANCH  20  22
ATOM     22  C   LIG    1       -1.796   5.470   1.596  0.00  0.00    +0.500 C 
ATOM     23  O   LIG    1       -1.638   6.444   0.879  0.00  0.00    -0.700 OA
ATOM     24  O   LIG    1       -1.627   5.566   2.800  0.00  0.00    -0.700 OA
ENDBRANCH  20  22
ENDBRANCH   2  17
TORSDOF 6
