REMARK  Name = ZINCtV00000L6jjc.0
REMARK                            x       y       z     vdW  Elec       q    Type
REMARK                         _______ _______ _______ _____ _____    ______ ____
ROOT
ATOM      1  C   LIG    1       -5.116  -0.052   1.371  0.00  0.00    +0.440 A 
ATOM      2  C   LIG    1       -4.687   0.210   2.655  0.00  0.00    -0.070 A 
ATOM      3  C   LIG    1       -3.429   0.780   2.849  0.00  0.00    +0.220 A 
ATOM      4  N   LIG    1       -2.662   1.065   1.818  0.00  0.00    -0.470 NA
ATOM      5  C   LIG    1       -3.062   0.812   0.567  0.00  0.00    +0.300 A 
ATOM      6  C   LIG    1       -2.458   1.020  -0.679  0.00  0.00    -0.210 A 
ATOM      7  C   LIG    1       -3.354   0.568  -1.655  0.00  0.00    +0.140 A 
ATOM      8  N   LIG    1       -4.433   0.120  -1.063  0.00  0.00    -0.300 NA
ATOM      9  C   LIG    1       -3.116   0.593  -3.143  0.00  0.00    +0.170 C 
ATOM     10  C   LIG    1       -2.945   1.071   4.246  0.00  0.00    +0.160 C 
ATOM     11  N   LIG    1       -4.291   0.258   0.322  0.00  0.00    -0.320 N 
ENDROOT
BRANCH   6  12
ATOM     12  C   LIG    1       -1.117   1.603  -0.919  0.00  0.00    +0.020 A 
ATOM     13  C   LIG    1       -0.973   2.980  -1.087  0.00  0.00    +0.040 A 
ATOM     14  C   LIG    1        0.278   3.517  -1.316  0.00  0.00    +0.010 A 
ATOM     15  C   LIG    1        1.388   2.693  -1.374  0.00  0.00    +0.020 A 
ATOM     16  C   LIG    1        1.253   1.327  -1.203  0.00  0.00    +0.020 A 
ATOM     17  C   LIG    1        0.007   0.778  -0.973  0.00  0.00    -0.020 A 
ATOM     18 CL   LIG    1       -0.162  -0.937  -0.759  0.00  0.00    -0.070 Cl
ENDBRANCH   6  12
BRANCH   1  19
ATOM     19  N   LIG    1       -6.355  -0.615   1.147  0.00  0.00    -0.680 N 
ATOM     20  H   LIG    1       -6.575  -1.475   1.537  0.00  0.00    +0.420 HD
BRANCH  19  24
ATOM     21  C   LIG    1       -9.153   1.379  -1.207  0.00  0.00    -0.110 A 
ATOM     22  C   LIG    1       -9.404   0.087  -0.782  0.00  0.00    +0.050 A 
ATOM     23  C   LIG    1       -8.478  -0.577  -0.002  0.00  0.00    -0.030 A 
ATOM     24  C   LIG    1       -7.294   0.054   0.356  0.00  0.00    +0.190 A 
ATOM     25  C   LIG    1       -7.047   1.354  -0.068  0.00  0.00    -0.040 A 
ATOM     26  C   LIG    1       -7.975   2.010  -0.852  0.00  0.00    +0.040 A 
BRANCH  21  27
ATOM     27  C   LIG    1      -10.166   2.100  -2.058  0.00  0.00    +0.060 C 
BRANCH  27  28
ATOM     28  C   LIG    1      -11.143   2.858  -1.157  0.00  0.00    +0.010 C 
BRANCH  28  30
ATOM     29  C   LIG    1      -13.148   4.349  -1.119  0.00  0.00    +0.000 C 
ATOM     30  C   LIG    1      -12.171   3.591  -2.021  0.00  0.00    -0.010 C 
ENDBRANCH  28  30
ENDBRANCH  27  28
ENDBRANCH  21  27
ENDBRANCH  19  24
ENDBRANCH   1  19
TORSDOF 6
