REMARK  Name = ZINCqH00000h1i8Y.0
REMARK                            x       y       z     vdW  Elec       q    Type
REMARK                         _______ _______ _______ _____ _____    ______ ____
ROOT
ATOM      1  C   LIG    1        0.130   5.315   1.463  0.00  0.00    +0.050 C 
ATOM      2  C   LIG    1       -0.454   3.901   1.455  0.00  0.00    +0.160 C 
ATOM      3  C   LIG    1       -0.925   3.546   0.039  0.00  0.00    +0.070 C 
ATOM      4  C   LIG    1       -1.307   2.064   0.027  0.00  0.00    +0.040 C 
ATOM      5  C   LIG    1       -2.178   1.756   1.219  0.00  0.00    -0.130 A 
ATOM      6  C   LIG    1       -2.890   0.567   1.218  0.00  0.00    +0.030 A 
ATOM      7  C   LIG    1       -3.699   0.234   2.286  0.00  0.00    -0.030 A 
ATOM      8  C   LIG    1       -3.801   1.091   3.367  0.00  0.00    +0.030 A 
ATOM      9  C   LIG    1       -3.099   2.274   3.374  0.00  0.00    -0.030 A 
ATOM     10  C   LIG    1       -2.281   2.618   2.296  0.00  0.00    +0.150 A 
ATOM     11  N   LIG    1       -1.601   3.834   2.362  0.00  0.00    -0.480 N 
ENDROOT
BRANCH   4  12
ATOM     12  C   LIG    1       -0.057   1.224   0.089  0.00  0.00    +0.530 C 
ATOM     13  O   LIG    1        1.031   1.757   0.134  0.00  0.00    -0.530 OA
ATOM     14  N   LIG    1       -0.149  -0.121   0.089  0.00  0.00    -0.850 N 
ATOM     15  H   LIG    1       -1.019  -0.548   0.053  0.00  0.00    +0.400 HD
ATOM     16  H   LIG    1        0.655  -0.662   0.125  0.00  0.00    +0.400 HD
ENDBRANCH   4  12
BRANCH  11  17
ATOM     17  C   LIG    1       -1.201   4.139   3.742  0.00  0.00    +0.300 C 
BRANCH  17  18
ATOM     18  C   LIG    1       -0.342   3.022   4.274  0.00  0.00    -0.070 A 
ATOM     19  C   LIG    1       -0.893   2.044   5.043  0.00  0.00    +0.030 A 
ATOM     20  C   LIG    1       -0.115   1.000   5.546  0.00  0.00    +0.110 A 
ATOM     21  C   LIG    1        1.220   0.933   5.281  0.00  0.00    +0.010 A 
ATOM     22  C   LIG    1        1.821   1.926   4.491  0.00  0.00    -0.080 A 
ATOM     23  C   LIG    1        3.196   1.893   4.193  0.00  0.00    +0.080 A 
ATOM     24  C   LIG    1        3.712   2.892   3.418  0.00  0.00    -0.020 A 
ATOM     25  C   LIG    1        2.881   3.906   2.946  0.00  0.00    +0.300 A 
ATOM     26  N   LIG    1        1.600   3.933   3.225  0.00  0.00    -0.460 NA
ATOM     27  F   LIG    1       -0.693   0.044   6.307  0.00  0.00    -0.130 F 
ATOM     28  C   LIG    1        1.031   2.983   3.974  0.00  0.00    +0.130 A 
ENDBRANCH  17  18
ENDBRANCH  11  17
TORSDOF 3
