REMARK  Name = ZINCvU0000000FW6.0
REMARK                            x       y       z     vdW  Elec       q    Type
REMARK                         _______ _______ _______ _____ _____    ______ ____
ROOT
ATOM      1  C   LIG    1       -3.228  -7.337  -1.068  0.00  0.00    +0.140 C 
ATOM      2  C   LIG    1       -1.817  -7.622  -0.622  0.00  0.00    +0.230 C 
ATOM      3  C   LIG    1       -0.914  -6.620  -0.598  0.00  0.00    -0.300 C 
ATOM      4  C   LIG    1        0.492  -6.948  -0.138  0.00  0.00    +0.340 C 
ATOM      5  N   LIG    1        0.760  -8.345   0.242  0.00  0.00    -0.710 N 
ATOM      6  H   LIG    1        1.641  -8.617   0.545  0.00  0.00    +0.430 HD
ATOM      7  C   LIG    1       -0.246  -9.238   0.160  0.00  0.00    +0.710 C 
ATOM      8  O   LIG    1       -0.035 -10.393   0.472  0.00  0.00    -0.550 OA
ATOM      9  N   LIG    1       -1.472  -8.892  -0.254  0.00  0.00    -0.510 N 
ENDROOT
BRANCH   4  10
ATOM     10  C   LIG    1        1.442  -6.578  -1.247  0.00  0.00    -0.100 A 
ATOM     11  C   LIG    1        1.410  -7.270  -2.445  0.00  0.00    -0.010 A 
ATOM     12  C   LIG    1        2.279  -6.925  -3.466  0.00  0.00    +0.030 A 
ATOM     13  C   LIG    1        3.186  -5.898  -3.284  0.00  0.00    +0.070 A 
ATOM     14  C   LIG    1        3.222  -5.211  -2.086  0.00  0.00    +0.040 A 
ATOM     15 CL   LIG    1        0.276  -8.564  -2.671  0.00  0.00    -0.050 Cl
ATOM     16  C   LIG    1        2.350  -5.551  -1.067  0.00  0.00    -0.010 A 
ATOM     17 CL   LIG    1        2.395  -4.686   0.439  0.00  0.00    -0.040 Cl
ENDBRANCH   4  10
BRANCH   3  18
ATOM     18  C   LIG    1       -1.270  -5.304  -0.984  0.00  0.00    +0.610 C 
ATOM     19  N   LIG    1       -1.289  -4.967  -2.289  0.00  0.00    -0.670 N 
ATOM     20  H   LIG    1       -1.070  -5.628  -2.964  0.00  0.00    +0.420 HD
ATOM     21  O   LIG    1       -1.558  -4.478  -0.137  0.00  0.00    -0.490 OA
BRANCH  19  22
ATOM     22  C   LIG    1       -1.624  -3.663  -2.669  0.00  0.00    +0.210 A 
ATOM     23  C   LIG    1       -1.085  -3.115  -3.825  0.00  0.00    +0.000 A 
ATOM     24  C   LIG    1       -1.419  -1.828  -4.198  0.00  0.00    +0.130 A 
ATOM     25  C   LIG    1       -2.289  -1.085  -3.422  0.00  0.00    -0.070 A 
ATOM     26  C   LIG    1       -2.823  -1.626  -2.267  0.00  0.00    +0.130 A 
ATOM     27  C   LIG    1       -2.498  -2.914  -1.891  0.00  0.00    +0.040 A 
BRANCH  25  28
ATOM     28  N   LIG    1       -2.644   0.294  -3.824  0.00  0.00    +0.030 N 
ATOM     29  O   LIG    1       -3.414   0.948  -3.143  0.00  0.00    -0.160 OA
ATOM     30  O   LIG    1       -2.170   0.774  -4.838  0.00  0.00    -0.160 OA
ENDBRANCH  25  28
ENDBRANCH  19  22
ENDBRANCH   3  18
BRANCH   9  31
ATOM     31  C   LIG    1       -2.502  -9.932  -0.310  0.00  0.00    +0.190 C 
ATOM     32  C   LIG    1       -2.148 -11.239  -1.022  0.00  0.00    +0.070 C 
ATOM     33  C   LIG    1       -3.113 -10.249  -1.676  0.00  0.00    +0.030 C 
ENDBRANCH   9  31
TORSDOF 5
