REMARK  Name = ZINCtV00000L6kBT.0
REMARK                            x       y       z     vdW  Elec       q    Type
REMARK                         _______ _______ _______ _____ _____    ______ ____
ROOT
ATOM      1  C   LIG    1        0.177  -0.476  -0.157  0.00  0.00    +0.250 C 
ENDROOT
BRANCH   1   4
ATOM      2  N   LIG    1        1.286   1.714  -0.464  0.00  0.00    -0.670 N 
ATOM      3  H   LIG    1        2.134   1.275  -0.298  0.00  0.00    +0.410 HD
ATOM      4  C   LIG    1        0.137   1.013  -0.384  0.00  0.00    +0.490 C 
ATOM      5  O   LIG    1       -0.929   1.580  -0.501  0.00  0.00    -0.490 OA
BRANCH   2  11
ATOM      6  C   LIG    1        2.326   3.894  -0.455  0.00  0.00    -0.110 A 
ATOM      7  C   LIG    1        2.294   5.236  -0.779  0.00  0.00    +0.030 A 
ATOM      8  C   LIG    1        1.190   5.768  -1.421  0.00  0.00    -0.020 A 
ATOM      9  C   LIG    1        0.118   4.957  -1.746  0.00  0.00    +0.020 A 
ATOM     10  C   LIG    1        0.147   3.612  -1.430  0.00  0.00    +0.020 A 
ATOM     11  C   LIG    1        1.254   3.076  -0.785  0.00  0.00    +0.150 A 
BRANCH   6  12
ATOM     12  C   LIG    1        3.526   3.317   0.250  0.00  0.00    +0.020 C 
ATOM     13  C   LIG    1        4.784   3.589  -0.578  0.00  0.00    +0.030 C 
BRANCH  12  15
ATOM     14  C   LIG    1        4.813   3.297   2.392  0.00  0.00    +0.010 C 
ATOM     15  C   LIG    1        3.671   3.969   1.627  0.00  0.00    +0.010 C 
ENDBRANCH  12  15
ENDBRANCH   6  12
ENDBRANCH   2  11
ENDBRANCH   1   4
BRANCH   1  16
ATOM     16  C   LIG    1        0.941  -1.146  -1.301  0.00  0.00    -0.010 C 
ATOM     17  C   LIG    1        0.246  -0.836  -2.629  0.00  0.00    +0.030 C 
ATOM     18  C   LIG    1        0.967  -2.660  -1.080  0.00  0.00    +0.040 C 
ENDBRANCH   1  16
BRANCH   1  19
ATOM     19  N   LIG    1       -1.190  -1.000  -0.110  0.00  0.00    -0.710 N 
ATOM     20  H   LIG    1       -1.604  -1.347  -0.916  0.00  0.00    +0.410 HD
BRANCH  19  21
ATOM     21  C   LIG    1       -1.897  -1.000   1.095  0.00  0.00    +0.270 A 
ATOM     22  C   LIG    1       -1.351  -0.401   2.222  0.00  0.00    -0.060 A 
ATOM     23  C   LIG    1       -2.053  -0.402   3.412  0.00  0.00    +0.130 A 
ATOM     24  C   LIG    1       -3.299  -0.997   3.482  0.00  0.00    -0.230 A 
ATOM     25  C   LIG    1       -3.846  -1.595   2.361  0.00  0.00    +0.140 A 
ATOM     26  C   LIG    1       -3.152  -1.593   1.167  0.00  0.00    -0.110 A 
ATOM     27 CL   LIG    1       -3.843  -2.337  -0.242  0.00  0.00    -0.060 Cl
BRANCH  24  28
ATOM     28  C   LIG    1       -4.061  -0.996   4.782  0.00  0.00    +0.520 C 
ATOM     29  F   LIG    1       -3.159  -0.999   5.851  0.00  0.00    -0.180 F 
ATOM     30  F   LIG    1       -4.869  -2.135   4.850  0.00  0.00    -0.180 F 
ATOM     31  F   LIG    1       -4.863   0.149   4.850  0.00  0.00    -0.180 F 
ENDBRANCH  24  28
ENDBRANCH  19  21
ENDBRANCH   1  19
TORSDOF 8
