REMARK  Name = ZINCrg000000sYje.0
REMARK                            x       y       z     vdW  Elec       q    Type
REMARK                         _______ _______ _______ _____ _____    ______ ____
ROOT
ATOM      1  N   LIG    1       -4.532   2.794  -7.176  0.00  0.00    -0.670 N 
ATOM      2  H   LIG    1       -5.132   3.541  -7.023  0.00  0.00    +0.410 HD
ATOM      3  C   LIG    1       -3.547   2.530  -6.295  0.00  0.00    +0.560 C 
ATOM      4  O   LIG    1       -2.856   1.539  -6.435  0.00  0.00    -0.500 OA
ENDROOT
BRANCH   1   8
ATOM      5  C   LIG    1       -5.002   0.405 -10.555  0.00  0.00    -0.160 A 
ATOM      6  C   LIG    1       -6.120   0.970  -9.935  0.00  0.00    +0.100 A 
ATOM      7  C   LIG    1       -5.962   1.759  -8.818  0.00  0.00    -0.010 A 
ATOM      8  C   LIG    1       -4.690   1.995  -8.306  0.00  0.00    +0.170 A 
ATOM      9  C   LIG    1       -3.574   1.439  -8.924  0.00  0.00    +0.010 A 
ATOM     10  C   LIG    1       -3.726   0.644 -10.038  0.00  0.00    +0.070 A 
BRANCH   5  14
ATOM     11  N   LIG    1       -4.089  -0.984 -12.349  0.00  0.00    -0.850 N 
ATOM     12  H   LIG    1       -4.198  -1.540 -13.136  0.00  0.00    +0.410 HD
ATOM     13  H   LIG    1       -3.203  -0.819 -11.991  0.00  0.00    +0.400 HD
ATOM     14  C   LIG    1       -5.169  -0.441 -11.753  0.00  0.00    +0.570 C 
ATOM     15  O   LIG    1       -6.279  -0.647 -12.201  0.00  0.00    -0.540 OA
ENDBRANCH   5  14
ENDBRANCH   1   8
BRANCH   3  16
ATOM     16  C   LIG    1       -3.306   3.444  -5.159  0.00  0.00    -0.160 A 
ATOM     17  C   LIG    1       -4.097   4.582  -4.996  0.00  0.00    +0.110 A 
ATOM     18  C   LIG    1       -3.866   5.432  -3.933  0.00  0.00    +0.010 A 
ATOM     19  C   LIG    1       -2.854   5.158  -3.032  0.00  0.00    +0.160 A 
ATOM     20  C   LIG    1       -2.066   4.031  -3.188  0.00  0.00    -0.690 A 
ATOM     21  C   LIG    1       -2.282   3.177  -4.249  0.00  0.00    +0.200 A 
BRANCH  20  22
ATOM     22  S   LIG    1       -0.778   3.692  -2.034  0.00  0.00    +2.690 S 
ATOM     23  O   LIG    1        0.159   2.865  -2.710  0.00  0.00    -0.940 OA
ATOM     24  O   LIG    1       -0.432   4.936  -1.441  0.00  0.00    -0.950 OA
BRANCH  22  25
ATOM     25  N   LIG    1       -1.434   2.766  -0.827  0.00  0.00    -1.000 NA
ATOM     26  C   LIG    1       -1.435   1.297  -0.916  0.00  0.00    +0.270 C 
ATOM     27  C   LIG    1       -0.865   0.733   0.391  0.00  0.00    +0.220 C 
ATOM     28  O   LIG    1       -1.568   1.303   1.497  0.00  0.00    -0.380 OA
ATOM     29  C   LIG    1       -1.432   2.722   1.609  0.00  0.00    +0.220 C 
ATOM     30  C   LIG    1       -2.032   3.387   0.365  0.00  0.00    +0.270 C 
ENDBRANCH  22  25
ENDBRANCH  20  22
ENDBRANCH   3  16
TORSDOF 5
