REMARK  Name = ZINCpe00000MJKfm.0
REMARK                            x       y       z     vdW  Elec       q    Type
REMARK                         _______ _______ _______ _____ _____    ______ ____
ROOT
ATOM      1  N   LIG    1        5.660  -3.855  -0.475  0.00  0.00    -0.540 N 
ATOM      2  C   LIG    1        5.068  -2.677  -0.753  0.00  0.00    +0.660 A 
ATOM      3  N   LIG    1        5.205  -1.890   0.335  0.00  0.00    -0.450 N 
ATOM      4  N   LIG    1        5.910  -2.626   1.296  0.00  0.00    -0.240 NA
ATOM      5  O   LIG    1        4.511  -2.377  -1.794  0.00  0.00    -0.550 OA
ATOM      6  C   LIG    1        6.168  -3.793   0.800  0.00  0.00    +0.290 A 
ENDROOT
BRANCH   6   7
ATOM      7  C   LIG    1        6.910  -4.901   1.503  0.00  0.00    +0.250 C 
ATOM      8  O   LIG    1        8.255  -5.012   0.989  0.00  0.00    -0.360 OA
ATOM      9  C   LIG    1        8.998  -5.706   2.014  0.00  0.00    +0.210 C 
ATOM     10  C   LIG    1        8.492  -5.105   3.344  0.00  0.00    +0.010 C 
ATOM     11  C   LIG    1        7.087  -4.563   3.001  0.00  0.00    -0.020 C 
ATOM     12  C   LIG    1        7.027  -3.050   3.220  0.00  0.00    +0.070 C 
ENDBRANCH   6   7
BRANCH   1  14
ATOM     13  C   LIG    1        7.025  -4.903  -2.213  0.00  0.00    +0.040 C 
ATOM     14  C   LIG    1        5.747  -5.006  -1.377  0.00  0.00    +0.320 C 
ENDBRANCH   1  14
BRANCH   3  15
ATOM     15  C   LIG    1        4.713  -0.518   0.481  0.00  0.00    +0.410 C 
BRANCH  15  16
ATOM     16  C   LIG    1        3.315  -0.543   1.044  0.00  0.00    +0.500 C 
ATOM     17  N   LIG    1        2.657   0.612   1.266  0.00  0.00    -0.650 N 
ATOM     18  H   LIG    1        3.083   1.460   1.062  0.00  0.00    +0.410 HD
ATOM     19  O   LIG    1        2.782  -1.603   1.298  0.00  0.00    -0.480 OA
BRANCH  17  20
ATOM     20  C   LIG    1        1.363   0.589   1.787  0.00  0.00    +0.310 A 
ATOM     21  C   LIG    1        0.649  -0.522   2.117  0.00  0.00    -0.100 A 
ATOM     22  C   LIG    1       -0.594  -0.103   2.601  0.00  0.00    +0.090 A 
ATOM     23  N   LIG    1       -0.630   1.204   2.566  0.00  0.00    -0.290 NA
ATOM     24  C   LIG    1       -1.702  -1.004   3.082  0.00  0.00    +0.160 C 
ATOM     25  N   LIG    1        0.591   1.666   2.057  0.00  0.00    -0.390 N 
ATOM     26  C   LIG    1        0.965   3.068   1.853  0.00  0.00    +0.360 C 
ENDBRANCH  17  20
ENDBRANCH  15  16
ENDBRANCH   3  15
TORSDOF 5
