REMARK  Name = ZINCrD00000la7gl.0
REMARK                            x       y       z     vdW  Elec       q    Type
REMARK                         _______ _______ _______ _____ _____    ______ ____
ROOT
ATOM      1  C   LIG    1        3.738   1.971   2.032  0.00  0.00    +0.590 C 
ATOM      2  N   LIG    1        3.369   1.319   0.912  0.00  0.00    -0.610 N 
ATOM      3  C   LIG    1        3.460   1.966  -0.406  0.00  0.00    +0.250 C 
ATOM      4  C   LIG    1        2.113   1.802  -1.119  0.00  0.00    +0.220 C 
ATOM      5  O   LIG    1        1.743   0.421  -1.114  0.00  0.00    -0.370 OA
ATOM      6  C   LIG    1        1.545  -0.127   0.191  0.00  0.00    +0.220 C 
ATOM      7  C   LIG    1        2.863  -0.062   0.971  0.00  0.00    +0.290 C 
ATOM      8  O   LIG    1        3.772   1.381   3.096  0.00  0.00    -0.480 OA
ENDROOT
BRANCH   7   9
ATOM      9  C   LIG    1        2.623  -0.453   2.407  0.00  0.00    -0.210 A 
ATOM     10  C   LIG    1        3.201  -1.490   3.057  0.00  0.00    +0.110 A 
ATOM     11  N   LIG    1        2.724  -1.501   4.319  0.00  0.00    -0.380 N 
ATOM     12  N   LIG    1        1.823  -0.437   4.449  0.00  0.00    -0.280 NA
ATOM     13  C   LIG    1        4.200  -2.457   2.475  0.00  0.00    +0.150 C 
ATOM     14  C   LIG    1        1.767   0.194   3.304  0.00  0.00    +0.130 A 
ATOM     15  C   LIG    1        0.924   1.406   3.003  0.00  0.00    +0.150 C 
BRANCH  11  16
ATOM     16  C   LIG    1        3.086  -2.458   5.368  0.00  0.00    +0.370 C 
BRANCH  16  17
ATOM     17  C   LIG    1        4.290  -1.927   6.149  0.00  0.00    +0.440 C 
ATOM     18  F   LIG    1        5.372  -1.758   5.279  0.00  0.00    -0.180 F 
ATOM     19  F   LIG    1        4.636  -2.841   7.151  0.00  0.00    -0.180 F 
ATOM     20  F   LIG    1        3.964  -0.698   6.731  0.00  0.00    -0.170 F 
ENDBRANCH  16  17
ENDBRANCH  11  16
ENDBRANCH   7   9
BRANCH   1  24
ATOM     21  C   LIG    1        5.164   5.351   2.491  0.00  0.00    +0.110 A 
ATOM     22  C   LIG    1        4.385   5.813   1.501  0.00  0.00    -0.180 A 
ATOM     23  S   LIG    1        3.422   4.564   0.849  0.00  0.00    +0.230 S 
ATOM     24  C   LIG    1        4.099   3.390   1.968  0.00  0.00    -0.240 A 
ATOM     25  C   LIG    1        5.021   4.010   2.766  0.00  0.00    +0.100 A 
BRANCH  21  27
ATOM     26  C   LIG    1        6.085   7.526   2.789  0.00  0.00    +0.250 C 
ATOM     27  O   LIG    1        6.031   6.150   3.172  0.00  0.00    -0.310 OA
ENDBRANCH  21  27
ENDBRANCH   1  24
TORSDOF 5
