REMARK  Name = ZINCqH0000037Tun.0
REMARK                            x       y       z     vdW  Elec       q    Type
REMARK                         _______ _______ _______ _____ _____    ______ ____
ROOT
ATOM      1  C   LIG    1        1.833   3.992   0.758  0.00  0.00    +0.110 C 
ATOM      2  C   LIG    1        1.547   2.523   0.581  0.00  0.00    -0.080 A 
ATOM      3  C   LIG    1        0.258   2.040   0.713  0.00  0.00    +0.070 A 
ATOM      4  C   LIG    1        0.040   0.674   0.541  0.00  0.00    +0.100 A 
ATOM      5  C   LIG    1        1.115  -0.150   0.246  0.00  0.00    +0.240 A 
ATOM      6  N   LIG    1        2.333   0.345   0.128  0.00  0.00    -0.490 NA
ATOM      7  C   LIG    1        2.577   1.636   0.284  0.00  0.00    +0.280 A 
ENDROOT
BRANCH   7   8
ATOM      8  N   LIG    1        3.878   2.112   0.150  0.00  0.00    -0.480 N 
ATOM      9  C   LIG    1        4.746   1.575   1.205  0.00  0.00    +0.180 C 
ATOM     10  C   LIG    1        6.127   2.229   1.114  0.00  0.00    +0.020 C 
ATOM     11  C   LIG    1        6.731   1.946  -0.264  0.00  0.00    +0.010 C 
ATOM     12  C   LIG    1        5.784   2.472  -1.346  0.00  0.00    +0.030 C 
ATOM     13  C   LIG    1        4.414   1.811  -1.184  0.00  0.00    +0.140 C 
ATOM     14  C   LIG    1        3.458   2.349  -2.251  0.00  0.00    +0.020 C 
ENDBRANCH   7   8
BRANCH   4  15
ATOM     15  N   LIG    1       -1.249   0.140   0.665  0.00  0.00    -0.660 N 
ATOM     16  H   LIG    1       -1.371  -0.759   1.010  0.00  0.00    +0.410 HD
ATOM     17  C   LIG    1       -2.320   0.875   0.307  0.00  0.00    +0.570 C 
ATOM     18  O   LIG    1       -2.164   1.964  -0.212  0.00  0.00    -0.510 OA
BRANCH  17  19
ATOM     19  C   LIG    1       -3.682   0.359   0.544  0.00  0.00    -0.130 A 
ATOM     20  C   LIG    1       -3.864  -0.893   1.135  0.00  0.00    +0.070 A 
ATOM     21  C   LIG    1       -5.136  -1.371   1.361  0.00  0.00    +0.040 A 
ATOM     22  C   LIG    1       -6.241  -0.617   0.992  0.00  0.00    +0.070 A 
ATOM     23  O   LIG    1       -7.578  -0.864   1.100  0.00  0.00    -0.300 OA
ATOM     24  C   LIG    1       -8.215   0.058   0.197  0.00  0.00    +0.440 C 
ATOM     25  O   LIG    1       -7.297   1.165   0.133  0.00  0.00    -0.300 OA
ATOM     26  C   LIG    1       -6.067   0.633   0.396  0.00  0.00    +0.030 A 
ATOM     27  C   LIG    1       -4.794   1.120   0.173  0.00  0.00    +0.110 A 
ENDBRANCH  17  19
ENDBRANCH   4  15
TORSDOF 3
