REMARK  Name = ZINCrH00000No53Z.0
REMARK                            x       y       z     vdW  Elec       q    Type
REMARK                         _______ _______ _______ _____ _____    ______ ____
ROOT
ATOM      1  N   LIG    1       -0.732   1.464   1.227  0.00  0.00    -0.550 N 
ENDROOT
BRANCH   1   5
ATOM      2  C   LIG    1       -0.725   4.410   3.236  0.00  0.00    +0.320 A 
ATOM      3  N   LIG    1        0.141   5.031   2.490  0.00  0.00    -0.490 NA
ATOM      4  S   LIG    1        0.525   3.955   1.233  0.00  0.00    +0.180 S 
ATOM      5  C   LIG    1       -0.522   2.708   1.795  0.00  0.00    +0.350 A 
ATOM      6  N   LIG    1       -1.084   3.198   2.880  0.00  0.00    -0.570 NA
BRANCH   2   8
ATOM      7  C   LIG    1       -0.712   6.464   4.625  0.00  0.00    +0.040 C 
ATOM      8  C   LIG    1       -1.304   5.062   4.465  0.00  0.00    +0.020 C 
ATOM      9  C   LIG    1       -0.962   4.221   5.697  0.00  0.00    +0.050 C 
ATOM     10  C   LIG    1       -2.823   5.163   4.322  0.00  0.00    +0.060 C 
ENDBRANCH   2   8
ENDBRANCH   1   5
BRANCH   1  11
ATOM     11  C   LIG    1       -0.018   1.088   0.004  0.00  0.00    +0.410 C 
BRANCH  11  12
ATOM     12  C   LIG    1       -0.758   1.624  -1.195  0.00  0.00    -0.050 A 
ATOM     13  C   LIG    1       -0.526   2.793  -1.828  0.00  0.00    +0.170 A 
ATOM     14  N   LIG    1       -1.399   2.897  -2.845  0.00  0.00    -0.470 NA
ATOM     15  C   LIG    1       -2.157   1.843  -2.866  0.00  0.00    +0.180 A 
ATOM     16  C   LIG    1       -3.276   1.510  -3.823  0.00  0.00    +0.370 C 
ATOM     17  O   LIG    1       -3.584   0.117  -3.670  0.00  0.00    -0.370 OA
ATOM     18  C   LIG    1       -3.776  -0.292  -2.313  0.00  0.00    +0.240 C 
ATOM     19  C   LIG    1       -2.434  -0.261  -1.569  0.00  0.00    +0.260 C 
ATOM     20  N   LIG    1       -1.784   1.021  -1.852  0.00  0.00    -0.450 N 
ENDBRANCH  11  12
ENDBRANCH   1  11
BRANCH   1  21
ATOM     21  C   LIG    1       -1.668   0.524   1.847  0.00  0.00    +0.350 C 
BRANCH  21  22
ATOM     22  C   LIG    1       -0.962  -0.245   2.934  0.00  0.00    -0.120 A 
ATOM     23  C   LIG    1       -0.329  -1.438   2.638  0.00  0.00    +0.010 A 
ATOM     24  C   LIG    1        0.323  -2.140   3.634  0.00  0.00    +0.000 A 
ATOM     25  C   LIG    1        0.334  -1.655   4.928  0.00  0.00    +0.010 A 
ATOM     26  C   LIG    1       -0.304  -0.465   5.226  0.00  0.00    +0.000 A 
ATOM     27  C   LIG    1       -0.951   0.240   4.229  0.00  0.00    +0.040 A 
ENDBRANCH  21  22
ENDBRANCH   1  21
TORSDOF 6
