REMARK  Name = ZINCnE000001Ft4O.0
REMARK                            x       y       z     vdW  Elec       q    Type
REMARK                         _______ _______ _______ _____ _____    ______ ____
ROOT
ATOM      1  N   LIG    1        3.054   3.499  -0.009  0.00  0.00    -0.660 N 
ATOM      2  H   LIG    1        3.631   2.807  -0.367  0.00  0.00    +0.430 HD
ATOM      3  C   LIG    1        1.886   3.166   0.576  0.00  0.00    +0.620 C 
ATOM      4  O   LIG    1        1.210   4.022   1.115  0.00  0.00    -0.510 OA
ENDROOT
BRANCH   1  11
ATOM      5  C   LIG    1        4.781   5.182  -0.210  0.00  0.00    +0.090 A 
ATOM      6  C   LIG    1        5.152   6.513  -0.299  0.00  0.00    -0.020 A 
ATOM      7  C   LIG    1        4.188   7.504  -0.277  0.00  0.00    +0.000 A 
ATOM      8  C   LIG    1        2.849   7.169  -0.167  0.00  0.00    +0.090 A 
ATOM      9  C   LIG    1        2.470   5.841  -0.083  0.00  0.00    +0.030 A 
ATOM     10  F   LIG    1        1.910   8.141  -0.147  0.00  0.00    -0.140 F 
ATOM     11  C   LIG    1        3.434   4.843  -0.098  0.00  0.00    +0.160 A 
BRANCH   5  12
ATOM     12  O   LIG    1        5.729   4.208  -0.231  0.00  0.00    -0.310 OA
BRANCH  12  13
ATOM     13  C   LIG    1        7.090   4.629  -0.347  0.00  0.00    +0.180 C 
BRANCH  13  15
ATOM     14  C   LIG    1        9.461   3.853  -0.479  0.00  0.00    +0.040 C 
ATOM     15  C   LIG    1        8.005   3.402  -0.355  0.00  0.00    +0.030 C 
ENDBRANCH  13  15
ENDBRANCH  12  13
ENDBRANCH   5  12
ENDBRANCH   1  11
BRANCH   3  16
ATOM     16  C   LIG    1        1.428   1.765   0.563  0.00  0.00    -0.120 A 
ATOM     17  C   LIG    1        0.270   1.301   1.118  0.00  0.00    +0.040 A 
ATOM     18  C   LIG    1        0.225  -0.078   0.878  0.00  0.00    -0.180 A 
ATOM     19  C   LIG    1        1.370  -0.397   0.182  0.00  0.00    +0.000 A 
ATOM     20  C   LIG    1       -0.864  -1.029   1.302  0.00  0.00    +0.120 C 
ATOM     21  O   LIG    1        2.081   0.732   0.003  0.00  0.00    -0.140 OA
BRANCH  19  22
ATOM     22  C   LIG    1        1.748  -1.737  -0.286  0.00  0.00    +0.560 C 
ATOM     23  O   LIG    1        2.796  -1.898  -0.898  0.00  0.00    -0.660 OA
ATOM     24  O   LIG    1        1.017  -2.692  -0.063  0.00  0.00    -0.640 OA
ENDBRANCH  19  22
ENDBRANCH   3  16
TORSDOF 6
