REMARK  Name = ZINCrH000004kSXA.0
REMARK                            x       y       z     vdW  Elec       q    Type
REMARK                         _______ _______ _______ _____ _____    ______ ____
ROOT
ATOM      1  S   LIG    1       -3.395   2.503   1.704  0.00  0.00    +2.710 S 
ATOM      2  O   LIG    1       -4.314   3.118   0.812  0.00  0.00    -0.940 OA
ATOM      3  O   LIG    1       -2.772   3.194   2.778  0.00  0.00    -0.940 OA
ENDROOT
BRANCH   1   6
ATOM      4  C   LIG    1       -5.972  -0.529   2.322  0.00  0.00    -0.130 A 
ATOM      5  C   LIG    1       -5.308   0.562   1.758  0.00  0.00    +0.210 A 
ATOM      6  C   LIG    1       -4.238   1.130   2.418  0.00  0.00    -0.680 A 
ATOM      7  C   LIG    1       -3.828   0.629   3.641  0.00  0.00    +0.190 A 
ATOM      8  C   LIG    1       -4.485  -0.448   4.209  0.00  0.00    +0.030 A 
ATOM      9  C   LIG    1       -5.554  -1.031   3.558  0.00  0.00    +0.010 A 
ATOM     10 BR   LIG    1       -6.449  -2.503   4.336  0.00  0.00    +0.010 Br
BRANCH   4  11
ATOM     11  C   LIG    1       -7.114  -1.147   1.620  0.00  0.00    +0.500 C 
ATOM     12  O   LIG    1       -7.693  -2.093   2.115  0.00  0.00    -0.470 OA
BRANCH  11  14
ATOM     13  C   LIG    1       -8.644  -1.318  -0.205  0.00  0.00    +0.290 C 
ATOM     14  O   LIG    1       -7.515  -0.661   0.429  0.00  0.00    -0.350 OA
ENDBRANCH  11  14
ENDBRANCH   4  11
ENDBRANCH   1   6
BRANCH   1  15
ATOM     15  N   LIG    1       -2.171   1.894   0.768  0.00  0.00    -1.000 NA
ATOM     16  C   LIG    1       -2.275   1.541  -0.659  0.00  0.00    +0.270 C 
ATOM     17  C   LIG    1       -0.825   1.630  -1.196  0.00  0.00    +0.040 C 
ATOM     18  C   LIG    1       -0.013   1.086   0.008  0.00  0.00    +0.050 C 
ATOM     19  C   LIG    1       -0.798   1.615   1.227  0.00  0.00    +0.290 C 
BRANCH  19  20
ATOM     20  C   LIG    1       -0.819   0.572   2.315  0.00  0.00    -0.080 A 
ATOM     21  C   LIG    1       -1.692  -0.497   2.230  0.00  0.00    -0.030 A 
ATOM     22  C   LIG    1       -1.713  -1.456   3.226  0.00  0.00    +0.040 A 
ATOM     23  C   LIG    1       -0.861  -1.349   4.308  0.00  0.00    -0.070 A 
ATOM     24  C   LIG    1        0.016  -0.277   4.396  0.00  0.00    +0.130 A 
ATOM     25  C   LIG    1        0.039   0.681   3.393  0.00  0.00    +0.010 A 
BRANCH  24  26
ATOM     26  O   LIG    1        0.855  -0.169   5.459  0.00  0.00    -0.310 OA
ATOM     27  C   LIG    1        0.781  -1.196   6.450  0.00  0.00    +0.250 C 
ENDBRANCH  24  26
ENDBRANCH  19  20
ENDBRANCH   1  15
TORSDOF 6
