REMARK  Name = ZINCtV00001bB3w8.0
REMARK                            x       y       z     vdW  Elec       q    Type
REMARK                         _______ _______ _______ _____ _____    ______ ____
ROOT
ATOM      1  C   LIG    1        3.674   3.015  -0.784  0.00  0.00    +0.170 A 
ATOM      2  C   LIG    1        2.482   3.722  -0.894  0.00  0.00    -0.060 A 
ATOM      3  C   LIG    1        1.282   3.096  -0.643  0.00  0.00    +0.100 A 
ATOM      4  C   LIG    1        1.264   1.747  -0.266  0.00  0.00    -0.140 A 
ATOM      5  C   LIG    1        2.468   1.040  -0.157  0.00  0.00    +0.140 A 
ATOM      6  C   LIG    1        3.662   1.675  -0.415  0.00  0.00    -0.130 A 
ENDROOT
BRANCH   4   7
ATOM      7  C   LIG    1       -0.013   1.076   0.008  0.00  0.00    +0.270 C 
ATOM      8  C   LIG    1       -1.109   1.808   0.329  0.00  0.00    -0.280 C 
ATOM      9  S   LIG    1       -1.202   3.551   0.653  0.00  0.00    +0.120 S 
ATOM     10  C   LIG    1       -2.948   3.545   0.958  0.00  0.00    +0.250 C 
ATOM     11  N   LIG    1       -3.365   2.282   0.808  0.00  0.00    -0.500 N 
ATOM     12  S   LIG    1       -3.917   4.897   1.365  0.00  0.00    -0.360 S 
ATOM     13  C   LIG    1       -2.493   1.343   0.483  0.00  0.00    +0.550 C 
ATOM     14  O   LIG    1       -2.812   0.178   0.328  0.00  0.00    -0.460 OA
BRANCH  11  15
ATOM     15  C   LIG    1       -4.778   1.944   0.995  0.00  0.00    +0.230 C 
ATOM     16  C   LIG    1       -5.627   2.732  -0.005  0.00  0.00    +0.060 C 
ATOM     17  C   LIG    1       -5.204   2.304   2.420  0.00  0.00    +0.060 C 
ENDBRANCH  11  15
ENDBRANCH   4   7
BRANCH   1  19
ATOM     18  C   LIG    1        4.796   5.014  -1.411  0.00  0.00    +0.250 C 
ATOM     19  O   LIG    1        4.855   3.636  -1.037  0.00  0.00    -0.310 OA
ENDBRANCH   1  19
BRANCH   6  20
ATOM     20  C   LIG    1        4.958   0.915  -0.298  0.00  0.00    +0.280 C 
BRANCH  20  21
ATOM     21  O   LIG    1        4.687  -0.433   0.090  0.00  0.00    -0.300 OA
BRANCH  21  22
ATOM     22  C   LIG    1        5.756  -1.259   0.241  0.00  0.00    +0.150 A 
ATOM     23  C   LIG    1        7.039  -0.782   0.020  0.00  0.00    -0.040 A 
ATOM     24  C   LIG    1        8.124  -1.623   0.175  0.00  0.00    +0.080 A 
ATOM     25  C   LIG    1        7.933  -2.940   0.550  0.00  0.00    -0.060 A 
ATOM     26  C   LIG    1        6.654  -3.420   0.771  0.00  0.00    +0.090 A 
ATOM     27 CL   LIG    1        9.299  -3.994   0.743  0.00  0.00    -0.050 Cl
ATOM     28  C   LIG    1        5.565  -2.580   0.623  0.00  0.00    -0.060 A 
ATOM     29 CL   LIG    1        3.961  -3.180   0.908  0.00  0.00    -0.040 Cl
ENDBRANCH  21  22
ENDBRANCH  20  21
ENDBRANCH   6  20
TORSDOF 6
