REMARK  Name = ZINCqH00000348b3.0
REMARK                            x       y       z     vdW  Elec       q    Type
REMARK                         _______ _______ _______ _____ _____    ______ ____
ROOT
ATOM      1  N   LIG    1       -0.745   1.296   1.139  0.00  0.00    -0.600 N 
ATOM      2  C   LIG    1        0.091   1.580   2.158  0.00  0.00    +0.580 C 
ATOM      3  O   LIG    1       -0.313   2.208   3.119  0.00  0.00    -0.520 OA
ATOM      4  C   LIG    1       -0.292   0.444   0.037  0.00  0.00    +0.290 C 
ENDROOT
BRANCH   2   5
ATOM      5  C   LIG    1        1.491   1.131   2.109  0.00  0.00    -0.210 A 
ATOM      6  C   LIG    1        2.398   1.785   1.331  0.00  0.00    +0.320 A 
ATOM      7  N   LIG    1        3.696   1.402   1.260  0.00  0.00    -0.620 N 
ATOM      8  H   LIG    1        4.299   1.905   0.690  0.00  0.00    +0.420 HD
ATOM      9  C   LIG    1        4.182   0.352   1.949  0.00  0.00    +0.550 A 
ATOM     10  C   LIG    1        3.285  -0.421   2.818  0.00  0.00    -0.150 A 
ATOM     11  C   LIG    1        3.735  -1.516   3.554  0.00  0.00    +0.090 A 
ATOM     12  C   LIG    1        2.855  -2.197   4.366  0.00  0.00    +0.000 A 
ATOM     13  C   LIG    1        1.523  -1.813   4.446  0.00  0.00    +0.050 A 
ATOM     14  C   LIG    1        1.057  -0.736   3.723  0.00  0.00    +0.010 A 
ATOM     15  O   LIG    1        5.356   0.046   1.853  0.00  0.00    -0.520 OA
ATOM     16  C   LIG    1        1.932  -0.028   2.904  0.00  0.00    +0.030 A 
ENDBRANCH   2   5
BRANCH   1  17
ATOM     17  C   LIG    1       -2.105   1.838   1.135  0.00  0.00    +0.310 C 
BRANCH  17  18
ATOM     18  C   LIG    1       -2.251   2.819  -0.000  0.00  0.00    -0.130 A 
ATOM     19  C   LIG    1       -1.394   2.757  -1.082  0.00  0.00    +0.050 A 
ATOM     20  C   LIG    1       -1.527   3.657  -2.123  0.00  0.00    -0.040 A 
ATOM     21  C   LIG    1       -2.518   4.620  -2.086  0.00  0.00    +0.040 A 
ATOM     22  C   LIG    1       -3.377   4.687  -1.006  0.00  0.00    -0.080 A 
ATOM     23  C   LIG    1       -3.250   3.781   0.037  0.00  0.00    +0.140 A 
BRANCH  23  24
ATOM     24  O   LIG    1       -4.098   3.841   1.098  0.00  0.00    -0.310 OA
ATOM     25  C   LIG    1       -5.102   4.857   1.069  0.00  0.00    +0.250 C 
ENDBRANCH  23  24
ENDBRANCH  17  18
BRANCH  17  27
ATOM     26  C   LIG    1       -3.048  -0.232   2.169  0.00  0.00    +0.020 C 
ATOM     27  C   LIG    1       -3.109   0.698   0.955  0.00  0.00    +0.030 C 
ENDBRANCH  17  27
ENDBRANCH   1  17
TORSDOF 5
