REMARK  Name = ZINCkj000005jQhU.0
REMARK                            x       y       z     vdW  Elec       q    Type
REMARK                         _______ _______ _______ _____ _____    ______ ____
ROOT
ATOM      1  C   LIG    1        0.525  -0.256   0.772  0.00  0.00    +0.040 C 
ATOM      2  C   LIG    1        0.106   0.661  -0.379  0.00  0.00    -0.030 C 
ATOM      3  C   LIG    1        0.596   2.085  -0.102  0.00  0.00    +0.040 C 
ATOM      4  C   LIG    1        2.118   2.081   0.055  0.00  0.00    +0.030 C 
ATOM      5  C   LIG    1        2.760   1.593  -1.247  0.00  0.00    +0.300 C 
ATOM      6  N   LIG    1        2.187   0.287  -1.597  0.00  0.00    -0.990 NA
ATOM      7  C   LIG    1        0.726   0.158  -1.686  0.00  0.00    +0.250 C 
ENDROOT
BRANCH   6   8
ATOM      8  S   LIG    1        3.168  -1.015  -1.887  0.00  0.00    +2.680 S 
ATOM      9  O   LIG    1        2.456  -2.161  -1.440  0.00  0.00    -0.960 OA
ATOM     10  O   LIG    1        4.456  -0.663  -1.403  0.00  0.00    -0.920 OA
BRANCH   8  11
ATOM     11  C   LIG    1        3.320  -1.175  -3.635  0.00  0.00    -0.670 A 
ATOM     12  C   LIG    1        2.535  -2.090  -4.314  0.00  0.00    +0.110 A 
ATOM     13  C   LIG    1        2.646  -2.216  -5.684  0.00  0.00    +0.060 A 
ATOM     14  C   LIG    1        3.560  -1.426  -6.383  0.00  0.00    +0.050 A 
ATOM     15  C   LIG    1        4.353  -0.509  -5.691  0.00  0.00    +0.070 A 
ATOM     16  C   LIG    1        4.228  -0.389  -4.322  0.00  0.00    +0.140 A 
BRANCH  14  17
ATOM     17  C   LIG    1        3.685  -1.557  -7.803  0.00  0.00    +0.230 C 
ATOM     18  N   LIG    1        3.784  -1.661  -8.930  0.00  0.00    -0.370 NA
ENDBRANCH  14  17
ENDBRANCH   8  11
ENDBRANCH   6   8
BRANCH   7  19
ATOM     19  C   LIG    1        0.349  -1.310  -1.900  0.00  0.00    +0.260 C 
BRANCH  19  20
ATOM     20  N   LIG    1       -1.094  -1.414  -2.150  0.00  0.00    -0.630 N 
ATOM     21  H   LIG    1       -1.347  -0.810  -2.919  0.00  0.00    +0.430 HD
ATOM     22  H   LIG    1       -1.600  -1.134  -1.323  0.00  0.00    +0.440 HD
ATOM     23  H   LIG    1       -1.328  -2.368  -2.381  0.00  0.00    +0.450 HD
ENDBRANCH  19  20
ENDBRANCH   7  19
TORSDOF 5
