REMARK  Name = ZINCvU00000007EU.0
REMARK                            x       y       z     vdW  Elec       q    Type
REMARK                         _______ _______ _______ _____ _____    ______ ____
ROOT
ATOM      1  C   LIG    1       -2.443   7.779  -1.046  0.00  0.00    +0.010 C 
ATOM      2  C   LIG    1       -2.693   7.142  -2.414  0.00  0.00    +0.090 C 
ENDROOT
BRANCH   1   3
ATOM      3  C   LIG    1       -2.924   9.208  -1.062  0.00  0.00    +0.540 C 
ATOM      4  N   LIG    1       -2.157  10.170  -1.612  0.00  0.00    -0.660 N 
ATOM      5  H   LIG    1       -1.336   9.933  -2.070  0.00  0.00    +0.410 HD
ATOM      6  O   LIG    1       -4.000   9.491  -0.579  0.00  0.00    -0.500 OA
BRANCH   4   7
ATOM      7  C   LIG    1       -2.546  11.509  -1.523  0.00  0.00    +0.160 A 
ATOM      8  C   LIG    1       -3.892  11.841  -1.460  0.00  0.00    +0.020 A 
ATOM      9  C   LIG    1       -4.274  13.165  -1.367  0.00  0.00    +0.030 A 
ATOM     10  C   LIG    1       -3.321  14.168  -1.347  0.00  0.00    +0.000 A 
ATOM     11  C   LIG    1       -1.979  13.853  -1.414  0.00  0.00    +0.040 A 
ATOM     12  C   LIG    1       -1.580  12.522  -1.503  0.00  0.00    -0.070 A 
BRANCH  12  13
ATOM     13  C   LIG    1       -0.139  12.179  -1.575  0.00  0.00    -0.050 A 
ATOM     14  C   LIG    1        0.394  11.217  -0.718  0.00  0.00    +0.010 A 
ATOM     15  C   LIG    1        1.735  10.899  -0.792  0.00  0.00    +0.000 A 
ATOM     16  C   LIG    1        2.551  11.538  -1.708  0.00  0.00    +0.000 A 
ATOM     17  C   LIG    1        2.028  12.497  -2.557  0.00  0.00    +0.010 A 
ATOM     18  C   LIG    1        0.687  12.820  -2.495  0.00  0.00    +0.030 A 
ENDBRANCH  12  13
ENDBRANCH   4   7
ENDBRANCH   1   3
BRANCH   1  19
ATOM     19  S   LIG    1       -3.345   6.852   0.226  0.00  0.00    +0.100 S 
BRANCH  19  23
ATOM     20  C   LIG    1       -1.688   2.973   0.421  0.00  0.00    +0.230 A 
ATOM     21  N   LIG    1       -1.129   3.748  -0.458  0.00  0.00    -0.280 NA
ATOM     22  N   LIG    1       -1.573   4.923  -0.572  0.00  0.00    -0.250 NA
ATOM     23  C   LIG    1       -2.559   5.276   0.200  0.00  0.00    -0.070 A 
ATOM     24  S   LIG    1       -2.974   3.889   1.210  0.00  0.00    +0.230 S 
BRANCH  20  26
ATOM     25  C   LIG    1       -1.910   1.000   1.722  0.00  0.00    +0.510 C 
ATOM     26  N   LIG    1       -1.339   1.652   0.690  0.00  0.00    -0.480 N 
ATOM     27  O   LIG    1       -2.729   1.565   2.417  0.00  0.00    -0.500 OA
BRANCH  26  28
ATOM     28  C   LIG    1       -0.350   0.970  -0.149  0.00  0.00    +0.190 C 
ATOM     29  C   LIG    1       -0.023   1.597  -1.506  0.00  0.00    +0.070 C 
ATOM     30  C   LIG    1        0.994   1.668  -0.365  0.00  0.00    +0.040 C 
ENDBRANCH  26  28
BRANCH  25  32
ATOM     31  C   LIG    1       -2.319  -0.928   3.227  0.00  0.00    +0.070 C 
ATOM     32  C   LIG    1       -1.532  -0.429   2.013  0.00  0.00    +0.090 C 
ENDBRANCH  25  32
ENDBRANCH  20  26
ENDBRANCH  19  23
ENDBRANCH   1  19
TORSDOF 8
