REMARK  Name = ZINCrD00000F5Lj3.1
REMARK                            x       y       z     vdW  Elec       q    Type
REMARK                         _______ _______ _______ _____ _____    ______ ____
ROOT
ATOM      1  C   LIG    1       -0.018   1.503   0.010  0.00  0.00    +0.190 C 
ENDROOT
BRANCH   1   2
ATOM      2  C   LIG    1        0.002  -0.004   0.002  0.00  0.00    +0.480 C 
ATOM      3  N   LIG    1        0.898  -0.662  -0.760  0.00  0.00    -0.730 N 
ATOM      4  H   LIG    1        1.530  -0.165  -1.304  0.00  0.00    +0.400 HD
ATOM      5  O   LIG    1       -0.788  -0.625   0.681  0.00  0.00    -0.540 OA
BRANCH   3   6
ATOM      6  C   LIG    1        0.918  -2.127  -0.768  0.00  0.00    +0.280 C 
BRANCH   6   7
ATOM      7  C   LIG    1        2.021  -2.616  -1.709  0.00  0.00    +0.010 C 
BRANCH   7   8
ATOM      8  C   LIG    1        2.042  -4.146  -1.717  0.00  0.00    +0.140 C 
BRANCH   8   9
ATOM      9  C   LIG    1        3.144  -4.636  -2.658  0.00  0.00    -0.040 C 
ATOM     10  N   LIG    1        4.324  -3.791  -2.855  0.00  0.00    -0.070 NA
ATOM     11  N   LIG    1        3.517  -3.796  -3.799  0.00  0.00    -0.070 NA
BRANCH   9  12
ATOM     12  C   LIG    1        3.302  -6.153  -2.783  0.00  0.00    +0.500 C 
ATOM     13  F   LIG    1        3.595  -6.697  -1.528  0.00  0.00    -0.160 F 
ATOM     14  F   LIG    1        4.343  -6.442  -3.672  0.00  0.00    -0.170 F 
ATOM     15  F   LIG    1        2.111  -6.707  -3.264  0.00  0.00    -0.160 F 
ENDBRANCH   9  12
ENDBRANCH   8   9
ENDBRANCH   7   8
ENDBRANCH   6   7
ENDBRANCH   3   6
ENDBRANCH   1   2
BRANCH   1  16
ATOM     16  N   LIG    1       -0.706   1.976   1.219  0.00  0.00    -0.810 NA
ATOM     17  H   LIG    1       -0.201   1.709   2.050  0.00  0.00    +0.350 HD
ATOM     18  H   LIG    1       -1.657   1.640   1.250  0.00  0.00    +0.350 HD
ENDBRANCH   1  16
BRANCH   1  19
ATOM     19  C   LIG    1       -0.758   2.010  -1.229  0.00  0.00    +0.110 C 
BRANCH  19  20
ATOM     20  C   LIG    1       -0.673   3.513  -1.285  0.00  0.00    -0.100 A 
ATOM     21  C   LIG    1       -1.696   4.283  -0.766  0.00  0.00    +0.110 A 
ATOM     22  C   LIG    1       -1.617   5.663  -0.817  0.00  0.00    +0.010 A 
ATOM     23  C   LIG    1       -0.516   6.273  -1.388  0.00  0.00    +0.100 A 
ATOM     24  C   LIG    1        0.508   5.505  -1.909  0.00  0.00    -0.220 A 
ATOM     25  C   LIG    1        0.433   4.123  -1.853  0.00  0.00    +0.150 A 
ATOM     26  F   LIG    1        1.436   3.371  -2.356  0.00  0.00    -0.120 F 
BRANCH  24  27
ATOM     27  C   LIG    1        1.708   6.170  -2.531  0.00  0.00    +0.510 C 
ATOM     28  F   LIG    1        1.818   5.777  -3.869  0.00  0.00    -0.170 F 
ATOM     29  F   LIG    1        2.863   5.792  -1.837  0.00  0.00    -0.170 F 
ATOM     30  F   LIG    1        1.558   7.559  -2.463  0.00  0.00    -0.170 F 
ENDBRANCH  24  27
ENDBRANCH  19  20
ENDBRANCH   1  19
TORSDOF 10
