REMARK  Name = ZINCpk00000xIgK9.0
REMARK                            x       y       z     vdW  Elec       q    Type
REMARK                         _______ _______ _______ _____ _____    ______ ____
ROOT
ATOM      1  S   LIG    1        4.681  -2.877   1.716  0.00  0.00    -0.100 S 
ENDROOT
BRANCH   1   2
ATOM      2  C   LIG    1        4.334  -4.656   1.788  0.00  0.00    +0.070 C 
BRANCH   2   8
ATOM      3  C   LIG    1        6.753  -8.438   3.369  0.00  0.00    +0.150 C 
ATOM      4  C   LIG    1        6.870  -7.513   2.148  0.00  0.00    +0.270 C 
ATOM      5  N   LIG    1        5.616  -6.760   2.010  0.00  0.00    -0.600 N 
ATOM      6  C   LIG    1        4.349  -7.501   1.950  0.00  0.00    +0.260 C 
ATOM      7  C   LIG    1        4.261  -8.426   3.167  0.00  0.00    +0.030 C 
ATOM      8  C   LIG    1        5.628  -5.414   1.935  0.00  0.00    +0.540 C 
ATOM      9  O   LIG    1        6.681  -4.813   1.986  0.00  0.00    -0.520 OA
ATOM     10  C   LIG    1        5.506  -9.313   3.221  0.00  0.00    -0.010 C 
ATOM     11  C   LIG    1        5.405 -10.263   4.417  0.00  0.00    +0.020 C 
BRANCH   3  13
ATOM     12  C   LIG    1        7.901  -7.341   5.165  0.00  0.00    +0.200 C 
ATOM     13  O   LIG    1        6.645  -7.652   4.558  0.00  0.00    -0.370 OA
ENDBRANCH   3  13
ENDBRANCH   2   8
ENDBRANCH   1   2
BRANCH   1  14
ATOM     14  C   LIG    1        3.030  -2.146   1.541  0.00  0.00    +0.070 C 
BRANCH  14  15
ATOM     15  C   LIG    1        3.149  -0.646   1.466  0.00  0.00    +0.540 C 
ATOM     16  N   LIG    1        2.043   0.113   1.334  0.00  0.00    -0.610 N 
ATOM     17  C   LIG    1        0.714  -0.508   1.262  0.00  0.00    +0.270 C 
ATOM     18  C   LIG    1        0.002  -0.004   0.002  0.00  0.00    +0.030 C 
ATOM     19  C   LIG    1       -0.019   1.526   0.010  0.00  0.00    -0.010 C 
ATOM     20  C   LIG    1        1.417   2.058  -0.000  0.00  0.00    +0.150 C 
ATOM     21  C   LIG    1       -0.759   2.033  -1.229  0.00  0.00    +0.040 C 
ATOM     22  C   LIG    1        2.144   1.577   1.259  0.00  0.00    +0.270 C 
ATOM     23  O   LIG    1        4.241  -0.121   1.525  0.00  0.00    -0.510 OA
BRANCH  20  24
ATOM     24  O   LIG    1        1.396   3.486  -0.024  0.00  0.00    -0.380 OA
ATOM     25  C   LIG    1        2.517   4.073  -0.688  0.00  0.00    +0.200 C 
ENDBRANCH  20  24
ENDBRANCH  14  15
ENDBRANCH   1  14
TORSDOF 6
