REMARK  Name = ZINCvU0000000FAs.0
REMARK                            x       y       z     vdW  Elec       q    Type
REMARK                         _______ _______ _______ _____ _____    ______ ____
ROOT
ATOM      1  C   LIG    1        7.116   2.557   0.867  0.00  0.00    +0.170 C 
ATOM      2  C   LIG    1        5.691   2.625   0.381  0.00  0.00    +0.130 A 
ATOM      3  N   LIG    1        4.715   1.848   0.765  0.00  0.00    -0.280 NA
ATOM      4  N   LIG    1        3.544   2.217   0.095  0.00  0.00    -0.300 N 
ATOM      5  C   LIG    1        3.835   3.258  -0.730  0.00  0.00    +0.300 A 
ATOM      6  C   LIG    1        5.184   3.542  -0.566  0.00  0.00    -0.220 A 
ENDROOT
BRANCH   4   7
ATOM      7  C   LIG    1        2.288   1.613   0.244  0.00  0.00    +0.140 A 
ATOM      8  C   LIG    1        1.141   2.396   0.290  0.00  0.00    +0.030 A 
ATOM      9  C   LIG    1       -0.095   1.798   0.437  0.00  0.00    +0.020 A 
ATOM     10  C   LIG    1       -0.192   0.422   0.538  0.00  0.00    +0.020 A 
ATOM     11  C   LIG    1        0.948  -0.359   0.492  0.00  0.00    +0.020 A 
ATOM     12  C   LIG    1        2.187   0.232   0.346  0.00  0.00    +0.030 A 
ENDBRANCH   4   7
BRANCH   5  13
ATOM     13  N   LIG    1        2.951   3.915  -1.573  0.00  0.00    -0.470 N 
ATOM     14  C   LIG    1        2.939   5.375  -1.298  0.00  0.00    +0.190 C 
ATOM     15  C   LIG    1        2.358   5.976  -2.603  0.00  0.00    +0.040 C 
ATOM     16  C   LIG    1        2.979   5.082  -3.701  0.00  0.00    +0.020 C 
ATOM     17  C   LIG    1        3.363   3.774  -2.986  0.00  0.00    +0.190 C 
ENDBRANCH   5  13
BRANCH   6  18
ATOM     18  C   LIG    1        5.946   4.597  -1.256  0.00  0.00    +0.270 C 
ATOM     19  N   LIG    1        7.212   4.750  -1.011  0.00  0.00    -0.240 NA
BRANCH  19  20
ATOM     20  N   LIG    1        7.937   5.754  -1.667  0.00  0.00    -0.580 N 
ATOM     21  H   LIG    1        7.492   6.335  -2.304  0.00  0.00    +0.390 HD
BRANCH  20  22
ATOM     22  C   LIG    1        9.297   5.918  -1.403  0.00  0.00    +0.240 A 
ATOM     23  C   LIG    1        9.934   5.091  -0.486  0.00  0.00    +0.050 A 
ATOM     24  C   LIG    1       11.281   5.253  -0.232  0.00  0.00    -0.140 A 
ATOM     25  C   LIG    1       11.995   6.244  -0.880  0.00  0.00    +0.040 A 
ATOM     26  C   LIG    1       11.365   7.074  -1.790  0.00  0.00    +0.080 A 
ATOM     27  C   LIG    1       10.018   6.915  -2.054  0.00  0.00    -0.080 A 
ATOM     28 CL   LIG    1        9.227   7.956  -3.195  0.00  0.00    -0.060 Cl
BRANCH  24  29
ATOM     29  C   LIG    1       11.974   4.352   0.758  0.00  0.00    +0.510 C 
ATOM     30  F   LIG    1       11.872   3.024   0.331  0.00  0.00    -0.170 F 
ATOM     31  F   LIG    1       11.369   4.486   2.013  0.00  0.00    -0.170 F 
ATOM     32  F   LIG    1       13.323   4.710   0.850  0.00  0.00    -0.170 F 
ENDBRANCH  24  29
ENDBRANCH  20  22
ENDBRANCH  19  20
ENDBRANCH   6  18
TORSDOF 6
