REMARK  Name = ZINCrg000000t24D.0
REMARK                            x       y       z     vdW  Elec       q    Type
REMARK                         _______ _______ _______ _____ _____    ______ ____
ROOT
ATOM      1  N   LIG    1        1.527   1.924   0.357  0.00  0.00    -0.990 NA
ATOM      2  C   LIG    1        1.227   3.317   0.525  0.00  0.00    +0.300 C 
ATOM      3  C   LIG    1        0.375   3.470   1.796  0.00  0.00    -0.010 C 
ATOM      4  C   LIG    1       -1.029   3.099   1.562  0.00  0.00    +0.300 C 
ATOM      5  N   LIG    1       -1.115   1.699   1.083  0.00  0.00    -0.590 N 
ATOM      6  C   LIG    1       -0.806   1.387  -0.285  0.00  0.00    +0.280 C 
ATOM      7  C   LIG    1       -1.488   0.720   1.931  0.00  0.00    +0.560 C 
ATOM      8  O   LIG    1       -1.603   0.954   3.118  0.00  0.00    -0.520 OA
ATOM      9  C   LIG    1        0.687   1.030  -0.485  0.00  0.00    +0.290 C 
ENDROOT
BRANCH   7  10
ATOM     10  C   LIG    1       -1.757  -0.643   1.416  0.00  0.00    -0.050 A 
ATOM     11  C   LIG    1       -1.125  -1.112   0.259  0.00  0.00    -0.060 A 
ATOM     12  C   LIG    1       -1.399  -2.389  -0.186  0.00  0.00    +0.320 A 
ATOM     13  N   LIG    1       -2.250  -3.164   0.458  0.00  0.00    -0.530 NA
ATOM     14  C   LIG    1       -2.874  -2.762   1.552  0.00  0.00    +0.330 A 
ATOM     15  C   LIG    1       -2.652  -1.493   2.070  0.00  0.00    +0.020 A 
BRANCH  14  16
ATOM     16  O   LIG    1       -3.741  -3.599   2.175  0.00  0.00    -0.300 OA
BRANCH  16  17
ATOM     17  C   LIG    1       -3.927  -4.891   1.594  0.00  0.00    +0.270 C 
BRANCH  17  18
ATOM     18  C   LIG    1       -4.918  -5.673   2.418  0.00  0.00    -0.100 A 
ATOM     19  C   LIG    1       -4.476  -6.467   3.460  0.00  0.00    +0.030 A 
ATOM     20  C   LIG    1       -5.385  -7.181   4.218  0.00  0.00    +0.010 A 
ATOM     21  C   LIG    1       -6.734  -7.110   3.927  0.00  0.00    +0.020 A 
ATOM     22  C   LIG    1       -7.176  -6.321   2.881  0.00  0.00    +0.010 A 
ATOM     23  C   LIG    1       -6.267  -5.603   2.127  0.00  0.00    +0.030 A 
ENDBRANCH  17  18
ENDBRANCH  16  17
ENDBRANCH  14  16
ENDBRANCH   7  10
BRANCH   1  24
ATOM     24  S   LIG    1        2.850   1.292   1.126  0.00  0.00    +2.790 S 
ATOM     25  O   LIG    1        3.733   2.379   1.366  0.00  0.00    -0.980 OA
ATOM     26  O   LIG    1        3.225   0.134   0.392  0.00  0.00    -0.980 OA
BRANCH  24  27
ATOM     27  N   LIG    1        2.347   0.761   2.612  0.00  0.00    -1.260 NA
ATOM     28  H   LIG    1        1.608   1.202   3.059  0.00  0.00    +0.410 HD
ATOM     29  H   LIG    1        2.792   0.009   3.034  0.00  0.00    +0.420 HD
ENDBRANCH  24  27
ENDBRANCH   1  24
TORSDOF 6
