REMARK  Name = ZINCpk000005J6s2.0
REMARK                            x       y       z     vdW  Elec       q    Type
REMARK                         _______ _______ _______ _____ _____    ______ ____
ROOT
ATOM      1  N   LIG    1        1.141   1.897   0.001  0.00  0.00    -0.570 N 
ATOM      2  C   LIG    1        1.149   3.237   0.097  0.00  0.00    +0.710 C 
ATOM      3  N   LIG    1        0.046   3.924   0.440  0.00  0.00    -0.720 N 
ATOM      4  H   LIG    1        0.062   4.893   0.420  0.00  0.00    +0.430 HD
ATOM      5  C   LIG    1       -1.177   3.229   0.844  0.00  0.00    +0.300 C 
ATOM      6  C   LIG    1       -1.330   1.945   0.019  0.00  0.00    +0.020 C 
ATOM      7  O   LIG    1        2.177   3.842  -0.132  0.00  0.00    -0.540 OA
ATOM      8  C   LIG    1       -0.014   1.208   0.009  0.00  0.00    +0.520 C 
ATOM      9  O   LIG    1        0.002  -0.004   0.002  0.00  0.00    -0.490 OA
ENDROOT
BRANCH   6  10
ATOM     10  C   LIG    1       -1.730   2.297  -1.415  0.00  0.00    -0.030 C 
ATOM     11  C   LIG    1       -3.079   3.056  -1.442  0.00  0.00    +0.030 C 
ATOM     12  C   LIG    1       -3.825   2.457  -2.650  0.00  0.00    +0.190 C 
ATOM     13  O   LIG    1       -2.947   1.496  -3.261  0.00  0.00    -0.370 OA
ATOM     14  C   LIG    1       -2.060   1.019  -2.227  0.00  0.00    +0.210 C 
ENDBRANCH   6  10
BRANCH   1  15
ATOM     15  C   LIG    1        2.411   1.175  -0.113  0.00  0.00    +0.320 C 
BRANCH  15  16
ATOM     16  C   LIG    1        2.782   1.027  -1.590  0.00  0.00    +0.330 C 
BRANCH  16  22
ATOM     17  C   LIG    1        3.086  -2.049  -1.826  0.00  0.00    +0.160 C 
ATOM     18  C   LIG    1        4.198  -1.032  -1.809  0.00  0.00    +0.100 A 
ATOM     19  C   LIG    1        5.522  -1.297  -1.893  0.00  0.00    -0.070 A 
ATOM     20  C   LIG    1        6.209  -0.080  -1.840  0.00  0.00    -0.010 A 
ATOM     21  N   LIG    1        5.328   0.882  -1.732  0.00  0.00    -0.230 NA
ATOM     22  N   LIG    1        4.052   0.305  -1.705  0.00  0.00    -0.350 N 
BRANCH  20  23
ATOM     23  C   LIG    1        7.704   0.095  -1.902  0.00  0.00    +0.560 C 
ATOM     24  F   LIG    1        8.328  -1.030  -1.352  0.00  0.00    -0.160 F 
ATOM     25  F   LIG    1        8.072   1.233  -1.176  0.00  0.00    -0.170 F 
ATOM     26  F   LIG    1        8.102   0.243  -3.235  0.00  0.00    -0.170 F 
ENDBRANCH  20  23
ENDBRANCH  16  22
ENDBRANCH  15  16
ENDBRANCH   1  15
TORSDOF 5
