REMARK  Name = ZINCrg000000sUgy.0
REMARK                            x       y       z     vdW  Elec       q    Type
REMARK                         _______ _______ _______ _____ _____    ______ ____
ROOT
ATOM      1  C   LIG    1        1.870  -1.364   3.900  0.00  0.00    -0.070 A 
ATOM      2  C   LIG    1        0.494  -1.510   3.721  0.00  0.00    +0.020 A 
ATOM      3  C   LIG    1       -0.089  -1.120   2.533  0.00  0.00    +0.130 A 
ATOM      4  C   LIG    1        0.688  -0.586   1.520  0.00  0.00    -0.660 A 
ATOM      5  C   LIG    1        2.053  -0.444   1.689  0.00  0.00    +0.130 A 
ATOM      6  C   LIG    1        2.648  -0.825   2.874  0.00  0.00    +0.050 A 
ENDROOT
BRANCH   1  12
ATOM      7  C   LIG    1        1.603   0.371   8.554  0.00  0.00    -0.010 C 
ATOM      8  C   LIG    1        2.919  -0.393   8.391  0.00  0.00    +0.050 C 
ATOM      9  C   LIG    1        2.660  -1.687   7.612  0.00  0.00    +0.280 C 
ATOM     10  N   LIG    1        1.996  -1.351   6.345  0.00  0.00    -0.600 N 
ATOM     11  C   LIG    1        0.774  -0.537   6.383  0.00  0.00    +0.270 C 
ATOM     12  C   LIG    1        2.501  -1.779   5.171  0.00  0.00    +0.560 C 
ATOM     13  O   LIG    1        3.476  -2.505   5.157  0.00  0.00    -0.520 OA
ATOM     14  C   LIG    1        1.051   0.740   7.175  0.00  0.00    +0.030 C 
BRANCH   7  18
ATOM     15  N   LIG    1        0.826   2.464   9.619  0.00  0.00    -0.860 N 
ATOM     16  H   LIG    1        0.984   3.273  10.130  0.00  0.00    +0.400 HD
ATOM     17  H   LIG    1       -0.067   2.257   9.301  0.00  0.00    +0.400 HD
ATOM     18  C   LIG    1        1.848   1.628   9.349  0.00  0.00    +0.520 C 
ATOM     19  O   LIG    1        2.964   1.887   9.745  0.00  0.00    -0.540 OA
ENDBRANCH   7  18
ENDBRANCH   1  12
BRANCH   4  20
ATOM     20  S   LIG    1       -0.065  -0.092   0.005  0.00  0.00    +2.700 S 
ATOM     21  O   LIG    1        0.959  -0.124  -0.980  0.00  0.00    -0.950 OA
ATOM     22  O   LIG    1       -1.272  -0.833  -0.104  0.00  0.00    -0.950 OA
BRANCH  20  23
ATOM     23  N   LIG    1       -0.504   1.496   0.172  0.00  0.00    -1.110 NA
ATOM     24  H   LIG    1       -1.442   1.744   0.153  0.00  0.00    +0.420 HD
BRANCH  23  25
ATOM     25  C   LIG    1        0.523   2.527   0.342  0.00  0.00    +0.400 C 
BRANCH  25  26
ATOM     26  C   LIG    1       -0.084   3.885   0.102  0.00  0.00    -0.030 A 
ATOM     27  C   LIG    1       -0.656   4.667   1.036  0.00  0.00    -0.030 A 
ATOM     28  C   LIG    1       -1.085   5.843   0.379  0.00  0.00    -0.070 A 
ATOM     29  C   LIG    1       -0.757   5.706  -0.919  0.00  0.00    +0.190 A 
ATOM     30  O   LIG    1       -0.151   4.518  -1.080  0.00  0.00    -0.170 OA
ENDBRANCH  25  26
ENDBRANCH  23  25
ENDBRANCH  20  23
ENDBRANCH   4  20
TORSDOF 6
