REMARK  Name = ZINCpk00000ARcF1.0
REMARK                            x       y       z     vdW  Elec       q    Type
REMARK                         _______ _______ _______ _____ _____    ______ ____
ROOT
ATOM      1  N   LIG    1       -0.530   6.187   0.040  0.00  0.00    -0.740 N 
ATOM      2  H   LIG    1       -1.412   5.782   0.047  0.00  0.00    +0.400 HD
ATOM      3  C   LIG    1        0.569   5.408   0.026  0.00  0.00    +0.710 C 
ATOM      4  N   LIG    1        0.444   4.066   0.020  0.00  0.00    -0.740 N 
ATOM      5  H   LIG    1       -0.437   3.661   0.026  0.00  0.00    +0.410 HD
ATOM      6  O   LIG    1        1.674   5.916   0.018  0.00  0.00    -0.590 OA
ENDROOT
BRANCH   1   7
ATOM      7  C   LIG    1       -0.394   7.646   0.047  0.00  0.00    +0.330 C 
BRANCH   7  15
ATOM      8  O   LIG    1       -3.086   8.001   4.628  0.00  0.00    -0.500 OA
ATOM      9  C   LIG    1       -3.107   8.242   3.439  0.00  0.00    +0.530 C 
ATOM     10  C   LIG    1       -4.230   8.913   2.677  0.00  0.00    +0.140 C 
ATOM     11  C   LIG    1       -3.729   8.959   1.251  0.00  0.00    -0.150 A 
ATOM     12  C   LIG    1       -4.275   9.441   0.083  0.00  0.00    +0.070 A 
ATOM     13  C   LIG    1       -3.566   9.344  -1.102  0.00  0.00    -0.010 A 
ATOM     14  C   LIG    1       -2.309   8.766  -1.105  0.00  0.00    +0.080 A 
ATOM     15  C   LIG    1       -1.762   8.278   0.063  0.00  0.00    -0.130 A 
ATOM     16  C   LIG    1       -2.470   8.373   1.260  0.00  0.00    +0.160 A 
ATOM     17  N   LIG    1       -2.136   7.965   2.552  0.00  0.00    -0.660 N 
ATOM     18  H   LIG    1       -1.300   7.531   2.783  0.00  0.00    +0.410 HD
ENDBRANCH   7  15
ENDBRANCH   1   7
BRANCH   4  19
ATOM     19  C   LIG    1        1.640   3.219   0.004  0.00  0.00    +0.420 C 
BRANCH  19  20
ATOM     20  C   LIG    1        1.228   1.770  -0.000  0.00  0.00    +0.250 A 
ATOM     21  N   LIG    1       -0.016   1.341   0.009  0.00  0.00    -0.530 NA
ATOM     22  C   LIG    1        0.002  -0.004   0.002  0.00  0.00    -0.010 A 
ATOM     23  C   LIG    1       -0.978  -0.997   0.006  0.00  0.00    +0.200 A 
ATOM     24  C   LIG    1       -0.582  -2.329  -0.006  0.00  0.00    -0.030 A 
ATOM     25  C   LIG    1        0.740  -2.654  -0.021  0.00  0.00    +0.340 A 
ATOM     26  N   LIG    1        1.696  -1.711  -0.024  0.00  0.00    -0.480 N 
ATOM     27  H   LIG    1        2.630  -1.974  -0.034  0.00  0.00    +0.430 HD
ATOM     28  C   LIG    1        1.367  -0.385  -0.013  0.00  0.00    +0.230 A 
ATOM     29  N   LIG    1        2.069   0.743  -0.014  0.00  0.00    -0.550 NA
ENDBRANCH  19  20
ENDBRANCH   4  19
TORSDOF 4
