REMARK  Name = ZINCqH0000003v4F.0
REMARK                            x       y       z     vdW  Elec       q    Type
REMARK                         _______ _______ _______ _____ _____    ______ ____
ROOT
ATOM      1  N   LIG    1       -3.216  -3.124   0.005  0.00  0.00    -0.620 N 
ATOM      2  H   LIG    1       -2.321  -3.499  -0.002  0.00  0.00    +0.420 HD
ATOM      3  C   LIG    1       -3.385  -1.787   0.012  0.00  0.00    +0.530 C 
ATOM      4  O   LIG    1       -4.504  -1.318   0.020  0.00  0.00    -0.480 OA
ENDROOT
BRANCH   1   8
ATOM      5  C   LIG    1       -6.538  -5.087   0.013  0.00  0.00    -0.340 A 
ATOM      6  C   LIG    1       -5.476  -5.952   0.004  0.00  0.00    +0.030 A 
ATOM      7  C   LIG    1       -4.260  -5.322  -0.005  0.00  0.00    -0.060 A 
ATOM      8  C   LIG    1       -4.321  -3.965   0.006  0.00  0.00    +0.020 A 
ATOM      9  C   LIG    1       -5.631  -7.451  -0.002  0.00  0.00    +0.130 C 
ATOM     10  S   LIG    1       -5.943  -3.433   0.017  0.00  0.00    +0.370 S 
BRANCH   5  11
ATOM     11  C   LIG    1       -7.903  -5.466   0.018  0.00  0.00    +0.550 C 
ATOM     12  O   LIG    1       -8.207  -6.644   0.015  0.00  0.00    -0.500 OA
BRANCH  11  13
ATOM     13  O   LIG    1       -8.866  -4.521   0.027  0.00  0.00    -0.360 OA
BRANCH  13  15
ATOM     14  C   LIG    1      -11.163  -3.769   0.043  0.00  0.00    +0.070 C 
ATOM     15  C   LIG    1      -10.221  -4.974   0.033  0.00  0.00    +0.200 C 
ENDBRANCH  13  15
ENDBRANCH  11  13
ENDBRANCH   5  11
ENDBRANCH   1   8
BRANCH   3  16
ATOM     16  C   LIG    1       -2.185  -0.875   0.010  0.00  0.00    +0.110 C 
BRANCH  16  17
ATOM     17  S   LIG    1       -2.739   0.852   0.021  0.00  0.00    -0.010 S 
BRANCH  17  18
ATOM     18  C   LIG    1       -1.225   1.754   0.017  0.00  0.00    -0.100 A 
ATOM     19  C   LIG    1       -0.013   1.076   0.008  0.00  0.00    +0.000 A 
ATOM     20  C   LIG    1        1.175   1.783   0.000  0.00  0.00    +0.050 A 
ATOM     21  C   LIG    1        1.160   3.169   0.006  0.00  0.00    +0.050 A 
ATOM     22  O   LIG    1        2.341   3.848   0.002  0.00  0.00    -0.310 OA
ATOM     23  C   LIG    1        2.288   5.231  -0.366  0.00  0.00    +0.230 C 
ATOM     24  C   LIG    1        1.123   5.885   0.390  0.00  0.00    +0.230 C 
ATOM     25  O   LIG    1       -0.085   5.212   0.021  0.00  0.00    -0.300 OA
ATOM     26  C   LIG    1       -0.051   3.851   0.020  0.00  0.00    +0.070 A 
ATOM     27  C   LIG    1       -1.242   3.142   0.029  0.00  0.00    +0.050 A 
ENDBRANCH  17  18
ENDBRANCH  16  17
ENDBRANCH   3  16
TORSDOF 7
