REMARK  Name = ZINCkj000018RDFb.0
REMARK                            x       y       z     vdW  Elec       q    Type
REMARK                         _______ _______ _______ _____ _____    ______ ____
ROOT
ATOM      1  C   LIG    1        1.894   3.109   0.433  0.00  0.00    +0.670 C 
ATOM      2  N   LIG    1        1.403   1.931  -0.001  0.00  0.00    -0.620 N 
ATOM      3  C   LIG    1        2.196   0.828  -0.563  0.00  0.00    +0.280 C 
ATOM      4  C   LIG    1        1.216  -0.320  -0.895  0.00  0.00    +0.110 C 
ATOM      5  C   LIG    1        0.002  -0.004   0.002  0.00  0.00    +0.140 C 
ATOM      6  N   LIG    1        0.202  -0.529   1.351  0.00  0.00    -0.490 N 
ATOM      7  C   LIG    1        0.058  -1.992   1.358  0.00  0.00    +0.280 C 
ATOM      8  C   LIG    1       -1.411  -2.375   1.133  0.00  0.00    +0.180 C 
ATOM      9  C   LIG    1       -1.907  -1.629  -0.082  0.00  0.00    +0.040 A 
ATOM     10  N   LIG    1       -2.984  -1.856  -0.832  0.00  0.00    -0.470 NA
ATOM     11  C   LIG    1       -3.032  -0.968  -1.792  0.00  0.00    +0.470 A 
ATOM     12  N   LIG    1       -1.968  -0.139  -1.673  0.00  0.00    -0.540 N 
ATOM     13  H   LIG    1       -1.753   0.609  -2.252  0.00  0.00    +0.430 HD
ATOM     14  H   LIG    1       -0.483  -0.126   1.972  0.00  0.00    +0.430 HD
ATOM     15  H   LIG    1        1.127  -0.284   1.671  0.00  0.00    +0.440 HD
ATOM     16  C   LIG    1       -1.257  -0.553  -0.592  0.00  0.00    -0.080 A 
ATOM     17  C   LIG    1       -0.019   1.536   0.011  0.00  0.00    +0.340 C 
ATOM     18  O   LIG    1        1.143   3.953   0.881  0.00  0.00    -0.540 OA
ENDROOT
BRANCH   1  19
ATOM     19  O   LIG    1        3.217   3.352   0.369  0.00  0.00    -0.350 OA
BRANCH  19  21
ATOM     20  C   LIG    1        3.299   4.795   2.329  0.00  0.00    +0.030 C 
ATOM     21  C   LIG    1        3.675   4.642   0.854  0.00  0.00    +0.140 C 
ATOM     22  C   LIG    1        3.013   5.756   0.041  0.00  0.00    +0.030 C 
ATOM     23  C   LIG    1        5.194   4.733   0.703  0.00  0.00    +0.090 C 
ENDBRANCH  19  21
ENDBRANCH   1  19
TORSDOF 2
