REMARK  Name = ZINCrD000000fNzS.0
REMARK                            x       y       z     vdW  Elec       q    Type
REMARK                         _______ _______ _______ _____ _____    ______ ____
ROOT
ATOM      1  C   LIG    1        2.329   1.156   0.163  0.00  0.00    +0.310 A 
ATOM      2  C   LIG    1        2.490  -0.172  -0.076  0.00  0.00    -0.080 A 
ATOM      3  C   LIG    1        3.867  -0.455  -0.018  0.00  0.00    +0.130 A 
ATOM      4  N   LIG    1        4.506   0.665   0.246  0.00  0.00    -0.270 NA
ATOM      5  N   LIG    1        3.562   1.693   0.360  0.00  0.00    -0.380 N 
ENDROOT
BRANCH   3   6
ATOM      6  C   LIG    1        4.492  -1.787  -0.221  0.00  0.00    -0.010 A 
ATOM      7  C   LIG    1        3.696  -2.898  -0.491  0.00  0.00    +0.060 A 
ATOM      8  C   LIG    1        4.281  -4.133  -0.683  0.00  0.00    +0.030 A 
ATOM      9  C   LIG    1        5.656  -4.270  -0.598  0.00  0.00    -0.030 A 
ATOM     10  C   LIG    1        6.450  -3.170  -0.325  0.00  0.00    +0.030 A 
ATOM     11 CL   LIG    1        6.386  -5.827  -0.835  0.00  0.00    -0.070 Cl
ATOM     12  C   LIG    1        5.875  -1.930  -0.136  0.00  0.00    +0.060 A 
ENDBRANCH   3   6
BRANCH   1  14
ATOM     13  C   LIG    1       -0.038   1.188  -0.024  0.00  0.00    +0.540 C 
ATOM     14  N   LIG    1        1.117   1.846   0.195  0.00  0.00    -0.650 N 
ATOM     15  H   LIG    1        1.106   2.799   0.375  0.00  0.00    +0.410 HD
ATOM     16  O   LIG    1       -0.024  -0.004  -0.248  0.00  0.00    -0.490 OA
BRANCH  13  19
ATOM     17  C   LIG    1       -3.417   1.647   0.359  0.00  0.00    -0.040 C 
ATOM     18  C   LIG    1       -2.470   1.237  -0.782  0.00  0.00    +0.100 C 
ATOM     19  C   LIG    1       -1.347   1.933   0.005  0.00  0.00    -0.010 C 
ATOM     20  C   LIG    1       -2.178   1.673   1.272  0.00  0.00    -0.050 C 
ATOM     21  C   LIG    1       -2.168   2.839   2.262  0.00  0.00    +0.040 C 
ATOM     22  C   LIG    1       -1.877   0.327   1.936  0.00  0.00    +0.070 C 
BRANCH  17  24
ATOM     23  C   LIG    1       -5.856   0.720   0.293  0.00  0.00    +0.050 C 
ATOM     24  C   LIG    1       -4.418   0.582   0.724  0.00  0.00    +0.360 C 
ATOM     25  O   LIG    1       -4.069  -0.382   1.363  0.00  0.00    -0.440 OA
ENDBRANCH  17  24
ENDBRANCH  13  19
ENDBRANCH   1  14
BRANCH   5  26
ATOM     26  C   LIG    1        3.853   3.101   0.644  0.00  0.00    +0.340 C 
BRANCH  26  27
ATOM     27  C   LIG    1        3.843   3.328   2.157  0.00  0.00    +0.170 C 
BRANCH  27  28
ATOM     28  O   LIG    1        4.126   4.701   2.434  0.00  0.00    -0.570 OA
ATOM     29  H   LIG    1        4.136   4.918   3.376  0.00  0.00    +0.390 HD
ENDBRANCH  27  28
ENDBRANCH  26  27
ENDBRANCH   5  26
TORSDOF 7
