REMARK  Name = ZINCpe000000SAIc.0
REMARK                            x       y       z     vdW  Elec       q    Type
REMARK                         _______ _______ _______ _____ _____    ______ ____
ROOT
ATOM      1  C   LIG    1       -0.742   1.585  -1.213  0.00  0.00    +0.510 C 
ATOM      2  N   LIG    1       -0.288   1.272  -2.443  0.00  0.00    -0.610 N 
ATOM      3  C   LIG    1        0.918   0.451  -2.610  0.00  0.00    +0.270 C 
ATOM      4  C   LIG    1        0.577  -0.739  -3.520  0.00  0.00    +0.010 C 
ATOM      5  C   LIG    1       -0.014  -0.217  -4.832  0.00  0.00    +0.000 C 
ATOM      6  C   LIG    1       -1.305   0.552  -4.541  0.00  0.00    +0.020 C 
ATOM      7  C   LIG    1       -0.988   1.752  -3.643  0.00  0.00    +0.280 C 
ATOM      8  O   LIG    1       -1.736   2.268  -1.088  0.00  0.00    -0.540 OA
ENDROOT
BRANCH   1   9
ATOM      9  C   LIG    1       -0.013   1.086   0.008  0.00  0.00    +0.300 C 
BRANCH   9  11
ATOM     10  C   LIG    1       -0.222   1.232   2.431  0.00  0.00    +0.510 C 
ATOM     11  N   LIG    1       -0.698   1.558   1.213  0.00  0.00    -0.710 N 
ATOM     12  H   LIG    1       -1.495   2.106   1.135  0.00  0.00    +0.420 HD
ATOM     13  O   LIG    1        0.774   0.548   2.529  0.00  0.00    -0.540 OA
BRANCH  10  14
ATOM     14  C   LIG    1       -0.927   1.718   3.671  0.00  0.00    +0.300 C 
BRANCH  14  17
ATOM     15  C   LIG    1        0.057   1.047   7.309  0.00  0.00    +0.110 C 
ATOM     16  C   LIG    1       -0.672   1.546   6.088  0.00  0.00    +0.510 C 
ATOM     17  N   LIG    1       -0.219   1.233   4.858  0.00  0.00    -0.720 N 
ATOM     18  H   LIG    1        0.577   0.687   4.758  0.00  0.00    +0.410 HD
ATOM     19  O   LIG    1       -1.666   2.229   6.213  0.00  0.00    -0.550 OA
ENDBRANCH  14  17
ENDBRANCH  10  14
ENDBRANCH   9  11
ENDBRANCH   1   9
BRANCH   5  20
ATOM     20  C   LIG    1       -0.321  -1.397  -5.757  0.00  0.00    +0.080 C 
BRANCH  20  21
ATOM     21  C   LIG    1        0.966  -2.081  -6.142  0.00  0.00    -0.050 A 
ATOM     22  C   LIG    1        1.651  -1.678  -7.272  0.00  0.00    +0.000 A 
ATOM     23  C   LIG    1        2.834  -2.302  -7.624  0.00  0.00    +0.040 A 
ATOM     24  C   LIG    1        3.327  -3.336  -6.851  0.00  0.00    -0.030 A 
ATOM     25  C   LIG    1        2.638  -3.744  -5.721  0.00  0.00    +0.100 A 
ATOM     26  F   LIG    1        3.119  -4.755  -4.964  0.00  0.00    -0.140 F 
ATOM     27  C   LIG    1        1.457  -3.115  -5.367  0.00  0.00    -0.020 A 
ENDBRANCH  20  21
ENDBRANCH   5  20
TORSDOF 6
