REMARK  Name = ZINCrH00000tj1m2.0
REMARK                            x       y       z     vdW  Elec       q    Type
REMARK                         _______ _______ _______ _____ _____    ______ ____
ROOT
ATOM      1  C   LIG    1       -1.544  -0.540   0.081  0.00  0.00    +0.280 C 
ATOM      2  C   LIG    1       -2.323   0.031  -1.105  0.00  0.00    +0.140 C 
ATOM      3  S   LIG    1       -2.795  -1.432  -2.075  0.00  0.00    +0.060 S 
ATOM      4  C   LIG    1       -2.036  -2.619  -1.008  0.00  0.00    +0.170 A 
ATOM      5  N   LIG    1       -1.841  -3.917  -0.874  0.00  0.00    -0.240 NA
ATOM      6  N   LIG    1       -1.164  -4.145   0.193  0.00  0.00    -0.240 NA
ATOM      7  C   LIG    1       -0.889  -3.016   0.796  0.00  0.00    +0.240 A 
ATOM      8  N   LIG    1       -1.447  -1.993   0.034  0.00  0.00    -0.490 N 
ENDROOT
BRANCH   7   9
ATOM      9  C   LIG    1       -0.128  -2.857   2.053  0.00  0.00    +0.030 A 
ATOM     10  C   LIG    1        0.675  -3.895   2.544  0.00  0.00    +0.020 A 
ATOM     11  C   LIG    1        1.372  -3.702   3.718  0.00  0.00    +0.280 A 
ATOM     12  N   LIG    1        1.282  -2.563   4.380  0.00  0.00    -0.470 NA
ATOM     13  C   LIG    1        0.534  -1.563   3.955  0.00  0.00    +0.270 A 
ATOM     14  C   LIG    1       -0.192  -1.668   2.788  0.00  0.00    -0.040 A 
ENDBRANCH   7   9
BRANCH   1  15
ATOM     15  C   LIG    1       -0.132   0.051   0.076  0.00  0.00    +0.090 C 
BRANCH  15  16
ATOM     16  S   LIG    1       -0.228   1.843   0.308  0.00  0.00    +0.110 S 
BRANCH  16  20
ATOM     17  C   LIG    1        3.356   3.329   0.295  0.00  0.00    +0.270 A 
ATOM     18  N   LIG    1        3.593   2.051   0.121  0.00  0.00    -0.270 NA
ATOM     19  N   LIG    1        2.479   1.408   0.102  0.00  0.00    -0.270 NA
ATOM     20  C   LIG    1        1.486   2.250   0.264  0.00  0.00    +0.120 A 
ATOM     21  O   LIG    1        2.017   3.482   0.384  0.00  0.00    -0.200 OA
BRANCH  17  24
ATOM     22  C   LIG    1        6.464   2.975   0.076  0.00  0.00    +0.210 C 
ATOM     23  C   LIG    1        5.719   4.269   0.281  0.00  0.00    +0.090 A 
ATOM     24  C   LIG    1        4.368   4.403   0.374  0.00  0.00    -0.150 A 
ATOM     25  C   LIG    1        4.123   5.839   0.563  0.00  0.00    -0.020 A 
ATOM     26  C   LIG    1        5.333   6.423   0.576  0.00  0.00    +0.200 A 
ATOM     27  O   LIG    1        6.274   5.483   0.404  0.00  0.00    -0.170 OA
ENDBRANCH  17  24
ENDBRANCH  16  20
ENDBRANCH  15  16
ENDBRANCH   1  15
TORSDOF 5
