REMARK  Name = ZINCtV000002PrTE.0
REMARK                            x       y       z     vdW  Elec       q    Type
REMARK                         _______ _______ _______ _____ _____    ______ ____
ROOT
ATOM      1  O   LIG    1       -1.824  10.182   0.200  0.00  0.00    -0.530 OA
ATOM      2  C   LIG    1       -2.056   8.996   0.067  0.00  0.00    +0.600 C 
ATOM      3  N   LIG    1       -3.330   8.565  -0.024  0.00  0.00    -0.590 N 
ATOM      4  C   LIG    1       -3.634   7.127  -0.036  0.00  0.00    +0.300 C 
ATOM      5  C   LIG    1       -4.665   6.837   1.066  0.00  0.00    +0.040 C 
ATOM      6  C   LIG    1       -5.885   7.739   0.866  0.00  0.00    +0.090 C 
ATOM      7  C   LIG    1       -5.461   9.206   0.977  0.00  0.00    +0.040 C 
ATOM      8  C   LIG    1       -4.440   9.523  -0.120  0.00  0.00    +0.280 C 
ENDROOT
BRANCH   6   9
ATOM      9  C   LIG    1       -6.915   7.433   1.923  0.00  0.00    +0.100 A 
ATOM     10  N   LIG    1       -6.710   7.544   3.181  0.00  0.00    -0.460 NA
ATOM     11  C   LIG    1       -7.724   7.239   4.012  0.00  0.00    +0.080 A 
ATOM     12  C   LIG    1       -7.776   7.276   5.420  0.00  0.00    +0.070 A 
ATOM     13  C   LIG    1       -8.914   6.917   6.078  0.00  0.00    +0.030 A 
ATOM     14  C   LIG    1      -10.041   6.511   5.378  0.00  0.00    +0.040 A 
ATOM     15  C   LIG    1      -10.019   6.466   4.002  0.00  0.00    +0.060 A 
ATOM     16  C   LIG    1       -8.865   6.829   3.312  0.00  0.00    -0.180 A 
ATOM     17  S   LIG    1       -8.497   6.888   1.591  0.00  0.00    +0.100 S 
ENDBRANCH   6   9
BRANCH   2  18
ATOM     18  C   LIG    1       -0.945   8.030   0.005  0.00  0.00    +0.010 A 
ATOM     19  C   LIG    1        0.336   8.383   0.251  0.00  0.00    -0.020 A 
ATOM     20  S   LIG    1        1.337   7.007   0.087  0.00  0.00    +0.200 S 
ATOM     21  C   LIG    1       -0.061   6.016  -0.312  0.00  0.00    +0.090 A 
ATOM     22  N   LIG    1       -1.129   6.753  -0.300  0.00  0.00    -0.430 NA
BRANCH  21  23
ATOM     23  C   LIG    1       -0.024   4.569  -0.620  0.00  0.00    -0.020 A 
ATOM     24  C   LIG    1        1.190   3.881  -0.607  0.00  0.00    +0.060 A 
ATOM     25  C   LIG    1        1.218   2.533  -0.895  0.00  0.00    +0.030 A 
ATOM     26  C   LIG    1        0.045   1.861  -1.196  0.00  0.00    -0.020 A 
ATOM     27  C   LIG    1       -1.162   2.540  -1.215  0.00  0.00    +0.030 A 
ATOM     28 CL   LIG    1        0.088   0.164  -1.558  0.00  0.00    -0.060 Cl
ATOM     29  C   LIG    1       -1.203   3.888  -0.924  0.00  0.00    +0.090 A 
ENDBRANCH  21  23
ENDBRANCH   2  18
TORSDOF 3
