REMARK  Name = ZINCkj00000GePmj.1
REMARK                            x       y       z     vdW  Elec       q    Type
REMARK                         _______ _______ _______ _____ _____    ______ ____
ROOT
ATOM      1  N   LIG    1       -0.715   3.053   1.213  0.00  0.00    -0.390 N 
ATOM      2  C   LIG    1       -1.519   3.542   0.084  0.00  0.00    +0.240 C 
ATOM      3  C   LIG    1       -1.531   5.072   0.095  0.00  0.00    +0.280 C 
ATOM      4  O   LIG    1       -2.048   5.532   1.346  0.00  0.00    -0.320 OA
ATOM      5  C   LIG    1       -1.312   5.061   2.479  0.00  0.00    +0.220 C 
ATOM      6  C   LIG    1       -1.300   3.531   2.473  0.00  0.00    +0.270 C 
ATOM      7  H   LIG    1        0.229   3.398   1.128  0.00  0.00    +0.420 HD
ENDROOT
BRANCH   5   8
ATOM      8  C   LIG    1        0.103   5.576   2.409  0.00  0.00    +0.470 C 
ATOM      9  O   LIG    1        0.473   6.204   1.440  0.00  0.00    -0.510 OA
ATOM     10  N   LIG    1        0.957   5.339   3.425  0.00  0.00    -0.840 N 
ATOM     11  H   LIG    1        1.867   5.671   3.380  0.00  0.00    +0.420 HD
ATOM     12  H   LIG    1        0.661   4.837   4.200  0.00  0.00    +0.410 HD
ENDBRANCH   5   8
BRANCH   1  14
ATOM     13  C   LIG    1        0.038   1.074   2.443  0.00  0.00    +0.080 C 
ATOM     14  C   LIG    1       -0.702   1.584   1.205  0.00  0.00    +0.160 C 
BRANCH  14  15
ATOM     15  C   LIG    1        0.009   1.087  -0.056  0.00  0.00    +0.040 C 
BRANCH  15  16
ATOM     16  C   LIG    1       -0.094  -0.438  -0.131  0.00  0.00    +0.110 C 
BRANCH  16  17
ATOM     17  C   LIG    1        0.491  -0.916  -1.435  0.00  0.00    -0.070 A 
ATOM     18  C   LIG    1       -0.318  -1.043  -2.549  0.00  0.00    +0.000 A 
ATOM     19  C   LIG    1        0.218  -1.477  -3.748  0.00  0.00    +0.060 A 
ATOM     20  C   LIG    1        1.560  -1.795  -3.830  0.00  0.00    -0.010 A 
ATOM     21  C   LIG    1        2.370  -1.674  -2.713  0.00  0.00    +0.110 A 
ATOM     22  F   LIG    1        3.682  -1.984  -2.793  0.00  0.00    -0.130 F 
ATOM     23  C   LIG    1        1.833  -1.234  -1.515  0.00  0.00    -0.010 A 
ENDBRANCH  16  17
ENDBRANCH  15  16
ENDBRANCH  14  15
ENDBRANCH   1  14
TORSDOF 5
