REMARK  Name = ZINCkj00000GePmj.0
REMARK                            x       y       z     vdW  Elec       q    Type
REMARK                         _______ _______ _______ _____ _____    ______ ____
ROOT
ATOM      1  N   LIG    1       -0.619   3.019   0.997  0.00  0.00    -0.380 N 
ATOM      2  C   LIG    1       -1.158   3.324  -0.336  0.00  0.00    +0.240 C 
ATOM      3  C   LIG    1       -1.103   4.835  -0.572  0.00  0.00    +0.270 C 
ATOM      4  O   LIG    1        0.248   5.285  -0.437  0.00  0.00    -0.330 OA
ATOM      5  C   LIG    1        0.826   4.990   0.838  0.00  0.00    +0.160 C 
ATOM      6  C   LIG    1        0.775   3.479   1.077  0.00  0.00    +0.260 C 
ATOM      7  H   LIG    1       -1.169   3.491   1.699  0.00  0.00    +0.420 HD
ENDROOT
BRANCH   5   8
ATOM      8  C   LIG    1        2.259   5.455   0.860  0.00  0.00    +0.520 C 
ATOM      9  O   LIG    1        2.765   5.907  -0.144  0.00  0.00    -0.490 OA
ATOM     10  N   LIG    1        2.978   5.368   1.997  0.00  0.00    -0.840 N 
ATOM     11  H   LIG    1        3.901   5.667   2.011  0.00  0.00    +0.420 HD
ATOM     12  H   LIG    1        2.573   5.006   2.800  0.00  0.00    +0.400 HD
ENDBRANCH   5   8
BRANCH   1  14
ATOM     13  C   LIG    1        0.045   0.846   0.084  0.00  0.00    +0.090 C 
ATOM     14  C   LIG    1       -0.670   1.569   1.227  0.00  0.00    +0.170 C 
BRANCH  14  15
ATOM     15  C   LIG    1       -2.130   1.113   1.285  0.00  0.00    +0.070 C 
BRANCH  15  16
ATOM     16  C   LIG    1       -2.810   1.735   2.506  0.00  0.00    +0.070 C 
BRANCH  16  17
ATOM     17  C   LIG    1       -4.208   1.188   2.635  0.00  0.00    -0.070 A 
ATOM     18  C   LIG    1       -4.437   0.045   3.377  0.00  0.00    +0.010 A 
ATOM     19  C   LIG    1       -5.720  -0.458   3.497  0.00  0.00    +0.060 A 
ATOM     20  C   LIG    1       -6.774   0.182   2.873  0.00  0.00    -0.010 A 
ATOM     21  C   LIG    1       -6.546   1.327   2.129  0.00  0.00    +0.110 A 
ATOM     22  F   LIG    1       -7.576   1.954   1.520  0.00  0.00    -0.130 F 
ATOM     23  C   LIG    1       -5.262   1.833   2.015  0.00  0.00    -0.020 A 
ENDBRANCH  16  17
ENDBRANCH  15  16
ENDBRANCH  14  15
ENDBRANCH   1  14
TORSDOF 5
