REMARK  Name = ZINCrH000004rkKr.0
REMARK                            x       y       z     vdW  Elec       q    Type
REMARK                         _______ _______ _______ _____ _____    ______ ____
ROOT
ATOM      1  N   LIG    1        0.715  -0.530   1.202  0.00  0.00    -0.560 N 
ATOM      2  C   LIG    1        1.771  -1.227   0.745  0.00  0.00    +0.710 C 
ATOM      3  N   LIG    1        1.847  -1.222  -0.591  0.00  0.00    -0.560 N 
ATOM      4  C   LIG    1        0.841  -0.517  -1.144  0.00  0.00    +0.540 C 
ATOM      5  O   LIG    1        0.639  -0.331  -2.325  0.00  0.00    -0.450 OA
ATOM      6  O   LIG    1        2.568  -1.797   1.465  0.00  0.00    -0.520 OA
ATOM      7  C   LIG    1        0.013  -0.004   0.018  0.00  0.00    +0.230 C 
ATOM      8  C   LIG    1       -0.001   1.525   0.036  0.00  0.00    +0.090 C 
ENDROOT
BRANCH   1  13
ATOM      9  C   LIG    1       -0.750   0.233   6.629  0.00  0.00    +0.100 C 
ATOM     10  C   LIG    1       -0.361   0.030   5.187  0.00  0.00    -0.110 A 
ATOM     11  C   LIG    1        0.760  -0.716   4.874  0.00  0.00    +0.040 A 
ATOM     12  C   LIG    1        1.119  -0.904   3.553  0.00  0.00    +0.000 A 
ATOM     13  C   LIG    1        0.354  -0.342   2.540  0.00  0.00    +0.180 A 
ATOM     14  C   LIG    1       -0.769   0.411   2.858  0.00  0.00    -0.020 A 
ATOM     15  C   LIG    1       -1.126   0.591   4.181  0.00  0.00    +0.040 A 
ENDBRANCH   1  13
BRANCH   3  16
ATOM     16  C   LIG    1        2.895  -1.901  -1.358  0.00  0.00    +0.370 C 
BRANCH  16  17
ATOM     17  C   LIG    1        2.457  -3.309  -1.670  0.00  0.00    +0.500 C 
ATOM     18  N   LIG    1        3.266  -4.126  -2.373  0.00  0.00    -0.660 N 
ATOM     19  H   LIG    1        4.094  -3.785  -2.746  0.00  0.00    +0.420 HD
ATOM     20  O   LIG    1        1.376  -3.706  -1.289  0.00  0.00    -0.500 OA
BRANCH  18  21
ATOM     21  C   LIG    1        2.912  -5.466  -2.563  0.00  0.00    +0.160 A 
ATOM     22  C   LIG    1        2.063  -6.096  -1.663  0.00  0.00    +0.030 A 
ATOM     23  C   LIG    1        1.715  -7.420  -1.855  0.00  0.00    -0.020 A 
ATOM     24  C   LIG    1        2.212  -8.117  -2.942  0.00  0.00    +0.020 A 
ATOM     25  C   LIG    1        3.057  -7.491  -3.840  0.00  0.00    +0.050 A 
ATOM     26 CL   LIG    1        0.653  -8.210  -0.731  0.00  0.00    -0.060 Cl
ATOM     27  C   LIG    1        3.404  -6.167  -3.657  0.00  0.00    -0.110 A 
ATOM     28  C   LIG    1        4.321  -5.485  -4.639  0.00  0.00    +0.100 C 
ENDBRANCH  18  21
ENDBRANCH  16  17
ENDBRANCH   3  16
TORSDOF 4
