REMARK  Name = ZINCnE000005uwbx.0
REMARK                            x       y       z     vdW  Elec       q    Type
REMARK                         _______ _______ _______ _____ _____    ______ ____
ROOT
ATOM      1  C   LIG    1        4.199  -0.987   1.370  0.00  0.00    +0.070 A 
ATOM      2  N   LIG    1        3.615  -0.530   2.427  0.00  0.00    -0.280 NA
ATOM      3  N   LIG    1        4.392  -0.883   3.541  0.00  0.00    -0.550 NA
ATOM      4  C   LIG    1        5.469  -1.579   3.058  0.00  0.00    +0.430 A 
ATOM      5  N   LIG    1        6.444  -2.092   3.762  0.00  0.00    -0.680 NA
ATOM      6  O   LIG    1        5.328  -1.636   1.718  0.00  0.00    -0.300 OA
ENDROOT
BRANCH   1   7
ATOM      7  C   LIG    1        3.690  -0.826  -0.039  0.00  0.00    +0.210 C 
BRANCH   7  14
ATOM      8  C   LIG    1        2.409   4.130   0.004  0.00  0.00    +0.000 A 
ATOM      9  C   LIG    1        1.216   3.474   0.011  0.00  0.00    +0.010 A 
ATOM     10  C   LIG    1        1.195   2.069   0.002  0.00  0.00    -0.050 A 
ATOM     11  C   LIG    1       -0.016   1.357   0.009  0.00  0.00    +0.000 A 
ATOM     12  C   LIG    1        0.002  -0.004   0.002  0.00  0.00    +0.010 A 
ATOM     13  C   LIG    1        1.206  -0.705  -0.014  0.00  0.00    +0.010 A 
ATOM     14  C   LIG    1        2.399  -0.049  -0.022  0.00  0.00    -0.040 A 
ATOM     15  C   LIG    1        2.420   1.355  -0.014  0.00  0.00    -0.030 A 
ATOM     16  C   LIG    1        3.632   2.067  -0.021  0.00  0.00    +0.040 A 
ATOM     17  C   LIG    1        3.613   3.428  -0.013  0.00  0.00    -0.010 A 
ENDBRANCH   7  14
ENDBRANCH   1   7
BRANCH   5  18
ATOM     18  C   LIG    1        6.450  -1.947   5.219  0.00  0.00    +0.210 C 
BRANCH  18  19
ATOM     19  C   LIG    1        6.305  -3.324   5.870  0.00  0.00    +0.140 C 
ATOM     20  C   LIG    1        6.183  -3.185   7.403  0.00  0.00    -0.010 C 
ATOM     21  C   LIG    1        6.968  -4.396   7.954  0.00  0.00    -0.010 C 
ATOM     22  C   LIG    1        7.472  -5.124   6.688  0.00  0.00    +0.170 C 
ATOM     23  O   LIG    1        7.502  -4.106   5.664  0.00  0.00    -0.350 OA
ENDBRANCH  18  19
ENDBRANCH   5  18
TORSDOF 4
