REMARK  Name = ZINCb70000002CTg.0
REMARK                            x       y       z     vdW  Elec       q    Type
REMARK                         _______ _______ _______ _____ _____    ______ ____
ROOT
ATOM      1  C   LIG    1        1.062   1.893   0.002  0.00  0.00    -0.020 A 
ATOM      2  C   LIG    1       -0.013   1.076   0.008  0.00  0.00    +0.150 A 
ATOM      3  N   LIG    1       -1.124   1.874   0.017  0.00  0.00    -0.400 N 
ATOM      4  C   LIG    1       -2.461   1.600   0.034  0.00  0.00    +0.300 A 
ATOM      5  C   LIG    1       -3.344   2.628   0.047  0.00  0.00    +0.000 A 
ATOM      6  C   LIG    1       -2.865   3.945   0.049  0.00  0.00    +0.400 A 
ATOM      7  N   LIG    1       -1.574   4.182   0.038  0.00  0.00    -0.440 NA
ATOM      8  C   LIG    1       -0.689   3.174   0.025  0.00  0.00    +0.400 A 
ATOM      9  N   LIG    1        0.636   3.159   0.013  0.00  0.00    -0.460 NA
ENDROOT
BRANCH   1  10
ATOM     10  C   LIG    1        2.503   1.450  -0.014  0.00  0.00    +0.400 C 
BRANCH  10  11
ATOM     11  N   LIG    1        2.993   1.429  -1.399  0.00  0.00    -0.640 N 
ATOM     12  H   LIG    1        3.957   1.133  -1.410  0.00  0.00    +0.440 HD
ATOM     13  H   LIG    1        2.921   2.354  -1.795  0.00  0.00    +0.440 HD
ATOM     14  H   LIG    1        2.437   0.786  -1.943  0.00  0.00    +0.430 HD
ENDBRANCH  10  11
ENDBRANCH   1  10
TORSDOF 2
