REMARK  Name = ZINCah000000015g.0
REMARK                            x       y       z     vdW  Elec       q    Type
REMARK                         _______ _______ _______ _____ _____    ______ ____
ROOT
ATOM      1  O   LIG    1        3.976   2.285   0.478  0.00  0.00    -0.510 OA
ATOM      2  C   LIG    1        3.520   1.371   1.133  0.00  0.00    +0.500 C 
ATOM      3  N   LIG    1        2.235   1.000   0.969  0.00  0.00    -0.730 N 
ATOM      4  H   LIG    1        1.870   0.270   1.492  0.00  0.00    +0.400 HD
ENDROOT
BRANCH   2   5
ATOM      5  C   LIG    1        4.390   0.652   2.132  0.00  0.00    +0.170 C 
ATOM      6 CL   LIG    1        6.042   1.375   2.120  0.00  0.00    -0.130 Cl
ENDBRANCH   2   5
BRANCH   3   7
ATOM      7  C   LIG    1        1.389   1.699  -0.002  0.00  0.00    +0.270 C 
BRANCH   7   8
ATOM      8  C   LIG    1       -0.013   1.086   0.008  0.00  0.00    -0.030 C 
ATOM      9  C   LIG    1       -0.939   1.683   1.080  0.00  0.00    +0.010 C 
ATOM     10  C   LIG    1       -2.063   1.621   0.029  0.00  0.00    +0.010 C 
ATOM     11  C   LIG    1       -0.959   1.695  -1.040  0.00  0.00    +0.030 C 
ENDBRANCH   7   8
ENDBRANCH   3   7
TORSDOF 3
