REMARK  Name = ZINCvU00000003VF.0
REMARK                            x       y       z     vdW  Elec       q    Type
REMARK                         _______ _______ _______ _____ _____    ______ ____
ROOT
ATOM      1  C   LIG    1        1.185  -0.514  -0.012  0.00  0.00    +0.160 C 
ATOM      2  N   LIG    1        0.002  -0.004   0.002  0.00  0.00    -0.240 NA
ATOM      3  N   LIG    1       -0.017   1.389   0.010  0.00  0.00    -0.460 N 
ATOM      4  C   LIG    1        1.369   1.884  -0.001  0.00  0.00    +0.330 C 
ATOM      5  C   LIG    1       -1.124   2.158   0.019  0.00  0.00    +0.580 C 
ATOM      6  O   LIG    1       -1.022   3.367   0.025  0.00  0.00    -0.490 OA
ATOM      7  C   LIG    1        2.213   0.594  -0.016  0.00  0.00    +0.100 C 
ENDROOT
BRANCH   1  11
ATOM      8  C   LIG    1        2.061  -4.668  -0.042  0.00  0.00    +0.150 A 
ATOM      9  C   LIG    1        0.740  -4.239  -0.027  0.00  0.00    -0.020 A 
ATOM     10  C   LIG    1        0.451  -2.892  -0.017  0.00  0.00    +0.100 A 
ATOM     11  C   LIG    1        1.489  -1.957  -0.022  0.00  0.00    -0.080 A 
ATOM     12  C   LIG    1        2.816  -2.393  -0.043  0.00  0.00    +0.090 A 
ATOM     13  C   LIG    1        3.096  -3.743  -0.047  0.00  0.00    -0.070 A 
BRANCH   8  15
ATOM     14  C   LIG    1        3.720  -6.370  -0.067  0.00  0.00    +0.240 C 
ATOM     15  O   LIG    1        2.341  -5.998  -0.052  0.00  0.00    -0.310 OA
ENDBRANCH   8  15
ENDBRANCH   1  11
BRANCH   4  16
ATOM     16  C   LIG    1        1.654   2.690   1.240  0.00  0.00    -0.030 A 
ATOM     17  C   LIG    1        2.401   3.807   1.298  0.00  0.00    -0.030 A 
ATOM     18  C   LIG    1        2.400   4.230   2.647  0.00  0.00    -0.060 A 
ATOM     19  C   LIG    1        1.659   3.342   3.334  0.00  0.00    +0.170 A 
ATOM     20  O   LIG    1        1.210   2.411   2.477  0.00  0.00    -0.170 OA
ENDBRANCH   4  16
BRANCH   5  21
ATOM     21  C   LIG    1       -2.487   1.516   0.023  0.00  0.00    +0.090 C 
BRANCH  21  22
ATOM     22  S   LIG    1       -3.763   2.806   0.036  0.00  0.00    -0.010 S 
BRANCH  22  23
ATOM     23  C   LIG    1       -5.262   1.881   0.039  0.00  0.00    -0.130 A 
ATOM     24  C   LIG    1       -5.222   0.493   0.026  0.00  0.00    +0.060 A 
ATOM     25  C   LIG    1       -6.398  -0.232   0.033  0.00  0.00    -0.040 A 
ATOM     26  C   LIG    1       -7.619   0.426   0.043  0.00  0.00    +0.140 A 
ATOM     27  C   LIG    1       -7.661   1.812   0.051  0.00  0.00    +0.030 A 
ATOM     28  C   LIG    1       -6.486   2.539   0.049  0.00  0.00    +0.020 A 
ATOM     29 CL   LIG    1       -6.539   4.275   0.058  0.00  0.00    -0.040 Cl
BRANCH  26  30
ATOM     30  O   LIG    1       -8.776  -0.289   0.045  0.00  0.00    -0.310 OA
ATOM     31  C   LIG    1       -8.659  -1.713   0.037  0.00  0.00    +0.240 C 
ENDBRANCH  26  30
ENDBRANCH  22  23
ENDBRANCH  21  22
ENDBRANCH   5  21
TORSDOF 7
