REMARK  Name = ZINCrH000004r4wo.0
REMARK                            x       y       z     vdW  Elec       q    Type
REMARK                         _______ _______ _______ _____ _____    ______ ____
ROOT
ATOM      1  C   LIG    1       -7.037   3.626  -1.751  0.00  0.00    +0.570 C 
ATOM      2  N   LIG    1       -5.814   3.121  -1.498  0.00  0.00    -0.710 N 
ATOM      3  H   LIG    1       -5.621   2.192  -1.700  0.00  0.00    +0.410 HD
ATOM      4  O   LIG    1       -7.279   4.790  -1.498  0.00  0.00    -0.530 OA
ENDROOT
BRANCH   1   9
ATOM      5  C   LIG    1      -11.114   0.259  -4.033  0.00  0.00    +0.110 C 
ATOM      6  C   LIG    1      -10.048   1.141  -3.436  0.00  0.00    -0.050 A 
ATOM      7  C   LIG    1       -8.793   0.625  -3.176  0.00  0.00    +0.030 A 
ATOM      8  C   LIG    1       -7.810   1.429  -2.634  0.00  0.00    +0.060 A 
ATOM      9  C   LIG    1       -8.086   2.764  -2.337  0.00  0.00    -0.130 A 
ATOM     10  C   LIG    1       -9.354   3.284  -2.600  0.00  0.00    +0.100 A 
ATOM     11  C   LIG    1      -10.332   2.471  -3.149  0.00  0.00    +0.110 A 
BRANCH  11  12
ATOM     12  N   LIG    1      -11.607   2.989  -3.415  0.00  0.00    -0.400 N 
ATOM     13  C   LIG    1      -12.282   2.875  -4.597  0.00  0.00    +0.150 A 
ATOM     14  C   LIG    1      -13.471   3.498  -4.465  0.00  0.00    -0.050 A 
ATOM     15  C   LIG    1      -13.530   4.023  -3.158  0.00  0.00    -0.050 A 
ATOM     16  C   LIG    1      -12.378   3.697  -2.538  0.00  0.00    +0.150 A 
ENDBRANCH  11  12
ENDBRANCH   1   9
BRANCH   2  17
ATOM     17  C   LIG    1       -4.774   3.975  -0.918  0.00  0.00    +0.320 C 
BRANCH  17  18
ATOM     18  C   LIG    1       -3.510   3.175  -0.736  0.00  0.00    +0.510 C 
ATOM     19  N   LIG    1       -2.413   3.758  -0.214  0.00  0.00    -0.670 N 
ATOM     20  H   LIG    1       -2.457   4.672   0.109  0.00  0.00    +0.410 HD
ATOM     21  O   LIG    1       -3.481   2.006  -1.059  0.00  0.00    -0.520 OA
BRANCH  19  22
ATOM     22  C   LIG    1       -1.211   3.046  -0.138  0.00  0.00    +0.130 A 
ATOM     23  C   LIG    1       -0.567   2.643  -1.301  0.00  0.00    -0.070 A 
ATOM     24  C   LIG    1        0.617   1.936  -1.222  0.00  0.00    +0.010 A 
ATOM     25  C   LIG    1        1.166   1.638   0.011  0.00  0.00    +0.020 A 
ATOM     26  C   LIG    1        0.529   2.041   1.170  0.00  0.00    +0.010 A 
ATOM     27  C   LIG    1       -1.161   2.972  -2.646  0.00  0.00    +0.090 C 
ATOM     28  C   LIG    1       -0.658   2.744   1.099  0.00  0.00    -0.080 A 
ATOM     29  C   LIG    1       -1.351   3.184   2.363  0.00  0.00    +0.080 C 
ENDBRANCH  19  22
ENDBRANCH  17  18
ENDBRANCH   2  17
TORSDOF 5
