REMARK  Name = ZINC650000002zS2.1
REMARK                            x       y       z     vdW  Elec       q    Type
REMARK                         _______ _______ _______ _____ _____    ______ ____
ROOT
ATOM      1  C   LIG    1       -2.740   1.623   2.581  0.00  0.00    +0.360 C 
ENDROOT
BRANCH   1   2
ATOM      2  N   LIG    1       -4.103   1.079   2.525  0.00  0.00    -0.620 N 
ATOM      3  H   LIG    1       -4.063   0.071   2.504  0.00  0.00    +0.440 HD
ATOM      4  H   LIG    1       -4.565   1.414   1.692  0.00  0.00    +0.440 HD
ATOM      5  H   LIG    1       -4.619   1.379   3.338  0.00  0.00    +0.450 HD
ENDBRANCH   1   2
BRANCH   1   6
ATOM      6  C   LIG    1       -1.970   1.175   1.365  0.00  0.00    +0.450 C 
ATOM      7  O   LIG    1       -2.502   0.475   0.537  0.00  0.00    -0.490 OA
BRANCH   6   9
ATOM      8  C   LIG    1       -0.013   1.086   0.008  0.00  0.00    +0.310 C 
ATOM      9  O   LIG    1       -0.692   1.554   1.203  0.00  0.00    -0.340 OA
ENDBRANCH   6   9
ENDBRANCH   1   6
TORSDOF 3
