REMARK  Name = ZINC650000002zS2.0
REMARK                            x       y       z     vdW  Elec       q    Type
REMARK                         _______ _______ _______ _____ _____    ______ ____
ROOT
ATOM      1  C   LIG    1       -0.166   1.194   2.384  0.00  0.00    +0.460 C 
ATOM      2  O   LIG    1        0.829   0.510   2.418  0.00  0.00    -0.490 OA
ENDROOT
BRANCH   1   4
ATOM      3  C   LIG    1       -0.013   1.086   0.008  0.00  0.00    +0.260 C 
ATOM      4  O   LIG    1       -0.692   1.554   1.203  0.00  0.00    -0.360 OA
ENDBRANCH   1   4
BRANCH   1   5
ATOM      5  C   LIG    1       -0.817   1.643   3.667  0.00  0.00    +0.260 C 
BRANCH   5   6
ATOM      6  N   LIG    1       -0.056   1.121   4.810  0.00  0.00    -0.840 NA
ATOM      7  H   LIG    1        0.026   0.117   4.762  0.00  0.00    +0.350 HD
ATOM      8  H   LIG    1       -0.473   1.409   5.683  0.00  0.00    +0.360 HD
ENDBRANCH   5   6
ENDBRANCH   1   5
TORSDOF 3
