REMARK  Name = ZINCnE000001FOiq.0
REMARK                            x       y       z     vdW  Elec       q    Type
REMARK                         _______ _______ _______ _____ _____    ______ ____
ROOT
ATOM      1  C   LIG    1        2.071   2.985   2.567  0.00  0.00    +0.060 C 
ATOM      2  C   LIG    1        1.904   3.509   1.331  0.00  0.00    +0.010 C 
ENDROOT
BRANCH   2   3
ATOM      3  C   LIG    1        2.878   4.462   0.804  0.00  0.00    +0.320 A 
ATOM      4  N   LIG    1        2.814   5.031  -0.379  0.00  0.00    -0.460 NA
ATOM      5  C   LIG    1        3.882   5.854  -0.526  0.00  0.00    +0.040 A 
ATOM      6  C   LIG    1        4.319   6.693  -1.555  0.00  0.00    +0.070 A 
ATOM      7  C   LIG    1        5.477   7.421  -1.397  0.00  0.00    +0.010 A 
ATOM      8  C   LIG    1        6.212   7.327  -0.225  0.00  0.00    +0.030 A 
ATOM      9  C   LIG    1        5.793   6.502   0.800  0.00  0.00    +0.040 A 
ATOM     10  C   LIG    1        4.631   5.762   0.660  0.00  0.00    -0.000 A 
ATOM     11  O   LIG    1        3.973   4.894   1.462  0.00  0.00    -0.220 OA
ENDBRANCH   2   3
BRANCH   1  16
ATOM     12  N   LIG    1        1.051   1.498   4.363  0.00  0.00    -0.460 N 
ATOM     13  C   LIG    1       -0.175   0.979   4.575  0.00  0.00    +0.380 A 
ATOM     14  N   LIG    1       -0.976   1.348   3.610  0.00  0.00    -0.490 NA
ATOM     15  C   LIG    1       -0.311   2.112   2.740  0.00  0.00    +0.220 A 
ATOM     16  C   LIG    1        0.984   2.233   3.196  0.00  0.00    -0.000 A 
BRANCH  12  17
ATOM     17  C   LIG    1        2.230   1.321   5.214  0.00  0.00    +0.290 C 
BRANCH  17  19
ATOM     18  C   LIG    1        3.623   2.369   7.004  0.00  0.00    +0.030 C 
ATOM     19  C   LIG    1        2.328   2.487   6.200  0.00  0.00    +0.000 C 
ENDBRANCH  17  19
ENDBRANCH  12  17
ENDBRANCH   1  16
BRANCH   2  20
ATOM     20  C   LIG    1        0.714   3.109   0.498  0.00  0.00    -0.000 C 
BRANCH  20  21
ATOM     21  C   LIG    1       -0.398   4.107   0.699  0.00  0.00    +0.500 C 
ATOM     22  O   LIG    1       -1.485   3.921   0.180  0.00  0.00    -0.690 OA
ATOM     23  O   LIG    1       -0.210   5.100   1.381  0.00  0.00    -0.680 OA
ENDBRANCH  20  21
ENDBRANCH   2  20
TORSDOF 6
