REMARK  Name = ZINCpe000000UxNW.0
REMARK                            x       y       z     vdW  Elec       q    Type
REMARK                         _______ _______ _______ _____ _____    ______ ____
ROOT
ATOM      1  C   LIG    1       -1.033   6.651   0.560  0.00  0.00    +0.570 C 
ATOM      2  N   LIG    1        0.197   6.250   0.938  0.00  0.00    -0.720 N 
ATOM      3  H   LIG    1        0.514   6.438   1.835  0.00  0.00    +0.400 HD
ATOM      4  O   LIG    1       -1.431   6.415  -0.565  0.00  0.00    -0.470 OA
ENDROOT
BRANCH   2   5
ATOM      5  C   LIG    1        1.056   5.531  -0.007  0.00  0.00    +0.280 C 
ATOM      6  C   LIG    1        2.522   5.742   0.378  0.00  0.00    +0.040 C 
ATOM      7  C   LIG    1        3.383   4.771  -0.439  0.00  0.00    +0.050 C 
ATOM      8  C   LIG    1        3.081   3.344   0.026  0.00  0.00    +0.270 C 
ATOM      9  N   LIG    1        1.644   3.102   0.022  0.00  0.00    -0.550 N 
ATOM     10  C   LIG    1        0.723   4.067   0.032  0.00  0.00    +0.500 C 
ATOM     11  O   LIG    1       -0.446   3.744   0.074  0.00  0.00    -0.500 OA
BRANCH   9  12
ATOM     12  C   LIG    1        1.204   1.779   0.014  0.00  0.00    +0.300 A 
ATOM     13  C   LIG    1        1.042   0.978   1.103  0.00  0.00    -0.100 A 
ATOM     14  C   LIG    1        0.586  -0.265   0.656  0.00  0.00    +0.240 A 
ATOM     15  N   LIG    1        0.477  -0.219  -0.647  0.00  0.00    -0.280 NA
ATOM     16  N   LIG    1        0.860   1.057  -1.077  0.00  0.00    -0.370 N 
ATOM     17  C   LIG    1        0.884   1.528  -2.464  0.00  0.00    +0.350 C 
ENDBRANCH   9  12
ENDBRANCH   2   5
BRANCH   1  23
ATOM     18  C   LIG    1       -3.220   7.702   1.169  0.00  0.00    +0.350 A 
ATOM     19  N   LIG    1       -3.993   8.348   2.028  0.00  0.00    -0.520 NA
ATOM     20  C   LIG    1       -3.554   8.713   3.217  0.00  0.00    +0.300 A 
ATOM     21  C   LIG    1       -2.263   8.431   3.623  0.00  0.00    -0.040 A 
ATOM     22  C   LIG    1       -1.412   7.753   2.768  0.00  0.00    +0.100 A 
ATOM     23  C   LIG    1       -1.897   7.375   1.510  0.00  0.00    -0.160 A 
BRANCH  18  25
ATOM     24  C   LIG    1       -4.946   6.547   0.067  0.00  0.00    +0.220 C 
ATOM     25  N   LIG    1       -3.719   7.343  -0.070  0.00  0.00    -0.480 N 
ATOM     26  C   LIG    1       -3.952   8.528  -0.907  0.00  0.00    +0.230 C 
ENDBRANCH  18  25
ENDBRANCH   1  23
TORSDOF 4
