REMARK  Name = ZINCqH0000036th1.0
REMARK                            x       y       z     vdW  Elec       q    Type
REMARK                         _______ _______ _______ _____ _____    ______ ____
ROOT
ATOM      1  C   LIG    1        1.730   5.731   0.015  0.00  0.00    +0.560 C 
ATOM      2  N   LIG    1        1.997   4.410   0.005  0.00  0.00    -0.620 N 
ATOM      3  H   LIG    1        2.916   4.101  -0.005  0.00  0.00    +0.420 HD
ATOM      4  O   LIG    1        0.578   6.119   0.028  0.00  0.00    -0.490 OA
ENDROOT
BRANCH   1   9
ATOM      5  C   LIG    1        3.607   8.985   0.012  0.00  0.00    -0.670 A 
ATOM      6  C   LIG    1        4.917   8.540  -0.003  0.00  0.00    +0.160 A 
ATOM      7  C   LIG    1        5.193   7.184  -0.013  0.00  0.00    +0.010 A 
ATOM      8  C   LIG    1        4.163   6.267  -0.001  0.00  0.00    +0.110 A 
ATOM      9  C   LIG    1        2.839   6.709   0.009  0.00  0.00    -0.160 A 
ATOM     10  C   LIG    1        2.567   8.078   0.018  0.00  0.00    +0.200 A 
BRANCH   5  12
ATOM     11  C   LIG    1        3.195  11.149   1.783  0.00  0.00    -0.250 C 
ATOM     12  S   LIG    1        3.265  10.713   0.024  0.00  0.00    +2.500 S 
ATOM     13  O   LIG    1        1.978  10.820  -0.569  0.00  0.00    -0.930 OA
ATOM     14  O   LIG    1        4.405  11.300  -0.590  0.00  0.00    -0.930 OA
ENDBRANCH   5  12
ENDBRANCH   1   9
BRANCH   2  15
ATOM     15  C   LIG    1        0.955   3.492   0.011  0.00  0.00    +0.270 A 
ATOM     16  N   LIG    1        1.093   2.203   0.004  0.00  0.00    -0.500 NA
ATOM     17  C   LIG    1       -0.018   1.479   0.010  0.00  0.00    +0.120 A 
ATOM     18  C   LIG    1       -1.165   2.182   0.019  0.00  0.00    -0.100 A 
ATOM     19  S   LIG    1       -0.759   3.897   0.029  0.00  0.00    +0.230 S 
BRANCH  17  20
ATOM     20  C   LIG    1        0.002  -0.004   0.002  0.00  0.00    -0.000 A 
ATOM     21  C   LIG    1       -1.194  -0.719   0.015  0.00  0.00    +0.060 A 
ATOM     22  C   LIG    1       -1.172  -2.099   0.002  0.00  0.00    +0.030 A 
ATOM     23  C   LIG    1        0.037  -2.775  -0.012  0.00  0.00    +0.070 A 
ATOM     24  C   LIG    1        1.231  -2.068  -0.020  0.00  0.00    +0.070 A 
ATOM     25  F   LIG    1        2.408  -2.731  -0.035  0.00  0.00    -0.130 F 
ATOM     26  F   LIG    1        0.053  -4.126  -0.019  0.00  0.00    -0.130 F 
ATOM     27  C   LIG    1        1.218  -0.686  -0.013  0.00  0.00    +0.050 A 
ENDBRANCH  17  20
ENDBRANCH   2  15
TORSDOF 4
