REMARK  Name = ZINCqH0000007A6x.0
REMARK                            x       y       z     vdW  Elec       q    Type
REMARK                         _______ _______ _______ _____ _____    ______ ____
ROOT
ATOM      1  C   LIG    1       -2.501   1.012  -0.024  0.00  0.00    +0.510 C 
ATOM      2  O   LIG    1       -2.487  -0.202  -0.069  0.00  0.00    -0.480 OA
ENDROOT
BRANCH   1   3
ATOM      3  C   LIG    1       -1.231   1.767  -0.026  0.00  0.00    -0.120 A 
ATOM      4  C   LIG    1       -0.012   1.088  -0.080  0.00  0.00    +0.090 A 
ATOM      5  C   LIG    1        1.170   1.799  -0.087  0.00  0.00    +0.030 A 
ATOM      6  C   LIG    1        1.150   3.181  -0.036  0.00  0.00    -0.070 A 
ATOM      7  C   LIG    1       -0.054   3.860   0.023  0.00  0.00    +0.030 A 
ATOM      8  C   LIG    1       -1.244   3.162   0.031  0.00  0.00    +0.080 A 
BRANCH   6   9
ATOM      9  C   LIG    1        2.445   3.951  -0.045  0.00  0.00    +0.310 C 
BRANCH   9  10
ATOM     10  N   LIG    1        2.825   4.251  -1.428  0.00  0.00    -0.730 N 
ATOM     11  H   LIG    1        2.262   3.956  -2.160  0.00  0.00    +0.400 HD
ATOM     12  C   LIG    1        3.957   4.937  -1.682  0.00  0.00    +0.510 C 
ATOM     13  O   LIG    1        4.661   5.306  -0.766  0.00  0.00    -0.540 OA
ATOM     14  C   LIG    1        4.348   5.246  -3.104  0.00  0.00    +0.110 C 
ENDBRANCH   9  10
ENDBRANCH   6   9
ENDBRANCH   1   3
BRANCH   1  15
ATOM     15  O   LIG    1       -3.675   1.671   0.029  0.00  0.00    -0.290 OA
BRANCH  15  20
ATOM     16  C   LIG    1       -8.528  -0.672  -2.633  0.00  0.00    +0.130 A 
ATOM     17  C   LIG    1       -7.396   0.088  -2.563  0.00  0.00    -0.010 A 
ATOM     18  C   LIG    1       -6.663   0.133  -1.365  0.00  0.00    -0.000 A 
ATOM     19  C   LIG    1       -5.497   0.907  -1.254  0.00  0.00    +0.030 A 
ATOM     20  C   LIG    1       -4.806   0.924  -0.076  0.00  0.00    +0.100 A 
ATOM     21  C   LIG    1       -5.251   0.188   1.026  0.00  0.00    +0.000 A 
ATOM     22  C   LIG    1       -6.379  -0.568   0.953  0.00  0.00    +0.070 A 
ATOM     23  C   LIG    1       -7.112  -0.613  -0.246  0.00  0.00    -0.080 A 
ATOM     24  C   LIG    1       -8.282  -1.384  -0.354  0.00  0.00    +0.080 A 
ATOM     25  C   LIG    1       -8.969  -1.407  -1.528  0.00  0.00    -0.060 A 
BRANCH  16  27
ATOM     26  C   LIG    1      -10.412  -1.527  -3.805  0.00  0.00    +0.240 C 
ATOM     27  O   LIG    1       -9.236  -0.715  -3.792  0.00  0.00    -0.320 OA
ENDBRANCH  16  27
ENDBRANCH  15  20
ENDBRANCH   1  15
TORSDOF 6
