REMARK  Name = ZINCpk00000eakgR.0
REMARK                            x       y       z     vdW  Elec       q    Type
REMARK                         _______ _______ _______ _____ _____    ______ ____
ROOT
ATOM      1  C   LIG    1       -1.572   0.800  -1.328  0.00  0.00    +0.170 C 
ATOM      2  C   LIG    1       -2.789   0.556  -0.397  0.00  0.00    +0.090 C 
ATOM      3  C   LIG    1       -2.262   1.001   0.984  0.00  0.00    +0.330 C 
ATOM      4  N   LIG    1       -0.792   0.930   0.936  0.00  0.00    -0.590 N 
ATOM      5  C   LIG    1        0.046   1.257   1.939  0.00  0.00    +0.590 C 
ATOM      6  O   LIG    1        1.247   1.272   1.747  0.00  0.00    -0.520 OA
ATOM      7  C   LIG    1       -0.389   0.440  -0.395  0.00  0.00    +0.270 C 
ENDROOT
BRANCH   3   8
ATOM      8  C   LIG    1       -2.788   0.079   2.054  0.00  0.00    +0.120 A 
ATOM      9  N   LIG    1       -2.240  -1.046   2.443  0.00  0.00    -0.220 NA
ATOM     10  N   LIG    1       -2.946  -1.585   3.376  0.00  0.00    -0.250 NA
ATOM     11  C   LIG    1       -3.992  -0.819   3.630  0.00  0.00    +0.140 A 
ATOM     12  C   LIG    1       -5.077  -0.898   4.524  0.00  0.00    +0.410 A 
ATOM     13  N   LIG    1       -5.970   0.061   4.545  0.00  0.00    -0.440 NA
ATOM     14  C   LIG    1       -5.884   1.111   3.724  0.00  0.00    +0.250 A 
ATOM     15  C   LIG    1       -4.867   1.233   2.845  0.00  0.00    +0.200 A 
ATOM     16  N   LIG    1       -3.903   0.266   2.788  0.00  0.00    -0.370 N 
ENDBRANCH   3   8
BRANCH   5  17
ATOM     17  C   LIG    1       -0.494   1.599   3.272  0.00  0.00    -0.170 A 
ATOM     18  C   LIG    1       -1.847   1.898   3.433  0.00  0.00    +0.250 A 
ATOM     19  N   LIG    1       -2.328   2.202   4.621  0.00  0.00    -0.480 NA
ATOM     20  C   LIG    1       -1.563   2.237   5.695  0.00  0.00    +0.280 A 
ATOM     21  C   LIG    1       -0.211   1.953   5.618  0.00  0.00    -0.140 A 
ATOM     22  C   LIG    1        0.648   1.997   6.856  0.00  0.00    +0.110 C 
ATOM     23  C   LIG    1        0.343   1.622   4.394  0.00  0.00    +0.130 A 
ENDBRANCH   5  17
BRANCH   1  25
ATOM     24  C   LIG    1       -0.791   2.377  -2.956  0.00  0.00    +0.220 C 
ATOM     25  O   LIG    1       -1.504   2.168  -1.735  0.00  0.00    -0.370 OA
ENDBRANCH   1  25
TORSDOF 3
