REMARK  Name = ZINCvU0000000AFe.0
REMARK                            x       y       z     vdW  Elec       q    Type
REMARK                         _______ _______ _______ _____ _____    ______ ____
ROOT
ATOM      1  O   LIG    1        4.136   5.137   0.931  0.00  0.00    -0.460 OA
ATOM      2  C   LIG    1        3.155   4.508   0.595  0.00  0.00    +0.530 C 
ATOM      3  N   LIG    1        3.296   3.292   0.030  0.00  0.00    -0.550 N 
ATOM      4  C   LIG    1        2.208   2.415   0.049  0.00  0.00    +0.160 A 
ATOM      5  C   LIG    1        1.185   2.664   0.961  0.00  0.00    -0.020 A 
ATOM      6  C   LIG    1        0.077   1.842   1.012  0.00  0.00    +0.050 A 
ATOM      7  C   LIG    1       -0.028   0.764   0.152  0.00  0.00    +0.010 A 
ATOM      8  C   LIG    1        0.984   0.502  -0.750  0.00  0.00    +0.060 A 
ATOM      9  C   LIG    1        2.104   1.323  -0.806  0.00  0.00    -0.120 A 
ATOM     10  S   LIG    1        3.379   0.946  -1.965  0.00  0.00    -0.100 S 
ATOM     11  C   LIG    1        4.330   2.493  -2.023  0.00  0.00    +0.110 C 
ATOM     12  C   LIG    1        4.578   2.947  -0.577  0.00  0.00    +0.280 C 
ENDROOT
BRANCH  12  13
ATOM     13  C   LIG    1        5.481   4.153  -0.570  0.00  0.00    -0.060 A 
ATOM     14  C   LIG    1        5.277   5.176  -1.477  0.00  0.00    +0.000 A 
ATOM     15  C   LIG    1        6.103   6.284  -1.468  0.00  0.00    +0.010 A 
ATOM     16  C   LIG    1        7.139   6.366  -0.557  0.00  0.00    +0.010 A 
ATOM     17  C   LIG    1        7.347   5.341   0.347  0.00  0.00    +0.010 A 
ATOM     18  C   LIG    1        6.518   4.234   0.341  0.00  0.00    +0.040 A 
ENDBRANCH  12  13
BRANCH   2  19
ATOM     19  C   LIG    1        1.779   5.085   0.808  0.00  0.00    +0.100 C 
BRANCH  19  20
ATOM     20  S   LIG    1        1.861   6.890   0.715  0.00  0.00    +0.080 S 
BRANCH  20  21
ATOM     21  C   LIG    1        0.167   7.288   0.992  0.00  0.00    +0.140 A 
ATOM     22  N   LIG    1       -0.812   6.437   1.194  0.00  0.00    -0.280 NA
ATOM     23  N   LIG    1       -1.916   7.073   1.362  0.00  0.00    -0.280 NA
ATOM     24  C   LIG    1       -1.711   8.357   1.271  0.00  0.00    +0.230 A 
ATOM     25  N   LIG    1       -0.377   8.540   1.031  0.00  0.00    -0.430 N 
BRANCH  24  26
ATOM     26  C   LIG    1       -2.752   9.439   1.404  0.00  0.00    +0.040 C 
ATOM     27  C   LIG    1       -4.148   9.023   1.871  0.00  0.00    +0.070 C 
ATOM     28  C   LIG    1       -3.917   9.424   0.412  0.00  0.00    +0.050 C 
ENDBRANCH  24  26
BRANCH  25  29
ATOM     29  C   LIG    1        0.323   9.815   0.854  0.00  0.00    +0.200 C 
ATOM     30  C   LIG    1        1.721   9.773   0.235  0.00  0.00    +0.070 C 
ATOM     31  C   LIG    1        1.553  10.072   1.726  0.00  0.00    +0.060 C 
ENDBRANCH  25  29
ENDBRANCH  20  21
ENDBRANCH  19  20
ENDBRANCH   2  19
TORSDOF 6
