REMARK  Name = ZINCpe000000UTJ7.0
REMARK                            x       y       z     vdW  Elec       q    Type
REMARK                         _______ _______ _______ _____ _____    ______ ____
ROOT
ATOM      1  N   LIG    1       -0.232   7.991   2.859  0.00  0.00    -0.500 NA
ATOM      2  C   LIG    1       -0.901   7.448   4.049  0.00  0.00    +0.180 C 
ATOM      3  C   LIG    1        0.056   6.500   4.781  0.00  0.00    +0.300 C 
ATOM      4  N   LIG    1        0.538   5.493   3.825  0.00  0.00    -0.610 N 
ATOM      5  C   LIG    1        1.103   5.958   2.549  0.00  0.00    +0.280 C 
ATOM      6  C   LIG    1        0.469   4.178   4.112  0.00  0.00    +0.520 C 
ATOM      7  O   LIG    1        0.004   3.812   5.171  0.00  0.00    -0.530 OA
ATOM      8  C   LIG    1        0.101   6.927   1.902  0.00  0.00    +0.180 C 
ENDROOT
BRANCH   1   9
ATOM      9  C   LIG    1       -1.050   9.033   2.224  0.00  0.00    +0.180 C 
ATOM     10  C   LIG    1       -0.394   9.466   0.911  0.00  0.00    +0.080 C 
BRANCH   9  17
ATOM     11  C   LIG    1       -7.115   9.139   1.346  0.00  0.00    +0.300 C 
ATOM     12  N   LIG    1       -5.776   9.668   1.620  0.00  0.00    -0.740 N 
ATOM     13  H   LIG    1       -5.652  10.617   1.775  0.00  0.00    +0.400 HD
ATOM     14  C   LIG    1       -4.717   8.835   1.656  0.00  0.00    +0.690 C 
ATOM     15  N   LIG    1       -3.486   9.322   1.907  0.00  0.00    -0.690 N 
ATOM     16  H   LIG    1       -3.361  10.271   2.062  0.00  0.00    +0.410 HD
ATOM     17  C   LIG    1       -2.426   8.489   1.943  0.00  0.00    +0.490 C 
ATOM     18  O   LIG    1       -2.582   7.302   1.749  0.00  0.00    -0.460 OA
ATOM     19  O   LIG    1       -4.872   7.646   1.461  0.00  0.00    -0.530 OA
ENDBRANCH   9  17
ENDBRANCH   1   9
BRANCH   6  20
ATOM     20  C   LIG    1        0.969   3.162   3.117  0.00  0.00    +0.110 C 
BRANCH  20  21
ATOM     21  C   LIG    1        0.780   1.775   3.677  0.00  0.00    -0.060 A 
ATOM     22  C   LIG    1        1.819   1.150   4.340  0.00  0.00    +0.030 A 
ATOM     23  C   LIG    1        1.645  -0.122   4.853  0.00  0.00    +0.020 A 
ATOM     24  C   LIG    1        0.433  -0.769   4.703  0.00  0.00    +0.020 A 
ATOM     25  C   LIG    1       -0.607  -0.144   4.040  0.00  0.00    +0.020 A 
ATOM     26  C   LIG    1       -0.434   1.129   3.526  0.00  0.00    -0.020 A 
ATOM     27 CL   LIG    1       -1.737   1.911   2.688  0.00  0.00    -0.060 Cl
ENDBRANCH  20  21
ENDBRANCH   6  20
TORSDOF 4
