REMARK  Name = ZINCpe00000VVGyp.0
REMARK                            x       y       z     vdW  Elec       q    Type
REMARK                         _______ _______ _______ _____ _____    ______ ____
ROOT
ATOM      1  C   LIG    1       -2.267   3.158   2.004  0.00  0.00    +0.380 C 
ATOM      2  O   LIG    1       -2.977   4.106   1.766  0.00  0.00    -0.380 OA
ENDROOT
BRANCH   1   8
ATOM      3  C   LIG    1       -2.613   0.860  -2.195  0.00  0.00    +0.530 C 
ATOM      4  N   LIG    1       -1.944   1.796  -1.492  0.00  0.00    -0.610 N 
ATOM      5  C   LIG    1       -0.560   2.146  -1.839  0.00  0.00    +0.270 C 
ATOM      6  C   LIG    1        0.312   2.010  -0.586  0.00  0.00    +0.030 C 
ATOM      7  C   LIG    1       -0.286   2.856   0.541  0.00  0.00    +0.040 C 
ATOM      8  C   LIG    1       -1.691   2.346   0.872  0.00  0.00    -0.030 C 
ATOM      9  C   LIG    1       -2.586   2.485  -0.364  0.00  0.00    +0.300 C 
ATOM     10  O   LIG    1       -3.715   0.505  -1.836  0.00  0.00    -0.530 OA
BRANCH   3  12
ATOM     11  C   LIG    1       -3.019  -0.624  -4.139  0.00  0.00    +0.050 C 
ATOM     12  C   LIG    1       -1.991   0.257  -3.428  0.00  0.00    -0.090 C 
ATOM     13  C   LIG    1       -0.783  -0.592  -3.026  0.00  0.00    +0.050 C 
ATOM     14  C   LIG    1       -1.538   1.374  -4.370  0.00  0.00    +0.040 C 
ENDBRANCH   3  12
ENDBRANCH   1   8
BRANCH   1  15
ATOM     15  C   LIG    1       -1.957   2.788   3.431  0.00  0.00    +0.100 C 
BRANCH  15  16
ATOM     16  C   LIG    1       -3.113   3.181   4.315  0.00  0.00    +0.530 C 
ATOM     17  N   LIG    1       -3.058   2.945   5.640  0.00  0.00    -0.610 N 
ATOM     18  C   LIG    1       -1.883   2.299   6.247  0.00  0.00    +0.240 C 
ATOM     19  C   LIG    1       -1.429   3.155   7.440  0.00  0.00    +0.220 C 
ATOM     20  O   LIG    1       -2.544   3.384   8.305  0.00  0.00    -0.370 OA
ATOM     21  C   LIG    1       -3.610   4.121   7.702  0.00  0.00    +0.220 C 
ATOM     22  C   LIG    1       -4.174   3.320   6.523  0.00  0.00    +0.280 C 
ATOM     23  O   LIG    1       -4.092   3.710   3.833  0.00  0.00    -0.490 OA
ENDBRANCH  15  16
BRANCH  15  24
ATOM     24  C   LIG    1       -0.742   3.494   3.869  0.00  0.00    +0.200 C 
ATOM     25  N   LIG    1        0.195   4.040   4.206  0.00  0.00    -0.370 NA
ENDBRANCH  15  24
ENDBRANCH   1  15
TORSDOF 5
