REMARK  Name = ZINCrH000004teyp.0
REMARK                            x       y       z     vdW  Elec       q    Type
REMARK                         _______ _______ _______ _____ _____    ______ ____
ROOT
ATOM      1  C   LIG    1       -7.608   2.599   2.455  0.00  0.00    +0.150 C 
ATOM      2  C   LIG    1       -6.254   2.249   3.078  0.00  0.00    +0.060 C 
ATOM      3  C   LIG    1       -5.135   2.842   2.219  0.00  0.00    +0.220 C 
ATOM      4  N   LIG    1       -5.296   4.299   2.140  0.00  0.00    -0.470 N 
ATOM      5  C   LIG    1       -6.568   4.659   1.502  0.00  0.00    +0.210 C 
ATOM      6  C   LIG    1       -7.731   4.121   2.340  0.00  0.00    +0.020 C 
ENDROOT
BRANCH   4   7
ATOM      7  C   LIG    1       -4.223   4.884   1.477  0.00  0.00    +0.310 A 
ATOM      8  C   LIG    1       -4.184   6.263   1.297  0.00  0.00    +0.160 A 
ATOM      9  N   LIG    1       -3.164   6.818   0.667  0.00  0.00    -0.380 NA
ATOM     10  C   LIG    1       -2.178   6.068   0.212  0.00  0.00    +0.190 A 
ATOM     11  C   LIG    1       -2.213   4.689   0.384  0.00  0.00    +0.310 A 
ATOM     12  N   LIG    1       -3.235   4.128   1.016  0.00  0.00    -0.540 NA
BRANCH  11  13
ATOM     13  O   LIG    1       -1.201   3.920  -0.089  0.00  0.00    -0.290 OA
BRANCH  13  14
ATOM     14  C   LIG    1       -1.301   2.511   0.129  0.00  0.00    +0.180 C 
ATOM     15  C   LIG    1       -0.595   1.768  -1.007  0.00  0.00    +0.020 C 
ATOM     16  C   LIG    1       -0.702   0.260  -0.773  0.00  0.00    +0.020 C 
ATOM     17  C   LIG    1       -0.041  -0.099   0.559  0.00  0.00    +0.020 C 
ATOM     18  C   LIG    1       -0.748   0.645   1.695  0.00  0.00    +0.020 C 
ATOM     19  C   LIG    1       -0.640   2.153   1.462  0.00  0.00    +0.010 C 
ENDBRANCH  13  14
ENDBRANCH  11  13
ENDBRANCH   4   7
BRANCH   1  20
ATOM     20  O   LIG    1       -8.659   2.095   3.282  0.00  0.00    -0.290 OA
BRANCH  20  25
ATOM     21  F   LIG    1      -13.467   1.018   0.994  0.00  0.00    -0.110 F 
ATOM     22  C   LIG    1      -12.264   1.295   1.543  0.00  0.00    +0.270 A 
ATOM     23  C   LIG    1      -11.280   1.892   0.772  0.00  0.00    +0.000 A 
ATOM     24  C   LIG    1      -10.050   2.172   1.343  0.00  0.00    +0.010 A 
ATOM     25  C   LIG    1       -9.851   1.840   2.680  0.00  0.00    +0.070 A 
ATOM     26  C   LIG    1      -10.881   1.239   3.387  0.00  0.00    +0.290 A 
ATOM     27  N   LIG    1      -12.041   0.993   2.809  0.00  0.00    -0.470 NA
ENDBRANCH  20  25
ENDBRANCH   1  20
TORSDOF 5
