REMARK  Name = ZINCtV000002OzSV.0
REMARK                            x       y       z     vdW  Elec       q    Type
REMARK                         _______ _______ _______ _____ _____    ______ ____
ROOT
ATOM      1  O   LIG    1       -1.354  -0.902  -0.098  0.00  0.00    -0.500 OA
ATOM      2  C   LIG    1       -2.412  -0.303  -0.090  0.00  0.00    +0.560 C 
ATOM      3  N   LIG    1       -2.425   1.040   0.019  0.00  0.00    -0.660 N 
ATOM      4  H   LIG    1       -3.269   1.513   0.092  0.00  0.00    +0.410 HD
ENDROOT
BRANCH   2   5
ATOM      5  C   LIG    1       -3.684  -1.048  -0.199  0.00  0.00    -0.130 A 
ATOM      6  C   LIG    1       -4.900  -0.363  -0.184  0.00  0.00    +0.140 A 
ATOM      7  C   LIG    1       -6.084  -1.064  -0.291  0.00  0.00    -0.190 A 
ATOM      8  C   LIG    1       -6.067  -2.443  -0.403  0.00  0.00    +0.170 A 
ATOM      9  C   LIG    1       -4.865  -3.128  -0.414  0.00  0.00    -0.190 A 
ATOM     10  C   LIG    1       -3.674  -2.439  -0.312  0.00  0.00    +0.190 A 
BRANCH   9  11
ATOM     11  C   LIG    1       -4.856  -4.630  -0.536  0.00  0.00    +0.510 C 
ATOM     12  F   LIG    1       -5.470  -5.003  -1.737  0.00  0.00    -0.170 F 
ATOM     13  F   LIG    1       -5.555  -5.190   0.538  0.00  0.00    -0.170 F 
ATOM     14  F   LIG    1       -3.536  -5.091  -0.525  0.00  0.00    -0.170 F 
ENDBRANCH   9  11
BRANCH   7  15
ATOM     15  C   LIG    1       -7.398  -0.327  -0.281  0.00  0.00    +0.510 C 
ATOM     16  F   LIG    1       -8.337  -1.037  -1.037  0.00  0.00    -0.170 F 
ATOM     17  F   LIG    1       -7.222   0.947  -0.833  0.00  0.00    -0.170 F 
ATOM     18  F   LIG    1       -7.854  -0.206   1.036  0.00  0.00    -0.170 F 
ENDBRANCH   7  15
ENDBRANCH   2   5
BRANCH   3  19
ATOM     19  C   LIG    1       -1.223   1.752   0.027  0.00  0.00    +0.150 A 
ATOM     20  C   LIG    1       -0.095   1.207   0.624  0.00  0.00    +0.020 A 
ATOM     21  C   LIG    1        1.094   1.910   0.625  0.00  0.00    +0.030 A 
ATOM     22  C   LIG    1        1.167   3.162   0.039  0.00  0.00    +0.000 A 
ATOM     23  C   LIG    1        0.051   3.719  -0.553  0.00  0.00    +0.040 A 
ATOM     24  C   LIG    1       -1.153   3.020  -0.562  0.00  0.00    -0.070 A 
BRANCH  24  25
ATOM     25  C   LIG    1       -2.355   3.614  -1.197  0.00  0.00    -0.050 A 
ATOM     26  C   LIG    1       -3.096   2.876  -2.117  0.00  0.00    +0.010 A 
ATOM     27  C   LIG    1       -4.217   3.432  -2.701  0.00  0.00    +0.010 A 
ATOM     28  C   LIG    1       -4.598   4.723  -2.382  0.00  0.00    +0.010 A 
ATOM     29  C   LIG    1       -3.862   5.462  -1.473  0.00  0.00    +0.010 A 
ATOM     30  C   LIG    1       -2.743   4.914  -0.879  0.00  0.00    +0.030 A 
ENDBRANCH  24  25
ENDBRANCH   3  19
TORSDOF 5
