REMARK  Name = ZINCrm000000GqoM.0
REMARK                            x       y       z     vdW  Elec       q    Type
REMARK                         _______ _______ _______ _____ _____    ______ ____
ROOT
ATOM      1  C   LIG    1       -0.051   1.046   2.429  0.00  0.00    +0.140 C 
ATOM      2  C   LIG    1        1.450   1.438   2.464  0.00  0.00    +0.060 C 
ATOM      3  C   LIG    1        1.767   1.455   3.974  0.00  0.00    +0.260 C 
ATOM      4  N   LIG    1        0.494   1.639   4.686  0.00  0.00    -0.610 N 
ATOM      5  C   LIG    1        0.342   1.687   6.025  0.00  0.00    +0.540 C 
ATOM      6  O   LIG    1       -0.761   1.844   6.504  0.00  0.00    -0.520 OA
ATOM      7  C   LIG    1       -0.589   1.762   3.694  0.00  0.00    +0.290 C 
ENDROOT
BRANCH   1  11
ATOM      8  N   LIG    1       -2.056   1.292  -1.284  0.00  0.00    -0.390 N 
ATOM      9  C   LIG    1       -2.767   1.752  -0.084  0.00  0.00    +0.280 C 
ATOM     10  C   LIG    1       -2.111   1.149   1.160  0.00  0.00    +0.200 C 
ATOM     11  N   LIG    1       -0.702   1.560   1.216  0.00  0.00    -0.530 NA
ATOM     12  C   LIG    1        0.017   1.128   0.009  0.00  0.00    +0.220 C 
ATOM     13  C   LIG    1       -0.656   1.732  -1.225  0.00  0.00    +0.270 C 
ATOM     14  H   LIG    1       -2.090   0.284  -1.329  0.00  0.00    +0.420 HD
BRANCH   8  16
ATOM     15  C   LIG    1       -1.884   1.480  -3.720  0.00  0.00    +0.080 C 
ATOM     16  C   LIG    1       -2.697   1.857  -2.479  0.00  0.00    +0.250 C 
ENDBRANCH   8  16
ENDBRANCH   1  11
BRANCH   5  17
ATOM     17  C   LIG    1        1.542   1.547   6.925  0.00  0.00    +0.070 C 
BRANCH  17  18
ATOM     18  C   LIG    1        1.097   1.637   8.386  0.00  0.00    +0.290 C 
BRANCH  18  19
ATOM     19  N   LIG    1        2.268   1.500   9.263  0.00  0.00    -0.380 N 
ATOM     20  C   LIG    1        1.829   1.471  10.667  0.00  0.00    +0.270 C 
ATOM     21  C   LIG    1        3.006   1.024  11.536  0.00  0.00    +0.120 C 
ATOM     22  C   LIG    1        4.222   1.855  11.215  0.00  0.00    -0.090 A 
ATOM     23  C   LIG    1        5.282   1.853  12.107  0.00  0.00    +0.040 A 
ATOM     24  C   LIG    1        6.415   2.599  11.844  0.00  0.00    +0.050 A 
ATOM     25  C   LIG    1        6.490   3.351  10.687  0.00  0.00    +0.040 A 
ATOM     26  C   LIG    1        5.433   3.354   9.798  0.00  0.00    +0.040 A 
ATOM     27  C   LIG    1        4.295   2.606  10.061  0.00  0.00    -0.140 A 
ATOM     28  C   LIG    1        3.165   2.642   9.065  0.00  0.00    +0.310 C 
ATOM     29  H   LIG    1        2.756   0.645   9.044  0.00  0.00    +0.430 HD
ENDBRANCH  18  19
ENDBRANCH  17  18
ENDBRANCH   5  17
TORSDOF 5
