REMARK  Name = ZINCrm000000GqoM.1
REMARK                            x       y       z     vdW  Elec       q    Type
REMARK                         _______ _______ _______ _____ _____    ______ ____
ROOT
ATOM      1  C   LIG    1        8.446  -5.897   2.135  0.00  0.00    +0.140 C 
ATOM      2  C   LIG    1        7.448  -5.522   3.262  0.00  0.00    +0.060 C 
ATOM      3  C   LIG    1        6.758  -4.258   2.709  0.00  0.00    +0.250 C 
ATOM      4  N   LIG    1        7.655  -3.678   1.698  0.00  0.00    -0.610 N 
ATOM      5  C   LIG    1        7.404  -2.575   0.966  0.00  0.00    +0.540 C 
ATOM      6  O   LIG    1        8.222  -2.183   0.161  0.00  0.00    -0.520 OA
ATOM      7  C   LIG    1        8.876  -4.500   1.623  0.00  0.00    +0.290 C 
ENDROOT
BRANCH   1  11
ATOM      8  N   LIG    1       11.447  -8.811   2.747  0.00  0.00    -0.390 N 
ATOM      9  C   LIG    1       10.398  -8.676   3.766  0.00  0.00    +0.280 C 
ATOM     10  C   LIG    1        9.187  -7.963   3.160  0.00  0.00    +0.220 C 
ATOM     11  N   LIG    1        9.595  -6.638   2.674  0.00  0.00    -0.530 NA
ATOM     12  C   LIG    1       10.663  -6.755   1.671  0.00  0.00    +0.200 C 
ATOM     13  C   LIG    1       11.862  -7.478   2.290  0.00  0.00    +0.270 C 
ATOM     14  H   LIG    1       11.090  -9.339   1.965  0.00  0.00    +0.420 HD
BRANCH   8  16
ATOM     15  C   LIG    1       13.644  -9.762   2.233  0.00  0.00    +0.080 C 
ATOM     16  C   LIG    1       12.602  -9.511   3.325  0.00  0.00    +0.250 C 
ENDBRANCH   8  16
ENDBRANCH   1  11
BRANCH   5  17
ATOM     17  C   LIG    1        6.107  -1.829   1.146  0.00  0.00    +0.070 C 
BRANCH  17  18
ATOM     18  C   LIG    1        6.075  -0.626   0.202  0.00  0.00    +0.290 C 
BRANCH  18  19
ATOM     19  N   LIG    1        4.811   0.102   0.379  0.00  0.00    -0.380 N 
ATOM     20  C   LIG    1        4.828   1.324  -0.440  0.00  0.00    +0.270 C 
ATOM     21  C   LIG    1        3.658   2.212  -0.015  0.00  0.00    +0.120 C 
ATOM     22  C   LIG    1        2.383   1.407  -0.013  0.00  0.00    -0.090 A 
ATOM     23  C   LIG    1        1.172   2.081   0.002  0.00  0.00    +0.040 A 
ATOM     24  C   LIG    1       -0.017   1.378   0.010  0.00  0.00    +0.050 A 
ATOM     25  C   LIG    1        0.002  -0.004   0.002  0.00  0.00    +0.040 A 
ATOM     26  C   LIG    1        1.208  -0.676  -0.015  0.00  0.00    +0.040 A 
ATOM     27  C   LIG    1        2.402   0.029  -0.024  0.00  0.00    -0.140 A 
ATOM     28  C   LIG    1        3.694  -0.745  -0.051  0.00  0.00    +0.320 C 
ATOM     29  H   LIG    1        4.696   0.347   1.350  0.00  0.00    +0.430 HD
ENDBRANCH  18  19
ENDBRANCH  17  18
ENDBRANCH   5  17
TORSDOF 5
