REMARK  Name = ZINCrg00000SjSyS.0
REMARK                            x       y       z     vdW  Elec       q    Type
REMARK                         _______ _______ _______ _____ _____    ______ ____
ROOT
ATOM      1  C   LIG    1        3.024   2.149  -1.267  0.00  0.00    +0.510 C 
ATOM      2  N   LIG    1        4.343   2.047  -1.524  0.00  0.00    -0.550 N 
ATOM      3  C   LIG    1        4.964   2.638  -2.561  0.00  0.00    +0.570 C 
ATOM      4  C   LIG    1        6.400   2.295  -2.504  0.00  0.00    -0.080 A 
ATOM      5  C   LIG    1        7.500   2.607  -3.284  0.00  0.00    +0.050 A 
ATOM      6  C   LIG    1        8.750   2.103  -2.950  0.00  0.00    +0.110 A 
ATOM      7  C   LIG    1        8.910   1.294  -1.847  0.00  0.00    -0.030 A 
ATOM      8  C   LIG    1        7.813   0.966  -1.046  0.00  0.00    +0.310 A 
ATOM      9  C   LIG    1        6.552   1.466  -1.371  0.00  0.00    -0.250 A 
ATOM     10  O   LIG    1        4.434   3.336  -3.401  0.00  0.00    -0.410 OA
ATOM     11  C   LIG    1        5.211   1.338  -0.780  0.00  0.00    +0.590 C 
ATOM     12  O   LIG    1        4.933   0.698   0.214  0.00  0.00    -0.460 OA
ATOM     13  O   LIG    1        2.303   2.740  -2.035  0.00  0.00    -0.420 OA
ENDROOT
BRANCH   8  14
ATOM     14  N   LIG    1        7.976   0.151   0.064  0.00  0.00    -0.850 N 
ATOM     15  H   LIG    1        8.855  -0.195   0.286  0.00  0.00    +0.410 HD
ATOM     16  H   LIG    1        7.212  -0.074   0.617  0.00  0.00    +0.410 HD
ENDBRANCH   8  14
BRANCH   1  18
ATOM     17  C   LIG    1        2.802   2.388   1.192  0.00  0.00    +0.100 C 
ATOM     18  C   LIG    1        2.449   1.525  -0.021  0.00  0.00    +0.290 C 
BRANCH  18  19
ATOM     19  N   LIG    1        0.992   1.434  -0.149  0.00  0.00    -0.570 N 
ATOM     20  C   LIG    1        0.295   0.285  -0.107  0.00  0.00    +0.580 C 
ATOM     21  C   LIG    1       -1.140   0.598  -0.276  0.00  0.00    -0.140 A 
ATOM     22  C   LIG    1       -2.299  -0.161  -0.307  0.00  0.00    +0.100 A 
ATOM     23  C   LIG    1       -3.525   0.464  -0.480  0.00  0.00    +0.040 A 
ATOM     24  C   LIG    1       -3.598   1.837  -0.614  0.00  0.00    +0.050 A 
ATOM     25  C   LIG    1       -2.448   2.610  -0.578  0.00  0.00    +0.100 A 
ATOM     26  C   LIG    1       -1.216   2.000  -0.407  0.00  0.00    -0.130 A 
ATOM     27  O   LIG    1        0.765  -0.825   0.040  0.00  0.00    -0.460 OA
ATOM     28  C   LIG    1        0.176   2.489  -0.323  0.00  0.00    +0.580 C 
ATOM     29  O   LIG    1        0.525   3.650  -0.398  0.00  0.00    -0.440 OA
ENDBRANCH  18  19
ENDBRANCH   1  18
TORSDOF 3
