REMARK  Name = ZINCrD0000074sGQ.0
REMARK                            x       y       z     vdW  Elec       q    Type
REMARK                         _______ _______ _______ _____ _____    ______ ____
ROOT
ATOM      1  C   LIG    1        3.997   4.379   2.386  0.00  0.00    +0.290 C 
ATOM      2  C   LIG    1        3.870   5.315   3.590  0.00  0.00    +0.030 C 
ENDROOT
BRANCH   1   3
ATOM      3  C   LIG    1        5.454   4.109   2.112  0.00  0.00    -0.130 A 
ATOM      4  C   LIG    1        6.139   3.179   2.872  0.00  0.00    +0.050 A 
ATOM      5  C   LIG    1        7.473   2.925   2.619  0.00  0.00    -0.070 A 
ATOM      6  C   LIG    1        8.129   3.614   1.608  0.00  0.00    +0.130 A 
ATOM      7  C   LIG    1        7.441   4.551   0.851  0.00  0.00    -0.010 A 
ATOM      8  C   LIG    1        6.106   4.797   1.105  0.00  0.00    +0.070 A 
BRANCH   6   9
ATOM      9  O   LIG    1        9.443   3.370   1.361  0.00  0.00    -0.310 OA
BRANCH   9  10
ATOM     10  C   LIG    1       10.087   2.392   2.179  0.00  0.00    +0.260 C 
BRANCH  10  11
ATOM     11  C   LIG    1       11.528   2.258   1.762  0.00  0.00    -0.150 A 
ATOM     12  C   LIG    1       11.896   1.338   0.792  0.00  0.00    +0.090 A 
ATOM     13  C   LIG    1       13.233   1.254   0.435  0.00  0.00    -0.030 A 
ATOM     14  C   LIG    1       14.151   2.075   1.063  0.00  0.00    +0.270 A 
ATOM     15  N   LIG    1       13.766   2.935   1.986  0.00  0.00    -0.490 NA
ATOM     16  C   LIG    1       12.502   3.047   2.346  0.00  0.00    +0.290 A 
ENDBRANCH  10  11
ENDBRANCH   9  10
ENDBRANCH   6   9
ENDBRANCH   1   3
BRANCH   1  18
ATOM     17  C   LIG    1        1.987   3.004   2.459  0.00  0.00    +0.500 C 
ATOM     18  N   LIG    1        3.312   3.117   2.675  0.00  0.00    -0.720 N 
ATOM     19  H   LIG    1        3.813   2.362   3.022  0.00  0.00    +0.400 HD
ATOM     20  O   LIG    1        1.361   3.948   2.025  0.00  0.00    -0.510 OA
BRANCH  17  21
ATOM     21  C   LIG    1        1.283   1.705   2.756  0.00  0.00    +0.370 C 
BRANCH  21  28
ATOM     22  C   LIG    1       -0.013   1.086   0.008  0.00  0.00    +0.150 C 
ATOM     23  C   LIG    1       -0.718   1.572   1.248  0.00  0.00    +0.090 A 
ATOM     24  C   LIG    1       -2.042   1.825   1.365  0.00  0.00    -0.120 A 
ATOM     25  C   LIG    1       -2.284   2.253   2.675  0.00  0.00    +0.080 A 
ATOM     26  N   LIG    1       -1.145   2.264   3.318  0.00  0.00    -0.290 NA
ATOM     27  C   LIG    1       -3.625   2.639   3.244  0.00  0.00    +0.160 C 
ATOM     28  N   LIG    1       -0.141   1.838   2.438  0.00  0.00    -0.360 N 
ENDBRANCH  21  28
ENDBRANCH  17  21
ENDBRANCH   1  18
TORSDOF 7
