REMARK  Name = ZINCrD000000CTdZ.0
REMARK                            x       y       z     vdW  Elec       q    Type
REMARK                         _______ _______ _______ _____ _____    ______ ____
ROOT
ATOM      1  C   LIG    1       -1.153  -0.917   0.009  0.00  0.00    +0.600 C 
ATOM      2  N   LIG    1       -2.402  -0.423   0.126  0.00  0.00    -0.620 N 
ATOM      3  C   LIG    1       -2.761   1.006   0.156  0.00  0.00    +0.250 C 
ATOM      4  C   LIG    1       -4.236   1.052  -0.322  0.00  0.00    +0.040 C 
ATOM      5  C   LIG    1       -4.813  -0.232   0.331  0.00  0.00    +0.060 C 
ATOM      6  C   LIG    1       -3.631  -1.221   0.251  0.00  0.00    +0.280 C 
ATOM      7  O   LIG    1       -0.982  -2.116  -0.102  0.00  0.00    -0.490 OA
ENDROOT
BRANCH   1  18
ATOM      8  O   LIG    1        1.566  -2.396  -1.390  0.00  0.00    -0.490 OA
ATOM      9  C   LIG    1        2.044  -1.627  -0.579  0.00  0.00    +0.590 C 
ATOM     10  N   LIG    1        3.204  -1.890   0.076  0.00  0.00    -0.730 N 
ATOM     11  H   LIG    1        3.790  -2.599  -0.230  0.00  0.00    +0.410 HD
ATOM     12  C   LIG    1        3.556  -1.094   1.240  0.00  0.00    +0.260 C 
ATOM     13  C   LIG    1        4.296   0.200   0.902  0.00  0.00    +0.040 C 
ATOM     14  C   LIG    1        3.607   0.890  -0.285  0.00  0.00    +0.150 C 
ATOM     15  C   LIG    1        2.114   0.815  -0.114  0.00  0.00    +0.040 A 
ATOM     16  O   LIG    1        1.258   1.797   0.173  0.00  0.00    -0.150 OA
ATOM     17  C   LIG    1        0.002   1.339   0.261  0.00  0.00    +0.230 A 
ATOM     18  C   LIG    1        0.003  -0.005   0.017  0.00  0.00    -0.180 A 
ATOM     19  C   LIG    1        1.404  -0.341  -0.236  0.00  0.00    -0.190 A 
ENDBRANCH   1  18
BRANCH   6  20
ATOM     20  C   LIG    1       -3.575  -2.055   1.504  0.00  0.00    -0.060 A 
ATOM     21  C   LIG    1       -2.784  -1.657   2.565  0.00  0.00    +0.030 A 
ATOM     22  C   LIG    1       -2.735  -2.420   3.719  0.00  0.00    +0.130 A 
ATOM     23  C   LIG    1       -3.471  -3.589   3.808  0.00  0.00    +0.000 A 
ATOM     24  C   LIG    1       -4.260  -3.991   2.744  0.00  0.00    +0.110 A 
ATOM     25  F   LIG    1       -4.979  -5.132   2.830  0.00  0.00    -0.120 F 
ATOM     26  F   LIG    1       -1.966  -2.026   4.757  0.00  0.00    -0.120 F 
ATOM     27  C   LIG    1       -4.312  -3.224   1.591  0.00  0.00    +0.070 A 
ATOM     28  F   LIG    1       -5.082  -3.616   0.552  0.00  0.00    -0.120 F 
ENDBRANCH   6  20
TORSDOF 2
