REMARK  Name = ZINCpe000000XMiE.0
REMARK                            x       y       z     vdW  Elec       q    Type
REMARK                         _______ _______ _______ _____ _____    ______ ____
ROOT
ATOM      1  C   LIG    1       -2.933   5.360   0.045  0.00  0.00    +0.520 C 
ATOM      2  N   LIG    1       -2.647   4.043   0.036  0.00  0.00    -0.720 N 
ATOM      3  H   LIG    1       -3.364   3.391   0.036  0.00  0.00    +0.410 HD
ATOM      4  O   LIG    1       -2.036   6.176   0.045  0.00  0.00    -0.540 OA
ENDROOT
BRANCH   1   5
ATOM      5  C   LIG    1       -4.369   5.819   0.054  0.00  0.00    +0.070 C 
BRANCH   5   6
ATOM      6  C   LIG    1       -4.415   7.348   0.063  0.00  0.00    +0.100 C 
BRANCH   6  11
ATOM      7  C   LIG    1       -9.919   9.108   0.098  0.00  0.00    +0.090 C 
ATOM      8  C   LIG    1       -8.484   8.649   0.089  0.00  0.00    -0.090 A 
ATOM      9  C   LIG    1       -7.820   8.432   1.282  0.00  0.00    +0.000 A 
ATOM     10  C   LIG    1       -6.504   8.011   1.273  0.00  0.00    +0.010 A 
ATOM     11  C   LIG    1       -5.851   7.807   0.072  0.00  0.00    -0.090 A 
ATOM     12  C   LIG    1       -6.513   8.029  -1.121  0.00  0.00    +0.010 A 
ATOM     13  C   LIG    1       -7.832   8.445  -1.113  0.00  0.00    +0.000 A 
ENDBRANCH   6  11
ENDBRANCH   5   6
ENDBRANCH   1   5
BRANCH   2  14
ATOM     14  C   LIG    1       -1.251   3.598   0.028  0.00  0.00    +0.300 C 
BRANCH  14  15
ATOM     15  C   LIG    1       -1.205   2.091   0.019  0.00  0.00    +0.510 C 
ATOM     16  N   LIG    1       -0.018   1.454   0.010  0.00  0.00    -0.600 N 
ATOM     17  C   LIG    1        1.213   2.244   0.003  0.00  0.00    +0.280 C 
ATOM     18  C   LIG    1        2.065   1.802  -1.202  0.00  0.00    +0.290 C 
ATOM     19  N   LIG    1        2.152   0.331  -1.137  0.00  0.00    -0.630 N 
ATOM     20  C   LIG    1        3.294  -0.403  -1.132  0.00  0.00    +0.520 C 
ATOM     21  C   LIG    1        2.970  -1.879  -1.076  0.00  0.00    +0.070 C 
ATOM     22  C   LIG    1        1.500  -1.927  -0.597  0.00  0.00    +0.060 C 
ATOM     23  O   LIG    1        4.413   0.061  -1.177  0.00  0.00    -0.520 OA
ATOM     24  C   LIG    1        0.978  -0.544  -1.035  0.00  0.00    +0.210 C 
ATOM     25  C   LIG    1        0.002  -0.004   0.002  0.00  0.00    +0.280 C 
ATOM     26  O   LIG    1       -2.236   1.453   0.020  0.00  0.00    -0.530 OA
ENDBRANCH  14  15
ENDBRANCH   2  14
TORSDOF 5
