REMARK  Name = ZINCqH00000034yp.0
REMARK                            x       y       z     vdW  Elec       q    Type
REMARK                         _______ _______ _______ _____ _____    ______ ____
ROOT
ATOM      1  C   LIG    1       -1.332  -0.813  -0.189  0.00  0.00    +0.010 A 
ATOM      2  C   LIG    1       -0.138  -0.077  -0.036  0.00  0.00    -0.220 A 
ATOM      3  C   LIG    1        1.254  -0.446   0.211  0.00  0.00    +0.150 A 
ATOM      4  N   LIG    1        1.943   0.654   0.262  0.00  0.00    -0.270 NA
ATOM      5  O   LIG    1        1.088   1.762   0.061  0.00  0.00    -0.080 OA
ATOM      6  C   LIG    1        1.793  -1.844   0.375  0.00  0.00    +0.180 C 
ATOM      7  C   LIG    1       -0.175   1.325  -0.120  0.00  0.00    +0.310 A 
ATOM      8  N   LIG    1       -1.323   1.949  -0.336  0.00  0.00    -0.470 NA
ATOM      9  C   LIG    1       -2.461   1.289  -0.488  0.00  0.00    +0.300 A 
ATOM     10  C   LIG    1       -2.508  -0.107  -0.418  0.00  0.00    -0.010 A 
ENDROOT
BRANCH   9  11
ATOM     11  C   LIG    1       -3.711   2.045  -0.733  0.00  0.00    -0.180 A 
ATOM     12  C   LIG    1       -3.848   3.395  -0.830  0.00  0.00    +0.080 A 
ATOM     13  O   LIG    1       -5.139   3.675  -1.055  0.00  0.00    -0.170 OA
ATOM     14  C   LIG    1       -5.867   2.549  -1.111  0.00  0.00    -0.000 A 
ATOM     15  C   LIG    1       -7.354   2.480  -1.348  0.00  0.00    +0.180 C 
ATOM     16  C   LIG    1       -2.736   4.405  -0.706  0.00  0.00    +0.190 C 
ATOM     17  C   LIG    1       -5.057   1.494  -0.927  0.00  0.00    -0.030 A 
ENDBRANCH   9  11
BRANCH   1  19
ATOM     18  N   LIG    1       -1.802  -3.023  -1.137  0.00  0.00    -0.600 N 
ATOM     19  C   LIG    1       -1.333  -2.291  -0.107  0.00  0.00    +0.560 C 
ATOM     20  O   LIG    1       -0.912  -2.845   0.890  0.00  0.00    -0.500 OA
BRANCH  18  22
ATOM     21  C   LIG    1       -0.961  -2.168  -3.269  0.00  0.00    +0.010 C 
ATOM     22  C   LIG    1       -2.195  -2.363  -2.385  0.00  0.00    +0.270 C 
ENDBRANCH  18  22
BRANCH  18  23
ATOM     23  C   LIG    1       -1.919  -4.478  -1.009  0.00  0.00    +0.320 C 
BRANCH  23  24
ATOM     24  C   LIG    1       -3.303  -4.832  -0.461  0.00  0.00    +0.180 C 
BRANCH  24  25
ATOM     25  C   LIG    1       -3.420  -6.293  -0.332  0.00  0.00    +0.200 C 
ATOM     26  N   LIG    1       -3.510  -7.421  -0.233  0.00  0.00    -0.420 NA
ENDBRANCH  24  25
ENDBRANCH  23  24
ENDBRANCH  18  23
ENDBRANCH   1  19
TORSDOF 6
