REMARK  Name = ZINCfA000000bk01.0
REMARK                            x       y       z     vdW  Elec       q    Type
REMARK                         _______ _______ _______ _____ _____    ______ ____
ROOT
ATOM      1  N   LIG    1        0.308   1.587   2.682  0.00  0.00    -0.500 N 
ATOM      2  H   LIG    1        1.101   2.206   2.599  0.00  0.00    +0.430 HD
ATOM      3  H   LIG    1        0.608   0.709   3.079  0.00  0.00    +0.430 HD
ENDROOT
BRANCH   1   7
ATOM      4  C   LIG    1        0.251   1.146  -1.004  0.00  0.00    +0.040 C 
ATOM      5  C   LIG    1       -0.341   2.557  -0.806  0.00  0.00    +0.070 C 
ATOM      6  C   LIG    1       -0.675   2.688   0.690  0.00  0.00    +0.050 C 
ATOM      7  C   LIG    1       -0.271   1.352   1.353  0.00  0.00    +0.160 C 
ATOM      8  C   LIG    1        0.794   0.762   0.394  0.00  0.00    +0.090 C 
BRANCH   4  10
ATOM      9  C   LIG    1        0.729   1.496  -3.781  0.00  0.00    +0.150 C 
ATOM     10  S   LIG    1        1.597   1.184  -2.220  0.00  0.00    -0.230 S 
ENDBRANCH   4  10
ENDBRANCH   1   7
BRANCH   1  11
ATOM     11  C   LIG    1       -0.702   2.200   3.555  0.00  0.00    +0.230 C 
BRANCH  11  12
ATOM     12  C   LIG    1       -0.033   2.698   4.838  0.00  0.00    -0.060 C 
ATOM     13  C   LIG    1       -0.238   4.166   5.217  0.00  0.00    +0.090 C 
ATOM     14  C   LIG    1        1.120   3.694   4.693  0.00  0.00    +0.040 C 
ENDBRANCH  11  12
BRANCH  11  15
ATOM     15  C   LIG    1       -1.769   1.162   3.906  0.00  0.00    -0.020 C 
ATOM     16  C   LIG    1       -1.607  -0.244   3.324  0.00  0.00    +0.020 C 
ATOM     17  C   LIG    1       -2.692   0.689   2.781  0.00  0.00    +0.050 C 
ENDBRANCH  11  15
ENDBRANCH   1  11
TORSDOF 5
