REMARK  Name = ZINCtV000002wCVH.0
REMARK                            x       y       z     vdW  Elec       q    Type
REMARK                         _______ _______ _______ _____ _____    ______ ____
ROOT
ATOM      1  C   LIG    1        2.730   2.986   3.710  0.00  0.00    +0.070 C 
ENDROOT
BRANCH   1   2
ATOM      2  C   LIG    1        2.951   3.727   2.416  0.00  0.00    +0.500 C 
ATOM      3  N   LIG    1        3.245   5.042   2.434  0.00  0.00    -0.670 N 
ATOM      4  H   LIG    1        3.269   5.522   3.277  0.00  0.00    +0.410 HD
ATOM      5  O   LIG    1        2.865   3.140   1.359  0.00  0.00    -0.490 OA
BRANCH   3   6
ATOM      6  C   LIG    1        3.517   5.715   1.238  0.00  0.00    +0.150 A 
ATOM      7  C   LIG    1        2.889   6.922   0.961  0.00  0.00    -0.090 A 
ATOM      8  C   LIG    1        3.159   7.585  -0.221  0.00  0.00    +0.040 A 
ATOM      9  C   LIG    1        4.054   7.048  -1.127  0.00  0.00    +0.030 A 
ATOM     10  C   LIG    1        4.683   5.845  -0.854  0.00  0.00    -0.030 A 
ATOM     11 CL   LIG    1        5.807   5.175  -1.995  0.00  0.00    -0.060 Cl
ATOM     12  C   LIG    1        4.420   5.180   0.329  0.00  0.00    -0.060 A 
BRANCH   7  13
ATOM     13  C   LIG    1        1.913   7.508   1.948  0.00  0.00    +0.060 C 
ATOM     14  C   LIG    1        2.675   8.316   3.001  0.00  0.00    +0.020 C 
ENDBRANCH   7  13
BRANCH  12  15
ATOM     15  C   LIG    1        5.108   3.873   0.628  0.00  0.00    +0.070 C 
ATOM     16  C   LIG    1        5.333   3.104  -0.675  0.00  0.00    +0.020 C 
ENDBRANCH  12  15
ENDBRANCH   3   6
ENDBRANCH   1   2
BRANCH   1  17
ATOM     17  C   LIG    1        2.414   1.520   3.410  0.00  0.00    +0.090 C 
BRANCH  17  18
ATOM     18  C   LIG    1        2.190   0.768   4.724  0.00  0.00    +0.060 C 
BRANCH  18  19
ATOM     19  S   LIG    1        1.815  -0.971   4.369  0.00  0.00    -0.090 S 
BRANCH  19  23
ATOM     20  C   LIG    1        1.242  -2.751   8.488  0.00  0.00    -0.140 A 
ATOM     21  C   LIG    1        1.110  -3.556   7.352  0.00  0.00    +0.110 A 
ATOM     22  C   LIG    1        1.283  -3.016   6.110  0.00  0.00    +0.030 A 
ATOM     23  C   LIG    1        1.592  -1.664   5.973  0.00  0.00    -0.050 A 
ATOM     24  C   LIG    1        1.730  -0.861   7.103  0.00  0.00    -0.020 A 
ATOM     25  C   LIG    1        1.552  -1.394   8.348  0.00  0.00    +0.100 A 
BRANCH  20  26
ATOM     26  C   LIG    1        1.056  -3.330   9.830  0.00  0.00    +0.510 C 
ATOM     27  O   LIG    1        0.787  -4.509   9.951  0.00  0.00    -0.510 OA
BRANCH  26  28
ATOM     28  O   LIG    1        1.185  -2.553  10.924  0.00  0.00    -0.360 OA
BRANCH  28  30
ATOM     29  C   LIG    1        1.172  -2.159  13.327  0.00  0.00    +0.070 C 
ATOM     30  C   LIG    1        0.988  -3.192  12.213  0.00  0.00    +0.200 C 
ENDBRANCH  28  30
ENDBRANCH  26  28
ENDBRANCH  20  26
ENDBRANCH  19  23
ENDBRANCH  18  19
ENDBRANCH  17  18
ENDBRANCH   1  17
TORSDOF 11
