REMARK  Name = ZINCtV00001bB3iH.0
REMARK                            x       y       z     vdW  Elec       q    Type
REMARK                         _______ _______ _______ _____ _____    ______ ____
ROOT
ATOM      1  N   LIG    1       -1.640   1.444   0.825  0.00  0.00    -0.530 N 
ATOM      2  C   LIG    1       -1.734   2.711   1.194  0.00  0.00    +0.560 C 
ATOM      3  C   LIG    1       -2.244   2.931   2.552  0.00  0.00    -0.230 C 
ATOM      4  S   LIG    1       -2.546   1.301   3.184  0.00  0.00    +0.020 S 
ATOM      5  C   LIG    1       -2.441   4.115   3.183  0.00  0.00    +0.220 C 
ATOM      6  O   LIG    1       -1.419   3.628   0.459  0.00  0.00    -0.460 OA
ATOM      7  C   LIG    1       -2.019   0.472   1.709  0.00  0.00    +0.370 C 
ATOM      8  N   LIG    1       -1.995  -0.826   1.505  0.00  0.00    -0.470 NA
ENDROOT
BRANCH   5   9
ATOM      9  C   LIG    1       -3.115   4.149   4.489  0.00  0.00    -0.090 A 
ATOM     10  C   LIG    1       -3.902   3.069   4.903  0.00  0.00    +0.050 A 
ATOM     11  C   LIG    1       -4.527   3.106   6.130  0.00  0.00    +0.030 A 
ATOM     12  C   LIG    1       -4.385   4.214   6.950  0.00  0.00    -0.020 A 
ATOM     13  C   LIG    1       -3.612   5.290   6.545  0.00  0.00    +0.030 A 
ATOM     14 CL   LIG    1       -5.181   4.254   8.493  0.00  0.00    -0.060 Cl
ATOM     15  C   LIG    1       -2.977   5.265   5.323  0.00  0.00    +0.070 A 
ENDBRANCH   5   9
BRANCH   8  16
ATOM     16  C   LIG    1       -2.409  -1.681   2.490  0.00  0.00    +0.100 A 
ATOM     17  C   LIG    1       -1.986  -1.491   3.808  0.00  0.00    -0.020 A 
ATOM     18  C   LIG    1       -2.410  -2.353   4.796  0.00  0.00    +0.030 A 
ATOM     19  C   LIG    1       -3.244  -3.413   4.484  0.00  0.00    +0.010 A 
ATOM     20  C   LIG    1       -3.663  -3.611   3.179  0.00  0.00    +0.030 A 
ATOM     21  C   LIG    1       -3.250  -2.752   2.182  0.00  0.00    +0.030 A 
ENDBRANCH   8  16
BRANCH   1  23
ATOM     22  C   LIG    1        0.286   1.605  -0.673  0.00  0.00    +0.050 C 
ATOM     23  C   LIG    1       -1.145   1.089  -0.507  0.00  0.00    +0.300 C 
BRANCH  23  24
ATOM     24  C   LIG    1       -2.029   1.716  -1.555  0.00  0.00    -0.090 A 
ATOM     25  C   LIG    1       -3.383   1.860  -1.320  0.00  0.00    +0.000 A 
ATOM     26  C   LIG    1       -4.194   2.438  -2.279  0.00  0.00    +0.000 A 
ATOM     27  C   LIG    1       -3.651   2.863  -3.477  0.00  0.00    +0.000 A 
ATOM     28  C   LIG    1       -2.297   2.714  -3.714  0.00  0.00    +0.010 A 
ATOM     29  C   LIG    1       -1.486   2.140  -2.753  0.00  0.00    +0.030 A 
ENDBRANCH  23  24
ENDBRANCH   1  23
TORSDOF 4
