REMARK  Name = ZINCpe00000gN4AK.0
REMARK                            x       y       z     vdW  Elec       q    Type
REMARK                         _______ _______ _______ _____ _____    ______ ____
ROOT
ATOM      1  C   LIG    1       -1.569   9.866   1.989  0.00  0.00    -0.020 A 
ATOM      2  C   LIG    1       -2.619   8.964   1.807  0.00  0.00    +0.080 A 
ATOM      3  C   LIG    1       -2.352   7.617   1.687  0.00  0.00    +0.050 A 
ATOM      4  C   LIG    1       -1.047   7.154   1.746  0.00  0.00    -0.080 A 
ATOM      5  C   LIG    1       -0.486   5.758   1.646  0.00  0.00    +0.320 C 
ATOM      6  N   LIG    1        0.972   5.852   1.776  0.00  0.00    -0.620 N 
ATOM      7  C   LIG    1        1.293   7.271   1.958  0.00  0.00    +0.330 C 
ATOM      8  C   LIG    1        1.848   4.829   1.741  0.00  0.00    +0.540 C 
ATOM      9  O   LIG    1        3.036   5.043   1.862  0.00  0.00    -0.490 OA
ATOM     10  C   LIG    1       -0.003   8.042   1.926  0.00  0.00    -0.100 A 
ATOM     11  C   LIG    1       -0.257   9.395   2.048  0.00  0.00    +0.090 A 
ENDROOT
BRANCH   8  12
ATOM     12  C   LIG    1        1.353   3.418   1.551  0.00  0.00    +0.150 C 
ATOM     13  C   LIG    1        1.166   3.102   0.043  0.00  0.00    +0.100 C 
ATOM     14  C   LIG    1        1.286   1.562  -0.002  0.00  0.00    +0.180 C 
ATOM     15  C   LIG    1        2.061   1.179   1.273  0.00  0.00    +0.180 C 
ATOM     16  N   LIG    1        2.384   2.438   1.979  0.00  0.00    -0.450 N 
BRANCH  16  17
ATOM     17  C   LIG    1        2.358   2.259   3.352  0.00  0.00    +0.350 A 
ATOM     18  C   LIG    1        1.188   1.843   3.991  0.00  0.00    -0.110 A 
ATOM     19  C   LIG    1        1.215   1.673   5.362  0.00  0.00    +0.330 A 
ATOM     20  N   LIG    1        2.338   1.918   6.022  0.00  0.00    -0.520 NA
ATOM     21  C   LIG    1        3.424   2.315   5.390  0.00  0.00    +0.510 A 
ATOM     22  N   LIG    1        3.445   2.485   4.084  0.00  0.00    -0.490 NA
ENDBRANCH  16  17
BRANCH  14  23
ATOM     23  O   LIG    1       -0.011   0.963   0.007  0.00  0.00    -0.560 OA
ATOM     24  H   LIG    1        0.002  -0.004   0.002  0.00  0.00    +0.390 HD
ENDBRANCH  14  23
ENDBRANCH   8  12
BRANCH   1  26
ATOM     25  N   LIG    1       -2.050  12.379   2.213  0.00  0.00    -0.400 NA
ATOM     26  C   LIG    1       -1.837  11.267   2.114  0.00  0.00    +0.250 C 
ENDBRANCH   1  26
TORSDOF 4
