REMARK  Name = ZINCrg00000IZb3T.0
REMARK                            x       y       z     vdW  Elec       q    Type
REMARK                         _______ _______ _______ _____ _____    ______ ____
ROOT
ATOM      1  N   LIG    1        2.308   3.579   2.509  0.00  0.00    -1.010 NA
ATOM      2  C   LIG    1        2.470   4.700   3.446  0.00  0.00    +0.280 C 
ATOM      3  C   LIG    1        3.164   5.843   2.677  0.00  0.00    +0.060 C 
ATOM      4  C   LIG    1        2.846   5.510   1.196  0.00  0.00    +0.220 C 
ATOM      5  C   LIG    1        2.895   3.959   1.211  0.00  0.00    +0.340 C 
ENDROOT
BRANCH   4   6
ATOM      6  C   LIG    1        3.899   6.072   0.277  0.00  0.00    +0.160 A 
ATOM      7  N   LIG    1        4.208   7.337   0.124  0.00  0.00    -0.460 NA
ATOM      8  C   LIG    1        5.194   7.362  -0.790  0.00  0.00    +0.210 A 
ATOM      9  N   LIG    1        5.431   6.133  -1.140  0.00  0.00    -0.370 NA
ATOM     10  O   LIG    1        4.701   5.376  -0.535  0.00  0.00    +0.090 OA
BRANCH   8  11
ATOM     11  C   LIG    1        5.897   8.588  -1.312  0.00  0.00    +0.060 C 
ATOM     12  C   LIG    1        6.849   8.407  -2.495  0.00  0.00    +0.050 C 
ATOM     13  C   LIG    1        7.409   8.682  -1.098  0.00  0.00    +0.060 C 
ENDBRANCH   8  11
ENDBRANCH   4   6
BRANCH   1  14
ATOM     14  S   LIG    1        1.593   2.126   2.856  0.00  0.00    +2.740 S 
ATOM     15  O   LIG    1        2.120   1.187   1.929  0.00  0.00    -0.940 OA
ATOM     16  O   LIG    1        1.682   1.961   4.265  0.00  0.00    -0.950 OA
BRANCH  14  22
ATOM     17  C   LIG    1       -0.724   2.012   1.250  0.00  0.00    +0.170 A 
ATOM     18  N   LIG    1       -2.005   2.255   1.359  0.00  0.00    -0.290 NA
ATOM     19  N   LIG    1       -2.260   2.684   2.668  0.00  0.00    -0.360 N 
ATOM     20  C   LIG    1       -1.087   2.698   3.336  0.00  0.00    +0.220 A 
ATOM     21  C   LIG    1       -3.567   3.057   3.213  0.00  0.00    +0.360 C 
ATOM     22  C   LIG    1       -0.121   2.287   2.482  0.00  0.00    -0.820 A 
BRANCH  17  24
ATOM     23  C   LIG    1        0.002  -0.004   0.002  0.00  0.00    +0.050 C 
ATOM     24  C   LIG    1       -0.019   1.526   0.010  0.00  0.00    +0.110 C 
ENDBRANCH  17  24
BRANCH  20  25
ATOM     25  C   LIG    1       -0.889   3.100   4.774  0.00  0.00    +0.110 C 
ATOM     26  C   LIG    1       -1.040   1.871   5.673  0.00  0.00    +0.050 C 
ENDBRANCH  20  25
ENDBRANCH  14  22
ENDBRANCH   1  14
BRANCH   4  27
ATOM     27  O   LIG    1        1.547   5.982   0.832  0.00  0.00    -0.520 OA
ATOM     28  H   LIG    1        1.443   6.941   0.904  0.00  0.00    +0.390 HD
ENDBRANCH   4  27
TORSDOF 7
