REMARK  Name = ZINCrH000004nO1R.0
REMARK                            x       y       z     vdW  Elec       q    Type
REMARK                         _______ _______ _______ _____ _____    ______ ____
ROOT
ATOM      1  C   LIG    1       -2.706   2.890  -5.159  0.00  0.00    +0.560 C 
ATOM      2  N   LIG    1       -3.489   1.993  -5.791  0.00  0.00    -0.600 N 
ATOM      3  C   LIG    1       -3.779   0.689  -5.178  0.00  0.00    +0.270 C 
ATOM      4  C   LIG    1       -5.302   0.498  -5.134  0.00  0.00    +0.030 C 
ATOM      5  C   LIG    1       -5.873   0.670  -6.544  0.00  0.00    +0.030 C 
ATOM      6  C   LIG    1       -5.580   2.086  -7.045  0.00  0.00    +0.080 C 
ATOM      7  C   LIG    1       -4.064   2.298  -7.108  0.00  0.00    +0.300 C 
ATOM      8  O   LIG    1       -2.553   4.000  -5.629  0.00  0.00    -0.520 OA
ENDROOT
BRANCH   6   9
ATOM      9  C   LIG    1       -6.170   2.265  -8.420  0.00  0.00    +0.100 A 
ATOM     10  N   LIG    1       -7.052   3.144  -8.716  0.00  0.00    -0.460 NA
ATOM     11  C   LIG    1       -7.491   3.191  -9.988  0.00  0.00    +0.080 A 
ATOM     12  C   LIG    1       -8.442   4.045 -10.581  0.00  0.00    +0.080 A 
ATOM     13  C   LIG    1       -8.748   3.925 -11.903  0.00  0.00    +0.030 A 
ATOM     14  C   LIG    1       -8.130   2.964 -12.690  0.00  0.00    +0.040 A 
ATOM     15  C   LIG    1       -7.197   2.115 -12.138  0.00  0.00    +0.060 A 
ATOM     16  C   LIG    1       -6.872   2.223 -10.788  0.00  0.00    -0.180 A 
ATOM     17  S   LIG    1       -5.741   1.326  -9.779  0.00  0.00    +0.100 S 
ENDBRANCH   6   9
BRANCH   1  21
ATOM     18  C   LIG    1       -0.772   1.836  -1.527  0.00  0.00    -0.640 A 
ATOM     19  C   LIG    1       -0.882   0.904  -2.544  0.00  0.00    +0.120 A 
ATOM     20  C   LIG    1       -1.514   1.238  -3.724  0.00  0.00    +0.030 A 
ATOM     21  C   LIG    1       -2.033   2.523  -3.895  0.00  0.00    -0.070 A 
ATOM     22  C   LIG    1       -1.914   3.459  -2.867  0.00  0.00    +0.050 A 
ATOM     23  C   LIG    1       -1.285   3.111  -1.689  0.00  0.00    +0.120 A 
BRANCH  18  25
ATOM     24  C   LIG    1       -1.299   0.753   1.031  0.00  0.00    -0.250 C 
ATOM     25  S   LIG    1        0.031   1.399  -0.021  0.00  0.00    +2.500 S 
ATOM     26  O   LIG    1        0.515   2.634   0.489  0.00  0.00    -0.930 OA
ATOM     27  O   LIG    1        0.925   0.358  -0.389  0.00  0.00    -0.930 OA
ENDBRANCH  18  25
ENDBRANCH   1  21
TORSDOF 3
