REMARK  Name = ZINCqH0000033s87.0
REMARK                            x       y       z     vdW  Elec       q    Type
REMARK                         _______ _______ _______ _____ _____    ______ ____
ROOT
ATOM      1  C   LIG    1        1.676   9.852   0.038  0.00  0.00    +0.520 C 
ATOM      2  N   LIG    1        1.942   8.531   0.029  0.00  0.00    -0.620 N 
ATOM      3  H   LIG    1        2.861   8.221   0.019  0.00  0.00    +0.430 HD
ATOM      4  O   LIG    1        0.526  10.239   0.050  0.00  0.00    -0.490 OA
ENDROOT
BRANCH   1  10
ATOM      5  C   LIG    1        6.001  11.391   1.433  0.00  0.00    +0.650 C 
ATOM      6  N   LIG    1        4.694  11.700   1.324  0.00  0.00    -0.590 N 
ATOM      7  C   LIG    1        4.259  13.101   1.250  0.00  0.00    +0.290 C 
ATOM      8  C   LIG    1        3.382  13.281   0.007  0.00  0.00    +0.020 C 
ATOM      9  C   LIG    1        2.236  12.268   0.045  0.00  0.00    +0.060 C 
ATOM     10  C   LIG    1        2.806  10.848   0.033  0.00  0.00    +0.000 C 
ATOM     11  C   LIG    1        3.676  10.641   1.277  0.00  0.00    +0.320 C 
ATOM     12  O   LIG    1        6.348  10.228   1.494  0.00  0.00    -0.570 OA
BRANCH   5  13
ATOM     13  O   LIG    1        6.923  12.372   1.476  0.00  0.00    -0.370 OA
BRANCH  13  15
ATOM     14  C   LIG    1        9.205  13.208   1.627  0.00  0.00    +0.070 C 
ATOM     15  C   LIG    1        8.312  11.966   1.595  0.00  0.00    +0.220 C 
ENDBRANCH  13  15
ENDBRANCH   5  13
ENDBRANCH   1  10
BRANCH   2  16
ATOM     16  C   LIG    1        0.899   7.612   0.034  0.00  0.00    +0.270 A 
ATOM     17  N   LIG    1        1.037   6.323   0.031  0.00  0.00    -0.500 NA
ATOM     18  C   LIG    1       -0.074   5.599   0.032  0.00  0.00    +0.130 A 
ATOM     19  C   LIG    1       -1.220   6.302   0.046  0.00  0.00    -0.110 A 
ATOM     20  S   LIG    1       -0.814   8.017   0.052  0.00  0.00    +0.210 S 
BRANCH  18  21
ATOM     21  C   LIG    1       -0.054   4.116   0.024  0.00  0.00    -0.030 A 
ATOM     22  C   LIG    1        1.161   3.433   0.009  0.00  0.00    +0.080 A 
ATOM     23  C   LIG    1        1.175   2.054   0.002  0.00  0.00    -0.020 A 
ATOM     24  C   LIG    1       -0.016   1.347   0.009  0.00  0.00    +0.100 A 
ATOM     25  C   LIG    1       -1.226   2.021   0.019  0.00  0.00    -0.010 A 
ATOM     26  F   LIG    1        0.002  -0.004   0.002  0.00  0.00    -0.140 F 
ATOM     27  C   LIG    1       -1.250   3.401   0.031  0.00  0.00    +0.070 A 
ENDBRANCH  18  21
ENDBRANCH   2  16
TORSDOF 5
