REMARK  Name = ZINCrH000004nC1J.0
REMARK                            x       y       z     vdW  Elec       q    Type
REMARK                         _______ _______ _______ _____ _____    ______ ____
ROOT
ATOM      1  N   LIG    1        3.593   2.104  -0.020  0.00  0.00    -0.560 N 
ATOM      2  C   LIG    1        4.314   2.534   1.184  0.00  0.00    +0.310 C 
ATOM      3  C   LIG    1        5.746   2.871   0.706  0.00  0.00    +0.020 C 
ATOM      4  C   LIG    1        5.504   3.229  -0.779  0.00  0.00    +0.090 C 
ATOM      5  C   LIG    1        4.234   2.490  -1.137  0.00  0.00    +0.520 C 
ATOM      6  O   LIG    1        3.850   2.276  -2.267  0.00  0.00    -0.510 OA
ENDROOT
BRANCH   1  12
ATOM      7  C   LIG    1        1.172   2.071   0.005  0.00  0.00    +0.140 A 
ATOM      8  C   LIG    1       -0.016   1.359   0.019  0.00  0.00    -0.080 A 
ATOM      9  C   LIG    1        0.006  -0.024   0.021  0.00  0.00    +0.060 A 
ATOM     10  C   LIG    1        1.211  -0.700   0.010  0.00  0.00    -0.020 A 
ATOM     11  C   LIG    1        2.402   0.003  -0.004  0.00  0.00    +0.060 A 
ATOM     12  C   LIG    1        2.388   1.390  -0.006  0.00  0.00    +0.110 A 
BRANCH   7  14
ATOM     13  C   LIG    1       -0.130   4.060   0.014  0.00  0.00    +0.250 C 
ATOM     14  O   LIG    1        1.152   3.430   0.003  0.00  0.00    -0.310 OA
ENDBRANCH   7  14
ENDBRANCH   1  12
BRANCH   3  15
ATOM     15  C   LIG    1        6.658   1.677   0.831  0.00  0.00    +0.520 C 
ATOM     16  N   LIG    1        7.915   1.736   0.349  0.00  0.00    -0.670 N 
ATOM     17  H   LIG    1        8.212   2.521  -0.137  0.00  0.00    +0.420 HD
ATOM     18  O   LIG    1        6.260   0.664   1.366  0.00  0.00    -0.500 OA
BRANCH  16  19
ATOM     19  C   LIG    1        8.792   0.664   0.550  0.00  0.00    +0.180 A 
ATOM     20  C   LIG    1       10.146   0.901   0.748  0.00  0.00    +0.000 A 
ATOM     21  C   LIG    1       11.008  -0.158   0.952  0.00  0.00    +0.090 A 
ATOM     22  C   LIG    1       10.526  -1.454   0.948  0.00  0.00    -0.200 A 
ATOM     23  C   LIG    1        9.180  -1.694   0.746  0.00  0.00    +0.090 A 
ATOM     24  C   LIG    1        8.311  -0.638   0.547  0.00  0.00    +0.030 A 
BRANCH  22  25
ATOM     25  C   LIG    1       11.471  -2.608   1.165  0.00  0.00    +0.510 C 
ATOM     26  F   LIG    1       10.787  -3.661   1.784  0.00  0.00    -0.180 F 
ATOM     27  F   LIG    1       12.530  -2.197   1.981  0.00  0.00    -0.180 F 
ATOM     28  F   LIG    1       11.972  -3.039  -0.068  0.00  0.00    -0.180 F 
ENDBRANCH  22  25
ENDBRANCH  16  19
ENDBRANCH   3  15
TORSDOF 5
