REMARK  Name = ZINCqH0000001px4.0
REMARK                            x       y       z     vdW  Elec       q    Type
REMARK                         _______ _______ _______ _____ _____    ______ ____
ROOT
ATOM      1  C   LIG    1        1.366   8.384   0.665  0.00  0.00    +0.510 C 
ATOM      2  N   LIG    1        0.170   7.910   1.065  0.00  0.00    -0.680 N 
ATOM      3  H   LIG    1       -0.559   8.524   1.248  0.00  0.00    +0.410 HD
ATOM      4  O   LIG    1        2.303   7.626   0.526  0.00  0.00    -0.480 OA
ENDROOT
BRANCH   2   5
ATOM      5  C   LIG    1       -0.023   6.530   1.216  0.00  0.00    +0.150 A 
ATOM      6  C   LIG    1       -1.250   5.962   0.901  0.00  0.00    +0.000 A 
ATOM      7  C   LIG    1       -1.440   4.602   1.049  0.00  0.00    +0.050 A 
ATOM      8  C   LIG    1       -0.403   3.803   1.513  0.00  0.00    -0.110 A 
ATOM      9  C   LIG    1        0.824   4.373   1.834  0.00  0.00    +0.020 A 
ATOM     10  C   LIG    1        1.014   5.731   1.680  0.00  0.00    +0.040 A 
BRANCH   8  11
ATOM     11  S   LIG    1       -0.644   2.068   1.702  0.00  0.00    -0.000 S 
BRANCH  11  12
ATOM     12  C   LIG    1        0.861   1.537   2.449  0.00  0.00    -0.130 A 
ATOM     13  C   LIG    1        1.892   1.041   1.661  0.00  0.00    +0.080 A 
ATOM     14  C   LIG    1        3.068   0.620   2.250  0.00  0.00    +0.040 A 
ATOM     15  C   LIG    1        3.220   0.692   3.623  0.00  0.00    -0.060 A 
ATOM     16  C   LIG    1        2.195   1.186   4.411  0.00  0.00    +0.040 A 
ATOM     17 BR   LIG    1        4.832   0.115   4.425  0.00  0.00    -0.040 Br
ATOM     18  C   LIG    1        1.017   1.608   3.828  0.00  0.00    +0.080 A 
ENDBRANCH  11  12
ENDBRANCH   8  11
ENDBRANCH   2   5
BRANCH   1  19
ATOM     19  C   LIG    1        1.541   9.855   0.393  0.00  0.00    +0.220 C 
BRANCH  19  20
ATOM     20  N   LIG    1        2.883  10.096  -0.153  0.00  0.00    -0.500 NA
BRANCH  20  22
ATOM     21  C   LIG    1        2.570   8.373  -1.865  0.00  0.00    +0.040 C 
ATOM     22  C   LIG    1        2.917   9.839  -1.599  0.00  0.00    +0.180 C 
ATOM     23  C   LIG    1        1.899  10.740  -2.301  0.00  0.00    +0.000 C 
ENDBRANCH  20  22
BRANCH  20  24
ATOM     24  C   LIG    1        3.338  11.460   0.150  0.00  0.00    +0.210 C 
BRANCH  24  25
ATOM     25  C   LIG    1        4.830  11.546  -0.042  0.00  0.00    +0.510 C 
ATOM     26  O   LIG    1        5.452  10.570  -0.406  0.00  0.00    -0.520 OA
ATOM     27  N   LIG    1        5.473  12.707   0.190  0.00  0.00    -0.860 N 
ATOM     28  H   LIG    1        6.434  12.763   0.066  0.00  0.00    +0.400 HD
ATOM     29  H   LIG    1        4.976  13.488   0.480  0.00  0.00    +0.400 HD
ENDBRANCH  24  25
ENDBRANCH  20  24
ENDBRANCH  19  20
ENDBRANCH   1  19
TORSDOF 8
