REMARK  Name = ZINCpk00000k10gR.0
REMARK                            x       y       z     vdW  Elec       q    Type
REMARK                         _______ _______ _______ _____ _____    ______ ____
ROOT
ATOM      1  C   LIG    1       -4.168  -0.172  -2.919  0.00  0.00    +0.220 C 
ATOM      2  N   LIG    1       -3.262   0.981  -3.011  0.00  0.00    -0.480 N 
ATOM      3  C   LIG    1       -2.026   0.741  -2.255  0.00  0.00    +0.190 C 
ATOM      4  C   LIG    1       -0.844   1.410  -2.947  0.00  0.00    +0.300 C 
ATOM      5  N   LIG    1       -0.995   2.861  -2.991  0.00  0.00    -0.600 N 
ATOM      6  C   LIG    1       -2.114   3.466  -3.728  0.00  0.00    +0.350 C 
ATOM      7  C   LIG    1       -3.349   3.387  -2.858  0.00  0.00    -0.160 A 
ATOM      8  C   LIG    1       -3.938   4.531  -2.365  0.00  0.00    +0.090 A 
ATOM      9  C   LIG    1       -5.083   4.394  -1.587  0.00  0.00    -0.050 A 
ATOM     10  C   LIG    1       -5.583   3.131  -1.344  0.00  0.00    +0.280 A 
ATOM     11  N   LIG    1       -4.989   2.056  -1.827  0.00  0.00    -0.520 NA
ATOM     12  C   LIG    1       -0.106   3.648  -2.354  0.00  0.00    +0.560 C 
ATOM     13  O   LIG    1        0.757   3.151  -1.657  0.00  0.00    -0.520 OA
ATOM     14  C   LIG    1       -3.889   2.143  -2.564  0.00  0.00    +0.320 A 
ENDROOT
BRANCH  12  15
ATOM     15  C   LIG    1       -0.180   5.119  -2.503  0.00  0.00    -0.090 A 
ATOM     16  C   LIG    1       -0.193   5.934  -1.364  0.00  0.00    +0.080 A 
ATOM     17  C   LIG    1       -0.261   7.293  -1.479  0.00  0.00    +0.100 A 
ATOM     18  C   LIG    1       -0.319   7.881  -2.742  0.00  0.00    -0.110 A 
ATOM     19  C   LIG    1       -0.394   9.339  -2.917  0.00  0.00    +0.530 A 
ATOM     20  N   LIG    1       -0.447   9.841  -4.167  0.00  0.00    -0.530 N 
ATOM     21  H   LIG    1       -0.497  10.802  -4.288  0.00  0.00    +0.440 HD
ATOM     22  N   LIG    1       -0.433   9.016  -5.292  0.00  0.00    -0.230 NA
ATOM     23  C   LIG    1       -0.368   7.720  -5.211  0.00  0.00    +0.320 A 
ATOM     24  O   LIG    1       -0.408  10.079  -1.950  0.00  0.00    -0.510 OA
ATOM     25  C   LIG    1       -0.306   7.071  -3.901  0.00  0.00    -0.070 A 
ATOM     26  C   LIG    1       -0.231   5.683  -3.772  0.00  0.00    +0.080 A 
ENDBRANCH  12  15
TORSDOF 1
