REMARK  Name = ZINCrg00001Jdv23.0
REMARK                            x       y       z     vdW  Elec       q    Type
REMARK                         _______ _______ _______ _____ _____    ______ ____
ROOT
ATOM      1  C   LIG    1       -3.699  -0.773   0.043  0.00  0.00    +0.250 C 
ATOM      2  C   LIG    1       -4.168  -0.358   1.443  0.00  0.00    +0.310 C 
ATOM      3  N   LIG    1       -3.445  -1.161   2.439  0.00  0.00    -0.600 N 
ATOM      4  C   LIG    1       -3.495  -2.626   2.338  0.00  0.00    +0.240 C 
ATOM      5  C   LIG    1       -3.029  -3.042   0.942  0.00  0.00    +0.300 C 
ATOM      6  C   LIG    1       -4.929  -3.108   2.562  0.00  0.00    +0.040 C 
ATOM      7  C   LIG    1       -2.745  -0.564   3.424  0.00  0.00    +0.570 C 
ATOM      8  O   LIG    1       -2.104  -1.236   4.207  0.00  0.00    -0.510 OA
ATOM      9  N   LIG    1       -3.752  -2.239  -0.054  0.00  0.00    -0.600 N 
ATOM     10  C   LIG    1       -4.452  -2.836  -1.039  0.00  0.00    +0.560 C 
ATOM     11  O   LIG    1       -5.128  -2.167  -1.796  0.00  0.00    -0.490 OA
ENDROOT
BRANCH   7  12
ATOM     12  C   LIG    1       -2.757   0.912   3.551  0.00  0.00    -0.090 A 
ATOM     13  C   LIG    1       -3.921   1.645   3.304  0.00  0.00    +0.000 A 
ATOM     14  C   LIG    1       -3.889   3.020   3.439  0.00  0.00    +0.270 A 
ATOM     15  N   LIG    1       -2.779   3.640   3.787  0.00  0.00    -0.470 NA
ATOM     16  C   LIG    1       -1.658   2.987   4.024  0.00  0.00    +0.270 A 
ATOM     17  C   LIG    1       -1.602   1.611   3.917  0.00  0.00    +0.030 A 
ENDBRANCH   7  12
BRANCH  10  18
ATOM     18  C   LIG    1       -4.397  -4.308  -1.200  0.00  0.00    -0.080 A 
ATOM     19  C   LIG    1       -3.172  -4.979  -1.260  0.00  0.00    -0.010 A 
ATOM     20  C   LIG    1       -3.168  -6.353  -1.405  0.00  0.00    +0.270 A 
ATOM     21  N   LIG    1       -4.296  -7.027  -1.496  0.00  0.00    -0.470 NA
ATOM     22  C   LIG    1       -5.472  -6.433  -1.450  0.00  0.00    +0.280 A 
ATOM     23  C   LIG    1       -5.569  -5.063  -1.301  0.00  0.00    +0.020 A 
ENDBRANCH  10  18
BRANCH   1  24
ATOM     24  C   LIG    1       -4.601  -0.161  -0.996  0.00  0.00    +0.480 C 
ATOM     25  O   LIG    1       -5.801  -0.260  -0.889  0.00  0.00    -0.480 OA
BRANCH  24  27
ATOM     26  C   LIG    1       -5.002   1.060  -3.003  0.00  0.00    +0.270 C 
ATOM     27  O   LIG    1       -4.073   0.495  -2.041  0.00  0.00    -0.360 OA
ENDBRANCH  24  27
ENDBRANCH   1  24
TORSDOF 4
