REMARK  Name = ZINCrH000004sDDm.0
REMARK                            x       y       z     vdW  Elec       q    Type
REMARK                         _______ _______ _______ _____ _____    ______ ____
ROOT
ATOM      1  N   LIG    1        7.629   0.679   0.058  0.00  0.00    -0.680 N 
ATOM      2  H   LIG    1        8.119   0.205   0.748  0.00  0.00    +0.410 HD
ATOM      3  C   LIG    1        8.295   1.313  -0.926  0.00  0.00    +0.520 C 
ATOM      4  O   LIG    1        7.688   1.984  -1.735  0.00  0.00    -0.510 OA
ENDROOT
BRANCH   1   8
ATOM      5  C   LIG    1        3.461   0.751   0.139  0.00  0.00    +0.100 A 
ATOM      6  C   LIG    1        4.132   0.738  -1.076  0.00  0.00    +0.040 A 
ATOM      7  C   LIG    1        5.512   0.720  -1.103  0.00  0.00    +0.040 A 
ATOM      8  C   LIG    1        6.229   0.703   0.085  0.00  0.00    +0.150 A 
ATOM      9  C   LIG    1        5.558   0.711   1.301  0.00  0.00    +0.010 A 
ATOM     10  C   LIG    1        4.178   0.735   1.328  0.00  0.00    +0.050 A 
BRANCH   5  14
ATOM     11  C   LIG    1       -1.265   1.984  -0.735  0.00  0.00    +0.140 C 
ATOM     12  C   LIG    1       -0.024   1.311  -0.209  0.00  0.00    +0.000 A 
ATOM     13  C   LIG    1        1.245   1.636  -0.523  0.00  0.00    -0.020 A 
ATOM     14  N   LIG    1        2.058   0.775   0.167  0.00  0.00    -0.410 N 
ATOM     15  C   LIG    1        1.251  -0.050   0.881  0.00  0.00    +0.400 A 
ATOM     16  C   LIG    1        1.685   2.736  -1.455  0.00  0.00    +0.140 C 
ATOM     17  N   LIG    1        0.009   0.280   0.649  0.00  0.00    -0.480 NA
ENDBRANCH   5  14
ENDBRANCH   1   8
BRANCH   3  18
ATOM     18  C   LIG    1        9.794   1.190  -1.024  0.00  0.00    -0.010 C 
ATOM     19  C   LIG    1       10.436   1.731   0.257  0.00  0.00    +0.050 C 
ATOM     20  C   LIG    1       11.959   1.659   0.127  0.00  0.00    +0.200 C 
ATOM     21  N   LIG    1       12.392   2.451  -1.031  0.00  0.00    -0.530 NA
ATOM     22  C   LIG    1       11.825   1.921  -2.278  0.00  0.00    +0.180 C 
ATOM     23  C   LIG    1       10.298   2.001  -2.220  0.00  0.00    +0.060 C 
BRANCH  21  24
ATOM     24  C   LIG    1       13.857   2.519  -1.106  0.00  0.00    +0.220 C 
BRANCH  24  25
ATOM     25  C   LIG    1       14.270   3.725  -1.951  0.00  0.00    +0.460 C 
ATOM     26  F   LIG    1       13.860   3.529  -3.275  0.00  0.00    -0.180 F 
ATOM     27  F   LIG    1       15.661   3.870  -1.910  0.00  0.00    -0.180 F 
ATOM     28  F   LIG    1       13.666   4.880  -1.442  0.00  0.00    -0.170 F 
ENDBRANCH  24  25
ENDBRANCH  21  24
ENDBRANCH   3  18
TORSDOF 5
