REMARK  Name = ZINCAx0000000jH4.0
REMARK                            x       y       z     vdW  Elec       q    Type
REMARK                         _______ _______ _______ _____ _____    ______ ____
ROOT
ATOM      1  C   LIG    1        2.195   0.711  -2.170  0.00  0.00    +0.450 C 
ATOM      2  O   LIG    1        1.552   1.553  -2.752  0.00  0.00    -0.470 OA
ENDROOT
BRANCH   1   3
ATOM      3  C   LIG    1        1.813   0.307  -0.769  0.00  0.00    +0.410 C 
ATOM      4  C   LIG    1        1.554  -1.198  -0.726  0.00  0.00    +0.100 C 
ATOM      5  C   LIG    1        2.731  -1.751   0.100  0.00  0.00    +0.100 C 
ATOM      6  C   LIG    1        3.543  -0.548   0.513  0.00  0.00    +0.540 C 
ATOM      7  O   LIG    1        4.604  -0.600   1.098  0.00  0.00    -0.480 OA
ATOM      8  N   LIG    1        0.643   1.069  -0.336  0.00  0.00    -0.580 N 
ATOM      9  C   LIG    1        0.785   2.243   0.318  0.00  0.00    +0.580 C 
ATOM     10  O   LIG    1       -0.201   2.870   0.654  0.00  0.00    -0.500 OA
ATOM     11  C   LIG    1        2.128   2.767   0.625  0.00  0.00    -0.170 A 
ATOM     12  C   LIG    1        2.341   4.092   0.990  0.00  0.00    +0.110 A 
ATOM     13  C   LIG    1        3.622   4.521   1.277  0.00  0.00    +0.000 A 
ATOM     14  C   LIG    1        4.693   3.646   1.207  0.00  0.00    +0.080 A 
ATOM     15  C   LIG    1        4.498   2.325   0.841  0.00  0.00    +0.020 A 
ATOM     16  C   LIG    1        3.226   1.887   0.545  0.00  0.00    +0.180 A 
ATOM     17  N   LIG    1        2.933   0.581   0.145  0.00  0.00    -0.560 N 
BRANCH   8  18
ATOM     18  C   LIG    1       -0.700   0.550  -0.609  0.00  0.00    +0.190 C 
ATOM     19  C   LIG    1       -1.726   1.521  -1.197  0.00  0.00    +0.070 C 
ATOM     20  C   LIG    1       -1.122   0.421  -2.074  0.00  0.00    +0.030 C 
ENDBRANCH   8  18
ENDBRANCH   1   3
BRANCH   1  21
ATOM     21  O   LIG    1        3.248   0.135  -2.771  0.00  0.00    -0.320 OA
BRANCH  21  22
ATOM     22  C   LIG    1        3.557   0.573  -4.120  0.00  0.00    +0.270 C 
BRANCH  22  24
ATOM     23  N   LIG    1        5.233   0.065  -5.867  0.00  0.00    -0.570 N 
ATOM     24  C   LIG    1        4.761  -0.178  -4.628  0.00  0.00    +0.520 C 
ATOM     25  O   LIG    1        5.304  -1.001  -3.923  0.00  0.00    -0.480 OA
BRANCH  23  26
ATOM     26  C   LIG    1        6.279  -0.711  -6.383  0.00  0.00    +0.120 A 
ATOM     27  C   LIG    1        7.555  -0.602  -5.847  0.00  0.00    +0.070 A 
ATOM     28  C   LIG    1        8.584  -1.372  -6.353  0.00  0.00    +0.000 A 
ATOM     29  C   LIG    1        8.345  -2.245  -7.401  0.00  0.00    +0.110 A 
ATOM     30  C   LIG    1        7.074  -2.351  -7.940  0.00  0.00    +0.000 A 
ATOM     31  F   LIG    1        9.354  -2.994  -7.898  0.00  0.00    -0.130 F 
ATOM     32  C   LIG    1        6.042  -1.587  -7.434  0.00  0.00    +0.060 A 
ENDBRANCH  23  26
BRANCH  23  33
ATOM     33  C   LIG    1        4.653   1.141  -6.675  0.00  0.00    +0.310 C 
BRANCH  33  34
ATOM     34  C   LIG    1        5.409   2.444  -6.408  0.00  0.00    +0.180 C 
BRANCH  34  36
ATOM     35  N   LIG    1        4.376   4.359  -7.845  0.00  0.00    -0.410 NA
ATOM     36  C   LIG    1        4.826   3.525  -7.219  0.00  0.00    +0.200 C 
ENDBRANCH  34  36
ENDBRANCH  33  34
ENDBRANCH  23  33
ENDBRANCH  22  24
ENDBRANCH  21  22
ENDBRANCH   1  21
TORSDOF 9
