REMARK  Name = ZINCtV000002D0xz.0
REMARK                            x       y       z     vdW  Elec       q    Type
REMARK                         _______ _______ _______ _____ _____    ______ ____
ROOT
ATOM      1  C   LIG    1        3.975  -1.326  -0.043  0.00  0.00    +0.460 A 
ATOM      2  N   LIG    1        3.081  -2.275  -0.040  0.00  0.00    -0.560 NA
ATOM      3  C   LIG    1        1.766  -1.997  -0.026  0.00  0.00    +0.540 A 
ATOM      4  C   LIG    1        1.338  -0.585  -0.014  0.00  0.00    -0.210 A 
ATOM      5  C   LIG    1        2.330   0.379  -0.018  0.00  0.00    +0.050 A 
ATOM      6  S   LIG    1        1.612   1.982  -0.003  0.00  0.00    +0.220 S 
ATOM      7  C   LIG    1       -0.016   1.331   0.009  0.00  0.00    -0.010 A 
ATOM      8  C   LIG    1        0.002  -0.004   0.002  0.00  0.00    +0.040 A 
ATOM      9  O   LIG    1        0.941  -2.896  -0.023  0.00  0.00    -0.460 OA
ATOM     10  N   LIG    1        3.648  -0.024  -0.033  0.00  0.00    -0.580 N 
ATOM     11  H   LIG    1        4.351   0.644  -0.036  0.00  0.00    +0.420 HD
ENDROOT
BRANCH   8  12
ATOM     12  C   LIG    1       -1.228  -0.822   0.009  0.00  0.00    +0.040 A 
ATOM     13  C   LIG    1       -2.274  -0.683   0.867  0.00  0.00    -0.030 A 
ATOM     14  C   LIG    1       -3.223  -1.663   0.511  0.00  0.00    -0.070 A 
ATOM     15  C   LIG    1       -2.712  -2.350  -0.528  0.00  0.00    +0.180 A 
ATOM     16  O   LIG    1       -1.505  -1.839  -0.829  0.00  0.00    -0.150 OA
ENDBRANCH   8  12
BRANCH   1  18
ATOM     17  C   LIG    1        5.881  -1.948  -1.502  0.00  0.00    +0.100 C 
ATOM     18  C   LIG    1        5.433  -1.706  -0.059  0.00  0.00    +0.110 C 
BRANCH  18  19
ATOM     19  S   LIG    1        6.416  -0.362   0.662  0.00  0.00    -0.020 S 
BRANCH  19  20
ATOM     20  C   LIG    1        8.044  -1.036   0.695  0.00  0.00    +0.160 A 
ATOM     21  N   LIG    1        8.256  -2.263   0.244  0.00  0.00    -0.470 NA
ATOM     22  C   LIG    1        9.460  -2.804   0.251  0.00  0.00    +0.370 A 
ATOM     23  C   LIG    1       10.548  -2.106   0.733  0.00  0.00    -0.230 A 
ATOM     24  C   LIG    1       10.370  -0.816   1.216  0.00  0.00    +0.180 A 
ATOM     25  C   LIG    1        9.098  -0.272   1.191  0.00  0.00    -0.080 A 
ATOM     26 CL   LIG    1        8.818   1.339   1.776  0.00  0.00    -0.010 Cl
BRANCH  23  27
ATOM     27  C   LIG    1       11.917  -2.736   0.735  0.00  0.00    +0.520 C 
ATOM     28  F   LIG    1       12.398  -2.802   2.047  0.00  0.00    -0.170 F 
ATOM     29  F   LIG    1       12.787  -1.965  -0.043  0.00  0.00    -0.170 F 
ATOM     30  F   LIG    1       11.836  -4.028   0.203  0.00  0.00    -0.170 F 
ENDBRANCH  23  27
ENDBRANCH  19  20
ENDBRANCH  18  19
ENDBRANCH   1  18
TORSDOF 5
