REMARK  Name = ZINCqH0000005gA2.0
REMARK                            x       y       z     vdW  Elec       q    Type
REMARK                         _______ _______ _______ _____ _____    ______ ____
ROOT
ATOM      1  C   LIG    1       -2.055   2.129   3.721  0.00  0.00    +0.300 C 
ATOM      2  N   LIG    1       -1.370   0.848   3.527  0.00  0.00    -0.610 N 
ATOM      3  C   LIG    1       -0.756   0.583   2.357  0.00  0.00    +0.530 C 
ATOM      4  O   LIG    1       -0.189  -0.477   2.196  0.00  0.00    -0.520 OA
ENDROOT
BRANCH   3   5
ATOM      5  C   LIG    1       -0.775   1.603   1.248  0.00  0.00    +0.000 C 
ATOM      6  C   LIG    1       -2.205   1.785   0.683  0.00  0.00    +0.090 C 
ATOM      7  C   LIG    1       -1.996   1.984  -0.801  0.00  0.00    +0.530 C 
ATOM      8  N   LIG    1       -0.759   1.590  -1.151  0.00  0.00    -0.580 N 
ATOM      9  O   LIG    1       -2.823   2.435  -1.565  0.00  0.00    -0.510 OA
ATOM     10  C   LIG    1       -0.013   1.086   0.008  0.00  0.00    +0.310 C 
BRANCH   8  11
ATOM     11  C   LIG    1       -0.248   1.653  -2.453  0.00  0.00    +0.170 A 
ATOM     12  C   LIG    1       -0.408   0.577  -3.315  0.00  0.00    +0.040 A 
ATOM     13  C   LIG    1        0.097   0.642  -4.599  0.00  0.00    +0.040 A 
ATOM     14  C   LIG    1        0.761   1.777  -5.026  0.00  0.00    +0.030 A 
ATOM     15  C   LIG    1        0.922   2.850  -4.170  0.00  0.00    +0.050 A 
ATOM     16  C   LIG    1        0.415   2.794  -2.886  0.00  0.00    -0.090 A 
ATOM     17 BR   LIG    1        0.629   4.266  -1.718  0.00  0.00    -0.040 Br
ENDBRANCH   8  11
ENDBRANCH   3   5
BRANCH   2  18
ATOM     18  C   LIG    1       -1.352  -0.144   4.605  0.00  0.00    +0.360 C 
BRANCH  18  19
ATOM     19  C   LIG    1       -0.144   0.083   5.477  0.00  0.00    -0.090 A 
ATOM     20  C   LIG    1        1.046  -0.557   5.187  0.00  0.00    +0.070 A 
ATOM     21  C   LIG    1        2.158  -0.346   5.982  0.00  0.00    +0.020 A 
ATOM     22  C   LIG    1        2.076   0.498   7.075  0.00  0.00    +0.070 A 
ATOM     23  C   LIG    1        0.881   1.137   7.369  0.00  0.00    +0.060 A 
ATOM     24  F   LIG    1        0.799   1.962   8.435  0.00  0.00    -0.130 F 
ATOM     25  F   LIG    1        3.160   0.701   7.855  0.00  0.00    -0.130 F 
ATOM     26  C   LIG    1       -0.228   0.928   6.568  0.00  0.00    +0.040 A 
ENDBRANCH  18  19
ENDBRANCH   2  18
TORSDOF 4
