REMARK  Name = ZINCrD000000D6B3.0
REMARK                            x       y       z     vdW  Elec       q    Type
REMARK                         _______ _______ _______ _____ _____    ______ ____
ROOT
ATOM      1  C   LIG    1        0.130  -0.029   0.499  0.00  0.00    +0.300 C 
ENDROOT
BRANCH   1   5
ATOM      2  C   LIG    1        2.619  -0.642   3.100  0.00  0.00    -0.580 A 
ATOM      3  C   LIG    1        1.512  -0.623   3.864  0.00  0.00    +0.090 A 
ATOM      4  C   LIG    1        0.419  -0.390   2.997  0.00  0.00    -0.040 A 
ATOM      5  C   LIG    1        0.924  -0.281   1.754  0.00  0.00    +0.040 A 
ATOM      6  O   LIG    1        2.256  -0.440   1.823  0.00  0.00    -0.120 OA
BRANCH   2   8
ATOM      7  O   LIG    1        5.124  -0.309   2.709  0.00  0.00    -0.930 OA
ATOM      8  S   LIG    1        4.264  -0.896   3.676  0.00  0.00    +2.740 S 
ATOM      9  O   LIG    1        4.270  -0.527   5.048  0.00  0.00    -0.930 OA
BRANCH   8  10
ATOM     10  N   LIG    1        4.553  -2.526   3.630  0.00  0.00    -1.010 NA
ATOM     11  C   LIG    1        4.300  -3.473   4.726  0.00  0.00    +0.260 C 
ATOM     12  C   LIG    1        4.742  -4.868   4.238  0.00  0.00    +0.030 C 
ATOM     13  C   LIG    1        5.750  -4.535   3.106  0.00  0.00    +0.040 C 
ATOM     14  C   LIG    1        5.112  -3.268   2.485  0.00  0.00    +0.270 C 
ENDBRANCH   8  10
ENDBRANCH   2   8
ENDBRANCH   1   5
BRANCH   1  15
ATOM     15  N   LIG    1        0.019   1.418   0.271  0.00  0.00    -0.520 NA
BRANCH  15  16
ATOM     16  C   LIG    1       -0.941   1.710  -0.802  0.00  0.00    +0.200 C 
BRANCH  16  17
ATOM     17  C   LIG    1       -2.365   1.532  -0.274  0.00  0.00    +0.150 C 
ATOM     18  C   LIG    1       -3.392   1.795  -1.398  0.00  0.00    +0.010 C 
ATOM     19  C   LIG    1       -4.558   2.511  -0.681  0.00  0.00    +0.010 C 
ATOM     20  C   LIG    1       -4.098   2.597   0.791  0.00  0.00    +0.190 C 
ATOM     21  O   LIG    1       -2.657   2.526   0.732  0.00  0.00    -0.350 OA
ENDBRANCH  16  17
ENDBRANCH  15  16
BRANCH  15  22
ATOM     22  C   LIG    1        1.333   2.006  -0.022  0.00  0.00    +0.270 C 
BRANCH  22  23
ATOM     23  C   LIG    1        1.260   3.503   0.138  0.00  0.00    -0.170 A 
ATOM     24  C   LIG    1        1.397   4.160   1.291  0.00  0.00    +0.030 A 
ATOM     25  C   LIG    1        1.294   5.537   1.193  0.00  0.00    +0.010 A 
ATOM     26  C   LIG    1        1.065   5.998  -0.038  0.00  0.00    -0.050 A 
ATOM     27  S   LIG    1        0.974   4.650  -1.165  0.00  0.00    +0.090 S 
ENDBRANCH  22  23
ENDBRANCH  15  22
ENDBRANCH   1  15
TORSDOF 8
