REMARK  Name = ZINCpk00000ebfFg.0
REMARK                            x       y       z     vdW  Elec       q    Type
REMARK                         _______ _______ _______ _____ _____    ______ ____
ROOT
ATOM      1  N   LIG    1        0.007  -3.230   1.473  0.00  0.00    -0.600 N 
ATOM      2  H   LIG    1        0.090  -4.104   1.062  0.00  0.00    +0.430 HD
ATOM      3  C   LIG    1       -0.011  -3.116   2.816  0.00  0.00    +0.510 C 
ATOM      4  O   LIG    1       -0.114  -2.021   3.331  0.00  0.00    -0.510 OA
ENDROOT
BRANCH   3   5
ATOM      5  C   LIG    1        0.095  -4.336   3.670  0.00  0.00    +0.510 C 
ATOM      6  N   LIG    1        0.207  -4.215   5.008  0.00  0.00    -0.580 N 
ATOM      7  C   LIG    1        0.204  -2.891   5.651  0.00  0.00    +0.260 C 
ATOM      8  C   LIG    1        1.406  -2.803   6.591  0.00  0.00    +0.210 C 
ATOM      9  O   LIG    1        1.407  -3.935   7.464  0.00  0.00    -0.370 OA
ATOM     10  C   LIG    1        1.548  -5.191   6.794  0.00  0.00    +0.100 C 
ATOM     11  C   LIG    1        2.828  -5.182   5.962  0.00  0.00    +0.020 C 
ATOM     12  C   LIG    1        4.004  -4.704   6.818  0.00  0.00    +0.110 C 
ATOM     13  S   LIG    1        4.262  -5.886   8.174  0.00  0.00    -0.260 S 
ATOM     14  C   LIG    1        2.607  -5.981   8.921  0.00  0.00    +0.130 C 
ATOM     15  C   LIG    1        1.590  -6.315   7.827  0.00  0.00    +0.070 C 
ATOM     16  C   LIG    1        0.343  -5.401   5.867  0.00  0.00    +0.290 C 
ATOM     17  O   LIG    1        0.079  -5.437   3.160  0.00  0.00    -0.510 OA
ENDBRANCH   3   5
BRANCH   1  21
ATOM     18  C   LIG    1       -0.411   1.460   0.043  0.00  0.00    +0.380 C 
ATOM     19  N   LIG    1       -0.277   0.001   0.026  0.00  0.00    -0.360 N 
ATOM     20  C   LIG    1       -0.211  -0.803   1.111  0.00  0.00    +0.270 A 
ATOM     21  C   LIG    1       -0.092  -2.082   0.669  0.00  0.00    +0.010 A 
ATOM     22  C   LIG    1       -0.087  -2.051  -0.734  0.00  0.00    -0.010 A 
ATOM     23  N   LIG    1       -0.203  -0.806  -1.116  0.00  0.00    -0.240 NA
BRANCH  22  24
ATOM     24  C   LIG    1        0.027  -3.248  -1.643  0.00  0.00    +0.500 C 
ATOM     25  F   LIG    1        0.776  -4.245  -1.010  0.00  0.00    -0.190 F 
ATOM     26  F   LIG    1        0.662  -2.872  -2.831  0.00  0.00    -0.180 F 
ENDBRANCH  22  24
ENDBRANCH   1  21
TORSDOF 3
