REMARK  Name = ZINCrD00000F5LpC.0
REMARK                            x       y       z     vdW  Elec       q    Type
REMARK                         _______ _______ _______ _____ _____    ______ ____
ROOT
ATOM      1  N   LIG    1        2.676   6.517  -0.363  0.00  0.00    -0.410 N 
ATOM      2  C   LIG    1        2.256   7.820  -0.333  0.00  0.00    +0.170 A 
ATOM      3  C   LIG    1        3.156   8.758  -0.015  0.00  0.00    -0.050 A 
ATOM      4  S   LIG    1        4.679   7.893   0.258  0.00  0.00    +0.110 S 
ATOM      5  C   LIG    1        3.996   6.290  -0.072  0.00  0.00    +0.340 A 
ATOM      6  N   LIG    1        4.618   5.138  -0.045  0.00  0.00    -0.510 NA
ENDROOT
BRANCH   2   7
ATOM      7  C   LIG    1        0.853   8.178  -0.637  0.00  0.00    -0.070 A 
ATOM      8  C   LIG    1       -0.194   7.445  -0.071  0.00  0.00    +0.100 A 
ATOM      9  C   LIG    1       -1.503   7.774  -0.350  0.00  0.00    -0.010 A 
ATOM     10  C   LIG    1       -1.791   8.836  -1.195  0.00  0.00    +0.190 A 
ATOM     11  C   LIG    1       -0.749   9.579  -1.768  0.00  0.00    -0.170 A 
ATOM     12  C   LIG    1        0.575   9.249  -1.481  0.00  0.00    +0.100 A 
BRANCH  11  13
ATOM     13  C   LIG    1       -1.053  10.709  -2.667  0.00  0.00    +0.560 C 
ATOM     14  O   LIG    1       -2.208  10.997  -2.913  0.00  0.00    -0.520 OA
ATOM     15  N   LIG    1       -0.049  11.421  -3.217  0.00  0.00    -0.850 N 
ATOM     16  H   LIG    1       -0.248  12.164  -3.808  0.00  0.00    +0.410 HD
ATOM     17  H   LIG    1        0.873  11.191  -3.021  0.00  0.00    +0.400 HD
ENDBRANCH  11  13
BRANCH  10  18
ATOM     18  O   LIG    1       -3.082   9.156  -1.467  0.00  0.00    -0.480 OA
ATOM     19  H   LIG    1       -3.465   9.797  -0.853  0.00  0.00    +0.400 HD
ENDBRANCH  10  18
ENDBRANCH   2   7
BRANCH   6  20
ATOM     20  C   LIG    1        3.860   3.892  -0.181  0.00  0.00    +0.100 C 
ATOM     21  C   LIG    1        4.615   2.579   0.035  0.00  0.00    +0.050 C 
ATOM     22  C   LIG    1        4.188   2.993  -1.375  0.00  0.00    +0.020 C 
ENDBRANCH   6  20
BRANCH   1  24
ATOM     23  C   LIG    1        1.865   4.901  -1.850  0.00  0.00    +0.360 C 
ATOM     24  N   LIG    1        1.802   5.469  -0.681  0.00  0.00    -0.280 NA
BRANCH  23  27
ATOM     25  C   LIG    1        1.931   3.357  -4.455  0.00  0.00    +0.120 C 
ATOM     26  C   LIG    1        0.886   3.168  -3.386  0.00  0.00    -0.040 A 
ATOM     27  C   LIG    1        0.883   3.878  -2.222  0.00  0.00    -0.200 A 
ATOM     28  S   LIG    1       -0.485   3.375  -1.237  0.00  0.00    +0.180 S 
ATOM     29  C   LIG    1       -0.988   2.222  -2.466  0.00  0.00    -0.020 A 
ATOM     30  C   LIG    1       -0.145   2.262  -3.502  0.00  0.00    +0.010 A 
ENDBRANCH  23  27
ENDBRANCH   1  24
TORSDOF 6
