REMARK  Name = ZINCqH000005108T.0
REMARK                            x       y       z     vdW  Elec       q    Type
REMARK                         _______ _______ _______ _____ _____    ______ ____
ROOT
ATOM      1  N   LIG    1        1.157   3.490   0.009  0.00  0.00    -0.660 N 
ATOM      2  H   LIG    1        1.988   3.984   0.085  0.00  0.00    +0.420 HD
ATOM      3  C   LIG    1       -0.014   4.150  -0.078  0.00  0.00    +0.520 C 
ATOM      4  O   LIG    1       -1.060   3.534  -0.072  0.00  0.00    -0.490 OA
ENDROOT
BRANCH   1  10
ATOM      5  C   LIG    1        2.235   1.394   0.577  0.00  0.00    -0.120 A 
ATOM      6  C   LIG    1        2.245   0.007   0.555  0.00  0.00    +0.020 A 
ATOM      7  C   LIG    1        1.209  -0.683  -0.046  0.00  0.00    +0.020 A 
ATOM      8  C   LIG    1        0.160   0.005  -0.627  0.00  0.00    +0.040 A 
ATOM      9  C   LIG    1        0.140   1.388  -0.609  0.00  0.00    +0.040 A 
ATOM     10  C   LIG    1        1.175   2.088  -0.009  0.00  0.00    +0.170 A 
BRANCH   5  11
ATOM     11  S   LIG    1        3.554   2.276   1.341  0.00  0.00    -0.080 S 
BRANCH  11  12
ATOM     12  C   LIG    1        4.643   0.951   1.931  0.00  0.00    +0.260 C 
BRANCH  12  14
ATOM     13  N   LIG    1        6.714   1.994   3.124  0.00  0.00    -0.390 NA
ATOM     14  C   LIG    1        5.812   1.540   2.604  0.00  0.00    +0.210 C 
ENDBRANCH  12  14
ENDBRANCH  11  12
ENDBRANCH   5  11
ENDBRANCH   1  10
BRANCH   3  15
ATOM     15  C   LIG    1       -0.026   5.653  -0.184  0.00  0.00    +0.270 C 
BRANCH  15  16
ATOM     16  O   LIG    1       -1.398   6.122  -0.265  0.00  0.00    -0.320 OA
BRANCH  16  17
ATOM     17  C   LIG    1       -1.585   7.453  -0.365  0.00  0.00    +0.520 C 
ATOM     18  O   LIG    1       -0.627   8.201  -0.384  0.00  0.00    -0.500 OA
BRANCH  17  19
ATOM     19  C   LIG    1       -2.951   8.001  -0.451  0.00  0.00    -0.110 A 
ATOM     20  C   LIG    1       -4.057   7.140  -0.430  0.00  0.00    +0.110 A 
ATOM     21  C   LIG    1       -5.319   7.635  -0.508  0.00  0.00    +0.080 A 
ATOM     22  C   LIG    1       -5.542   9.025  -0.612  0.00  0.00    +0.120 A 
ATOM     23  N   LIG    1       -6.701   9.701  -0.699  0.00  0.00    -0.470 NA
ATOM     24  C   LIG    1       -6.646  10.977  -0.786  0.00  0.00    +0.290 A 
ATOM     25  S   LIG    1       -5.034  11.537  -0.769  0.00  0.00    +0.130 S 
ATOM     26  C   LIG    1       -4.436   9.886  -0.634  0.00  0.00    -0.210 A 
ATOM     27  C   LIG    1       -3.147   9.377  -0.549  0.00  0.00    +0.160 A 
ENDBRANCH  17  19
ENDBRANCH  16  17
ENDBRANCH  15  16
ENDBRANCH   3  15
TORSDOF 8
