REMARK  Name = ZINCrD00000hQ45a.0
REMARK                            x       y       z     vdW  Elec       q    Type
REMARK                         _______ _______ _______ _____ _____    ______ ____
ROOT
ATOM      1  O   LIG    1       -1.056   1.845   0.018  0.00  0.00    -0.580 OA
ATOM      2  C   LIG    1       -0.017   1.214  -0.002  0.00  0.00    +0.710 C 
ATOM      3  N   LIG    1        1.165   1.860   0.001  0.00  0.00    -0.620 N 
ATOM      4  C   LIG    1        1.171   3.310  -0.098  0.00  0.00    +0.300 C 
ATOM      5  C   LIG    1        1.918   3.952   1.061  0.00  0.00    +0.080 C 
ATOM      6  C   LIG    1        3.198   3.226   1.411  0.00  0.00    -0.050 C 
ATOM      7  C   LIG    1        3.405   1.778   0.999  0.00  0.00    -0.010 C 
ATOM      8  C   LIG    1        4.227   2.898   0.339  0.00  0.00    +0.210 C 
ATOM      9  F   LIG    1        3.915   3.237  -0.982  0.00  0.00    -0.150 F 
ATOM     10  F   LIG    1        5.578   3.000   0.687  0.00  0.00    -0.150 F 
ATOM     11  C   LIG    1        2.391   1.082   0.096  0.00  0.00    +0.310 C 
ATOM     12  N   LIG    1       -0.048  -0.134  -0.020  0.00  0.00    -0.750 N 
ATOM     13  H   LIG    1        0.778  -0.639   0.036  0.00  0.00    +0.390 HD
ENDROOT
BRANCH   6  14
ATOM     14  C   LIG    1        3.764   3.601   2.756  0.00  0.00    -0.070 A 
ATOM     15  C   LIG    1        3.396   2.891   3.883  0.00  0.00    +0.020 A 
ATOM     16  C   LIG    1        3.918   3.232   5.117  0.00  0.00    +0.010 A 
ATOM     17  C   LIG    1        4.801   4.291   5.224  0.00  0.00    +0.020 A 
ATOM     18  C   LIG    1        5.165   5.004   4.098  0.00  0.00    +0.010 A 
ATOM     19  C   LIG    1        4.646   4.660   2.864  0.00  0.00    +0.020 A 
ENDBRANCH   6  14
BRANCH  12  20
ATOM     20  C   LIG    1       -1.330  -0.836  -0.125  0.00  0.00    +0.300 C 
BRANCH  20  21
ATOM     21  C   LIG    1       -1.086  -2.346  -0.125  0.00  0.00    -0.100 C 
ATOM     22  C   LIG    1       -0.203  -2.723  -1.319  0.00  0.00    +0.010 C 
ATOM     23  C   LIG    1       -0.945  -2.384  -2.617  0.00  0.00    +0.210 C 
ATOM     24  O   LIG    1       -2.195  -3.076  -2.645  0.00  0.00    -0.380 OA
ATOM     25  C   LIG    1       -3.079  -2.729  -1.578  0.00  0.00    +0.220 C 
ATOM     26  C   LIG    1       -2.425  -3.082  -0.239  0.00  0.00    +0.030 C 
BRANCH  21  27
ATOM     27  C   LIG    1       -0.389  -2.752   1.175  0.00  0.00    +0.220 C 
ATOM     28  F   LIG    1       -0.166  -4.133   1.174  0.00  0.00    -0.210 F 
ENDBRANCH  21  27
ENDBRANCH  20  21
ENDBRANCH  12  20
TORSDOF 4
