REMARK  Name = ZINCrD000000gRqx.0
REMARK                            x       y       z     vdW  Elec       q    Type
REMARK                         _______ _______ _______ _____ _____    ______ ____
ROOT
ATOM      1  N   LIG    1        3.825   3.155   3.868  0.00  0.00    -0.560 N 
ATOM      2  C   LIG    1        3.678   3.972   2.818  0.00  0.00    +0.710 C 
ATOM      3  N   LIG    1        3.642   5.268   3.177  0.00  0.00    -0.720 N 
ATOM      4  H   LIG    1        3.540   6.030   2.586  0.00  0.00    +0.440 HD
ATOM      5  C   LIG    1        3.791   5.303   4.642  0.00  0.00    +0.160 C 
ATOM      6  C   LIG    1        5.057   6.066   5.039  0.00  0.00    +0.110 C 
ATOM      7  O   LIG    1        3.585   3.586   1.669  0.00  0.00    -0.510 OA
ATOM      8  C   LIG    1        3.908   3.841   5.024  0.00  0.00    +0.530 C 
ATOM      9  O   LIG    1        4.047   3.384   6.139  0.00  0.00    -0.460 OA
ENDROOT
BRANCH   5  10
ATOM     10  C   LIG    1        2.577   5.924   5.284  0.00  0.00    -0.040 A 
ATOM     11  C   LIG    1        2.118   5.447   6.498  0.00  0.00    +0.050 A 
ATOM     12  C   LIG    1        1.006   6.019   7.089  0.00  0.00    +0.110 A 
ATOM     13  C   LIG    1        0.349   7.061   6.462  0.00  0.00    -0.040 A 
ATOM     14  C   LIG    1        0.806   7.534   5.246  0.00  0.00    +0.110 A 
ATOM     15  C   LIG    1        1.919   6.965   4.657  0.00  0.00    +0.050 A 
BRANCH  13  16
ATOM     16  N   LIG    1       -0.843   7.671   7.093  0.00  0.00    +0.020 N 
ATOM     17  O   LIG    1       -1.245   7.254   8.165  0.00  0.00    -0.150 OA
ATOM     18  O   LIG    1       -1.421   8.589   6.541  0.00  0.00    -0.150 OA
ENDBRANCH  13  16
ENDBRANCH   5  10
BRANCH   1  19
ATOM     19  C   LIG    1        3.893   1.694   3.771  0.00  0.00    +0.340 C 
BRANCH  19  20
ATOM     20  C   LIG    1        2.484   1.109   3.885  0.00  0.00    +0.210 C 
BRANCH  20  21
ATOM     21  O   LIG    1        1.702   1.527   2.764  0.00  0.00    -0.610 OA
BRANCH  21  22
ATOM     22 SI   LIG    1        0.172   0.962   2.776  0.00  0.00    +1.280 Si
ATOM     23  C   LIG    1        0.198  -0.901   2.766  0.00  0.00    -0.300 C 
ATOM     24  C   LIG    1       -0.700   1.563   4.309  0.00  0.00    -0.300 C 
BRANCH  22  26
ATOM     25  C   LIG    1       -0.013   1.086   0.008  0.00  0.00    +0.030 C 
ATOM     26  C   LIG    1       -0.729   1.579   1.267  0.00  0.00    -0.370 C 
ATOM     27  C   LIG    1       -2.164   1.050   1.278  0.00  0.00    +0.030 C 
ATOM     28  C   LIG    1       -0.750   3.109   1.275  0.00  0.00    +0.030 C 
ENDBRANCH  22  26
ENDBRANCH  21  22
ENDBRANCH  20  21
ENDBRANCH  19  20
ENDBRANCH   1  19
TORSDOF 7
