REMARK  Name = ZINCkj000005c7Ix.0
REMARK                            x       y       z     vdW  Elec       q    Type
REMARK                         _______ _______ _______ _____ _____    ______ ____
ROOT
ATOM      1  C   LIG    1       -2.143   1.056   1.276  0.00  0.00    +0.510 C 
ATOM      2  N   LIG    1       -3.102   1.715   1.956  0.00  0.00    -0.730 N 
ATOM      3  H   LIG    1       -2.883   2.527   2.439  0.00  0.00    +0.400 HD
ATOM      4  O   LIG    1       -2.418   0.040   0.672  0.00  0.00    -0.470 OA
ENDROOT
BRANCH   1   6
ATOM      5  C   LIG    1        0.008   1.075   2.506  0.00  0.00    +0.130 C 
ATOM      6  C   LIG    1       -0.731   1.580   1.266  0.00  0.00    +0.050 C 
ATOM      7  C   LIG    1       -0.013   1.086   0.008  0.00  0.00    +0.100 C 
ATOM      8  C   LIG    1       -0.755   1.594  -1.231  0.00  0.00    +0.050 C 
ATOM      9  C   LIG    1       -0.839   3.122  -1.173  0.00  0.00    +0.060 C 
ATOM     10  C   LIG    1       -1.527   3.541   0.127  0.00  0.00    +0.250 C 
ATOM     11  N   LIG    1       -0.755   3.048   1.274  0.00  0.00    -0.500 N 
ATOM     12  H   LIG    1       -1.183   3.370   2.130  0.00  0.00    +0.420 HD
ATOM     13  H   LIG    1        0.189   3.399   1.219  0.00  0.00    +0.440 HD
ENDBRANCH   1   6
BRANCH   2  14
ATOM     14  C   LIG    1       -4.476   1.205   1.966  0.00  0.00    +0.390 C 
BRANCH  14  15
ATOM     15  C   LIG    1       -5.345   2.119   2.791  0.00  0.00    -0.200 A 
ATOM     16  C   LIG    1       -6.013   3.174   2.324  0.00  0.00    +0.020 A 
ATOM     17  C   LIG    1       -6.748   3.865   3.272  0.00  0.00    +0.160 A 
ATOM     18  C   LIG    1       -6.676   3.372   4.509  0.00  0.00    -0.760 A 
ATOM     19  S   LIG    1       -5.638   1.951   4.517  0.00  0.00    +0.250 S 
BRANCH  18  20
ATOM     20  S   LIG    1       -7.501   4.035   5.917  0.00  0.00    +2.520 S 
ATOM     21  O   LIG    1       -7.677   5.410   5.604  0.00  0.00    -0.920 OA
ATOM     22  O   LIG    1       -6.697   3.632   7.017  0.00  0.00    -0.930 OA
ATOM     23  C   LIG    1       -9.100   3.180   5.950  0.00  0.00    -0.230 C 
ENDBRANCH  18  20
ENDBRANCH  14  15
ENDBRANCH   2  14
TORSDOF 4
