REMARK  Name = ZINCpe00000VQWJL.0
REMARK                            x       y       z     vdW  Elec       q    Type
REMARK                         _______ _______ _______ _____ _____    ______ ____
ROOT
ATOM      1  C   LIG    1        2.593   0.250   1.222  0.00  0.00    +0.520 C 
ATOM      2  N   LIG    1        3.385  -0.170   2.228  0.00  0.00    -0.610 N 
ATOM      3  C   LIG    1        3.697   0.718   3.356  0.00  0.00    +0.270 C 
ATOM      4  C   LIG    1        3.341  -0.008   4.663  0.00  0.00    +0.040 C 
ATOM      5  C   LIG    1        4.066  -1.355   4.705  0.00  0.00    +0.030 C 
ATOM      6  C   LIG    1        3.604  -2.222   3.531  0.00  0.00    +0.090 C 
ATOM      7  C   LIG    1        3.958  -1.523   2.215  0.00  0.00    +0.300 C 
ATOM      8  O   LIG    1        2.347  -0.491   0.294  0.00  0.00    -0.530 OA
ENDROOT
BRANCH   6   9
ATOM      9  C   LIG    1        4.294  -3.560   3.592  0.00  0.00    +0.290 A 
ATOM     10  N   LIG    1        3.758  -4.692   3.238  0.00  0.00    -0.480 NA
ATOM     11  C   LIG    1        4.652  -5.697   3.419  0.00  0.00    +0.050 A 
ATOM     12  C   LIG    1        4.607  -7.077   3.207  0.00  0.00    +0.070 A 
ATOM     13  C   LIG    1        5.700  -7.846   3.493  0.00  0.00    +0.000 A 
ATOM     14  C   LIG    1        6.858  -7.271   3.994  0.00  0.00    +0.030 A 
ATOM     15  C   LIG    1        6.926  -5.911   4.211  0.00  0.00    +0.010 A 
ATOM     16  C   LIG    1        5.826  -5.114   3.926  0.00  0.00    +0.050 A 
ATOM     17  N   LIG    1        5.569  -3.761   4.019  0.00  0.00    -0.600 N 
ATOM     18  H   LIG    1        6.184  -3.079   4.333  0.00  0.00    +0.420 HD
ENDBRANCH   6   9
BRANCH   1  19
ATOM     19  C   LIG    1        2.013   1.641   1.250  0.00  0.00    +0.090 C 
BRANCH  19  25
ATOM     20  O   LIG    1       -2.240   1.333   0.019  0.00  0.00    -0.540 OA
ATOM     21  C   LIG    1       -1.101   1.755   0.016  0.00  0.00    +0.700 C 
ATOM     22  N   LIG    1       -0.789   3.056   0.025  0.00  0.00    -0.680 N 
ATOM     23  H   LIG    1       -1.443   3.773   0.035  0.00  0.00    +0.440 HD
ATOM     24  C   LIG    1        0.545   3.248   0.013  0.00  0.00    +0.530 C 
ATOM     25  C   LIG    1        1.158   1.862   0.001  0.00  0.00    +0.250 C 
ATOM     26  O   LIG    1        1.132   4.309   0.014  0.00  0.00    -0.460 OA
ATOM     27  N   LIG    1       -0.011   0.966   0.007  0.00  0.00    -0.710 N 
ATOM     28  H   LIG    1        0.002  -0.004   0.002  0.00  0.00    +0.450 HD
ENDBRANCH  19  25
ENDBRANCH   1  19
TORSDOF 3
