REMARK  Name = ZINCpk000005TlNw.0
REMARK                            x       y       z     vdW  Elec       q    Type
REMARK                         _______ _______ _______ _____ _____    ______ ____
ROOT
ATOM      1  C   LIG    1        2.434  -1.231   0.226  0.00  0.00    +0.300 C 
ATOM      2  C   LIG    1        3.295   0.037   0.553  0.00  0.00    +0.070 C 
ATOM      3  C   LIG    1        2.204   0.685  -0.234  0.00  0.00    -0.060 C 
ATOM      4  C   LIG    1        1.408   1.942  -0.001  0.00  0.00    +0.260 C 
ATOM      5  N   LIG    1       -0.018   1.495   0.010  0.00  0.00    -0.420 N 
ATOM      6  C   LIG    1        0.002  -0.004   0.002  0.00  0.00    +0.260 C 
ATOM      7  C   LIG    1        1.336  -0.308   0.652  0.00  0.00    -0.040 C 
ENDROOT
BRANCH   5   8
ATOM      8  C   LIG    1       -0.700   1.988  -1.087  0.00  0.00    +0.340 A 
ATOM      9  N   LIG    1       -1.268   1.278  -2.031  0.00  0.00    -0.310 NA
ATOM     10  N   LIG    1       -1.809   2.069  -2.891  0.00  0.00    -0.270 NA
ATOM     11  C   LIG    1       -1.609   3.303  -2.532  0.00  0.00    +0.190 A 
ATOM     12  O   LIG    1       -0.909   3.284  -1.381  0.00  0.00    -0.220 OA
BRANCH  11  13
ATOM     13  C   LIG    1       -2.081   4.531  -3.267  0.00  0.00    +0.050 C 
ATOM     14  C   LIG    1       -3.041   4.327  -4.441  0.00  0.00    +0.080 C 
ATOM     15  C   LIG    1       -1.587   4.729  -4.702  0.00  0.00    +0.060 C 
ENDBRANCH  11  13
ENDBRANCH   5   8
BRANCH   1  17
ATOM     16  C   LIG    1        3.214  -3.500   0.649  0.00  0.00    +0.590 C 
ATOM     17  N   LIG    1        2.657  -2.368   1.122  0.00  0.00    -0.720 N 
ATOM     18  H   LIG    1        2.403  -2.306   2.057  0.00  0.00    +0.400 HD
ATOM     19  O   LIG    1        3.532  -3.578  -0.523  0.00  0.00    -0.520 OA
BRANCH  16  24
ATOM     20  C   LIG    1        4.017  -6.636   2.361  0.00  0.00    -0.130 A 
ATOM     21  C   LIG    1        3.473  -5.883   3.384  0.00  0.00    +0.290 A 
ATOM     22  N   LIG    1        3.131  -4.681   2.890  0.00  0.00    -0.520 N 
ATOM     23  H   LIG    1        2.730  -3.958   3.397  0.00  0.00    +0.430 HD
ATOM     24  C   LIG    1        3.438  -4.639   1.547  0.00  0.00    -0.060 A 
ATOM     25  C   LIG    1        3.990  -5.837   1.197  0.00  0.00    +0.110 A 
BRANCH  20  27
ATOM     26  N   LIG    1        4.909  -9.037   2.543  0.00  0.00    -0.430 NA
ATOM     27  C   LIG    1        4.515  -7.975   2.463  0.00  0.00    +0.280 C 
ENDBRANCH  20  27
ENDBRANCH  16  24
ENDBRANCH   1  17
TORSDOF 5
