REMARK  Name = ZINCrH000004rREo.0
REMARK                            x       y       z     vdW  Elec       q    Type
REMARK                         _______ _______ _______ _____ _____    ______ ____
ROOT
ATOM      1  N   LIG    1        7.247   3.796   0.383  0.00  0.00    -1.120 NA
ATOM      2  H   LIG    1        7.260   4.743   0.172  0.00  0.00    +0.420 HD
ENDROOT
BRANCH   1   3
ATOM      3  S   LIG    1        8.638   3.034   0.860  0.00  0.00    +2.700 S 
ATOM      4  O   LIG    1        8.309   2.292   2.026  0.00  0.00    -0.950 OA
ATOM      5  O   LIG    1        9.665   4.015   0.826  0.00  0.00    -0.960 OA
BRANCH   3   6
ATOM      6  C   LIG    1        9.038   1.853  -0.385  0.00  0.00    -0.670 A 
ATOM      7  C   LIG    1        9.832   2.220  -1.427  0.00  0.00    +0.170 A 
ATOM      8  C   LIG    1       10.153   1.280  -2.422  0.00  0.00    -0.080 A 
ATOM      9  C   LIG    1       10.970   1.622  -3.512  0.00  0.00    +0.040 A 
ATOM     10  C   LIG    1       11.261   0.685  -4.456  0.00  0.00    +0.010 A 
ATOM     11  C   LIG    1       10.758  -0.611  -4.359  0.00  0.00    +0.040 A 
ATOM     12  C   LIG    1        9.963  -0.978  -3.317  0.00  0.00    +0.010 A 
ATOM     13  C   LIG    1        9.642  -0.038  -2.323  0.00  0.00    -0.010 A 
ATOM     14  C   LIG    1        8.825  -0.380  -1.232  0.00  0.00    +0.020 A 
ATOM     15  C   LIG    1        8.540   0.555  -0.285  0.00  0.00    +0.090 A 
ENDBRANCH   3   6
ENDBRANCH   1   3
BRANCH   1  16
ATOM     16  C   LIG    1        5.996   3.041   0.280  0.00  0.00    +0.300 C 
BRANCH  16  17
ATOM     17  C   LIG    1        4.818   4.013   0.194  0.00  0.00    +0.070 C 
BRANCH  17  20
ATOM     18  N   LIG    1        2.355   3.889   0.001  0.00  0.00    -0.670 N 
ATOM     19  H   LIG    1        2.341   4.857  -0.060  0.00  0.00    +0.410 HD
ATOM     20  C   LIG    1        3.531   3.236   0.088  0.00  0.00    +0.520 C 
ATOM     21  O   LIG    1        3.554   2.024   0.082  0.00  0.00    -0.510 OA
BRANCH  18  27
ATOM     22  C   LIG    1       -2.386   3.562   1.260  0.00  0.00    +0.090 C 
ATOM     23  C   LIG    1       -1.159   2.987   0.600  0.00  0.00    -0.070 A 
ATOM     24  C   LIG    1       -1.220   1.750  -0.014  0.00  0.00    -0.010 A 
ATOM     25  C   LIG    1       -0.095   1.217  -0.616  0.00  0.00    +0.030 A 
ATOM     26  C   LIG    1        1.091   1.924  -0.614  0.00  0.00    +0.020 A 
ATOM     27  C   LIG    1        1.155   3.170  -0.003  0.00  0.00    +0.140 A 
ATOM     28  C   LIG    1        0.025   3.700   0.605  0.00  0.00    -0.110 A 
ATOM     29  C   LIG    1        0.089   5.051   1.270  0.00  0.00    +0.090 C 
ENDBRANCH  18  27
ENDBRANCH  17  20
ENDBRANCH  16  17
ENDBRANCH   1  16
TORSDOF 6
