REMARK  Name = ZINCnE000001TBGu.0
REMARK                            x       y       z     vdW  Elec       q    Type
REMARK                         _______ _______ _______ _____ _____    ______ ____
ROOT
ATOM      1  C   LIG    1        3.747   6.375  -0.045  0.00  0.00    +0.030 A 
ATOM      2  C   LIG    1        4.700   5.447   0.197  0.00  0.00    -0.020 A 
ATOM      3  S   LIG    1        4.013   3.888   0.048  0.00  0.00    +0.180 S 
ATOM      4  C   LIG    1        2.449   4.595  -0.341  0.00  0.00    +0.080 A 
ATOM      5  N   LIG    1        2.548   5.889  -0.337  0.00  0.00    -0.420 NA
ENDROOT
BRANCH   1  11
ATOM      6  C   LIG    1        2.497  10.873   0.912  0.00  0.00    -0.110 C 
ATOM      7  C   LIG    1        1.016  10.500   0.817  0.00  0.00    +0.030 C 
ATOM      8  C   LIG    1        0.853   8.993   1.027  0.00  0.00    +0.000 C 
ATOM      9  C   LIG    1        1.612   8.244  -0.073  0.00  0.00    +0.270 C 
ATOM     10  N   LIG    1        3.007   8.704  -0.082  0.00  0.00    -0.580 N 
ATOM     11  C   LIG    1        4.022   7.822   0.005  0.00  0.00    +0.580 C 
ATOM     12  O   LIG    1        5.165   8.219   0.126  0.00  0.00    -0.540 OA
ATOM     13  C   LIG    1        3.275  10.145  -0.182  0.00  0.00    +0.290 C 
BRANCH   6  15
ATOM     14  O   LIG    1        3.453  12.975   1.424  0.00  0.00    -0.700 OA
ATOM     15  C   LIG    1        2.653  12.362   0.738  0.00  0.00    +0.500 C 
ATOM     16  O   LIG    1        1.981  12.953  -0.090  0.00  0.00    -0.690 OA
ENDBRANCH   6  15
ENDBRANCH   1  11
BRANCH   4  17
ATOM     17  C   LIG    1        1.215   3.833  -0.634  0.00  0.00    -0.010 A 
ATOM     18  C   LIG    1        0.030   4.506  -0.930  0.00  0.00    +0.080 A 
ATOM     19  C   LIG    1       -1.118   3.790  -1.202  0.00  0.00    +0.040 A 
ATOM     20  C   LIG    1       -1.095   2.407  -1.186  0.00  0.00    +0.040 A 
ATOM     21  C   LIG    1        0.077   1.732  -0.887  0.00  0.00    -0.030 A 
ATOM     22 CL   LIG    1        0.095  -0.003  -0.864  0.00  0.00    -0.060 Cl
ATOM     23  C   LIG    1        1.232   2.438  -0.614  0.00  0.00    +0.050 A 
ENDBRANCH   4  17
TORSDOF 3
