REMARK  Name = ZINCqH0000007hOb.1
REMARK                            x       y       z     vdW  Elec       q    Type
REMARK                         _______ _______ _______ _____ _____    ______ ____
ROOT
ATOM      1  N   LIG    1        2.361   1.131  -0.002  0.00  0.00    -0.450 NA
ATOM      2  C   LIG    1        1.157   1.652   0.007  0.00  0.00    +0.350 C 
ATOM      3  N   LIG    1       -0.024   0.961   0.007  0.00  0.00    -0.680 N 
ATOM      4  H   LIG    1       -0.016  -0.009  -0.000  0.00  0.00    +0.420 HD
ATOM      5  C   LIG    1       -1.177   1.609   0.011  0.00  0.00    +0.530 C 
ATOM      6  C   LIG    1       -1.042   3.114   0.028  0.00  0.00    +0.050 C 
ATOM      7  O   LIG    1       -2.250   1.044   0.006  0.00  0.00    -0.480 OA
ATOM      8  S   LIG    1        0.762   3.380   0.022  0.00  0.00    +0.060 S 
ENDROOT
BRANCH   1  12
ATOM      9  C   LIG    1        2.838  -2.983  -0.033  0.00  0.00    +0.130 A 
ATOM     10  C   LIG    1        3.599  -2.192  -0.882  0.00  0.00    +0.010 A 
ATOM     11  C   LIG    1        3.443  -0.822  -0.875  0.00  0.00    +0.080 A 
ATOM     12  C   LIG    1        2.519  -0.231  -0.013  0.00  0.00    +0.050 A 
ATOM     13  C   LIG    1        1.759  -1.030   0.843  0.00  0.00    -0.010 A 
ATOM     14  C   LIG    1        1.917  -2.400   0.826  0.00  0.00    -0.060 A 
BRANCH   9  16
ATOM     15  C   LIG    1        2.179  -5.088   0.856  0.00  0.00    +0.240 C 
ATOM     16  O   LIG    1        2.994  -4.334  -0.043  0.00  0.00    -0.310 OA
ENDBRANCH   9  16
ENDBRANCH   1  12
BRANCH   6  17
ATOM     17  C   LIG    1       -1.669   3.705   1.292  0.00  0.00    +0.130 C 
BRANCH  17  18
ATOM     18  C   LIG    1       -1.533   5.205   1.265  0.00  0.00    +0.520 C 
ATOM     19  N   LIG    1       -2.017   5.944   2.283  0.00  0.00    -0.670 N 
ATOM     20  H   LIG    1       -2.512   5.517   3.000  0.00  0.00    +0.420 HD
ATOM     21  O   LIG    1       -0.987   5.748   0.328  0.00  0.00    -0.500 OA
BRANCH  19  22
ATOM     22  C   LIG    1       -1.805   7.327   2.307  0.00  0.00    +0.160 A 
ATOM     23  C   LIG    1       -1.611   7.981   3.517  0.00  0.00    +0.000 A 
ATOM     24  C   LIG    1       -1.397   9.345   3.536  0.00  0.00    +0.070 A 
ATOM     25  C   LIG    1       -1.387  10.062   2.353  0.00  0.00    -0.100 A 
ATOM     26  C   LIG    1       -1.585   9.415   1.147  0.00  0.00    +0.070 A 
ATOM     27 BR   LIG    1       -1.101  11.931   2.385  0.00  0.00    -0.050 Br
ATOM     28  C   LIG    1       -1.795   8.050   1.121  0.00  0.00    +0.040 A 
ENDBRANCH  19  22
ENDBRANCH  17  18
ENDBRANCH   6  17
TORSDOF 5
