REMARK  Name = ZINCqH0000035rEx.0
REMARK                            x       y       z     vdW  Elec       q    Type
REMARK                         _______ _______ _______ _____ _____    ______ ____
ROOT
ATOM      1  C   LIG    1       -0.135   0.884   4.930  0.00  0.00    +0.230 C 
ATOM      2  C   LIG    1       -0.527   1.822   6.091  0.00  0.00    +0.040 C 
ATOM      3  C   LIG    1       -0.714   3.208   5.442  0.00  0.00    +0.030 C 
ATOM      4  C   LIG    1       -0.419   2.991   3.942  0.00  0.00    +0.170 C 
ATOM      5  N   LIG    1       -0.676   1.546   3.715  0.00  0.00    -0.510 NA
ENDROOT
BRANCH   1   9
ATOM      6  C   LIG    1       -2.259  -2.078   5.163  0.00  0.00    -0.020 A 
ATOM      7  C   LIG    1       -1.090  -2.622   5.547  0.00  0.00    -0.030 A 
ATOM      8  C   LIG    1       -0.126  -1.588   5.514  0.00  0.00    -0.060 A 
ATOM      9  C   LIG    1       -0.764  -0.474   5.112  0.00  0.00    +0.020 A 
ATOM     10  O   LIG    1       -2.056  -0.775   4.906  0.00  0.00    -0.150 OA
BRANCH   6  11
ATOM     11  C   LIG    1       -3.573  -2.805   5.045  0.00  0.00    +0.290 C 
BRANCH  11  13
ATOM     12  C   LIG    1       -5.536  -3.396   6.288  0.00  0.00    +0.220 C 
ATOM     13  O   LIG    1       -4.270  -2.734   6.291  0.00  0.00    -0.390 OA
ENDBRANCH  11  13
ENDBRANCH   6  11
ENDBRANCH   1   9
BRANCH   5  14
ATOM     14  C   LIG    1        0.011   1.072   2.506  0.00  0.00    +0.180 C 
BRANCH  14  15
ATOM     15  C   LIG    1       -0.729   1.579   1.267  0.00  0.00    +0.060 C 
BRANCH  15  16
ATOM     16  C   LIG    1       -0.013   1.086   0.008  0.00  0.00    -0.330 C 
BRANCH  16  17
ATOM     17  S   LIG    1       -0.890   1.687  -1.462  0.00  0.00    +2.500 S 
ATOM     18  O   LIG    1       -0.758   3.097  -1.579  0.00  0.00    -0.930 OA
ATOM     19  O   LIG    1       -2.159   1.058  -1.577  0.00  0.00    -0.930 OA
BRANCH  17  20
ATOM     20  C   LIG    1        0.036   1.049  -2.818  0.00  0.00    -0.670 A 
ATOM     21  C   LIG    1        1.074   1.788  -3.355  0.00  0.00    +0.120 A 
ATOM     22  C   LIG    1        1.804   1.285  -4.416  0.00  0.00    -0.010 A 
ATOM     23  C   LIG    1        1.489   0.049  -4.947  0.00  0.00    -0.030 A 
ATOM     24  C   LIG    1        0.448  -0.688  -4.413  0.00  0.00    -0.010 A 
ATOM     25  C   LIG    1        2.281  -0.497  -6.107  0.00  0.00    +0.090 C 
ATOM     26  C   LIG    1       -0.278  -0.188  -3.349  0.00  0.00    +0.120 A 
ENDBRANCH  17  20
ENDBRANCH  16  17
ENDBRANCH  15  16
ENDBRANCH  14  15
ENDBRANCH   5  14
TORSDOF 8
