REMARK  Name = ZINCrD000000Ao5c.1
REMARK                            x       y       z     vdW  Elec       q    Type
REMARK                         _______ _______ _______ _____ _____    ______ ____
ROOT
ATOM      1  O   LIG    1        2.701  -0.896   1.272  0.00  0.00    -0.530 OA
ATOM      2  C   LIG    1        2.635   0.246   0.868  0.00  0.00    +0.510 C 
ATOM      3  N   LIG    1        3.729   0.843   0.356  0.00  0.00    -0.730 N 
ATOM      4  H   LIG    1        3.677   1.757   0.034  0.00  0.00    +0.400 HD
ENDROOT
BRANCH   3   5
ATOM      5  C   LIG    1        4.998   0.114   0.287  0.00  0.00    +0.310 C 
BRANCH   5   6
ATOM      6  C   LIG    1        6.106   1.061  -0.176  0.00  0.00    +0.170 C 
BRANCH   6   7
ATOM      7  C   LIG    1        7.393   0.292  -0.329  0.00  0.00    -0.080 A 
ATOM      8  C   LIG    1        8.273   0.200   0.733  0.00  0.00    +0.070 A 
ATOM      9  C   LIG    1        9.454  -0.506   0.593  0.00  0.00    +0.010 A 
ATOM     10  C   LIG    1        9.755  -1.119  -0.609  0.00  0.00    +0.030 A 
ATOM     11  C   LIG    1        8.876  -1.027  -1.671  0.00  0.00    +0.030 A 
ATOM     12  C   LIG    1        7.691  -0.327  -1.530  0.00  0.00    -0.030 A 
ATOM     13 CL   LIG    1        6.583  -0.218  -2.861  0.00  0.00    -0.070 Cl
ENDBRANCH   6   7
BRANCH   6  14
ATOM     14  N   LIG    1        6.288   2.126   0.819  0.00  0.00    -0.510 NA
ATOM     15  C   LIG    1        7.482   2.952   0.503  0.00  0.00    +0.170 C 
ATOM     16  C   LIG    1        7.220   4.266   1.282  0.00  0.00    +0.030 C 
ATOM     17  C   LIG    1        5.694   4.460   1.129  0.00  0.00    +0.020 C 
ATOM     18  C   LIG    1        5.140   3.059   0.812  0.00  0.00    +0.170 C 
ENDBRANCH   6  14
ENDBRANCH   5   6
ENDBRANCH   3   5
BRANCH   2  19
ATOM     19  C   LIG    1        1.331   0.996   0.939  0.00  0.00    +0.320 C 
BRANCH  19  20
ATOM     20  N   LIG    1        0.303   0.135   1.531  0.00  0.00    -0.710 N 
ATOM     21  H   LIG    1        0.527  -0.768   1.804  0.00  0.00    +0.420 HD
ATOM     22  C   LIG    1       -0.953   0.596   1.690  0.00  0.00    +0.610 C 
ATOM     23  O   LIG    1       -1.233   1.730   1.346  0.00  0.00    -0.510 OA
BRANCH  22  24
ATOM     24  C   LIG    1       -1.982  -0.268   2.275  0.00  0.00    -0.060 A 
ATOM     25  C   LIG    1       -3.287   0.072   2.492  0.00  0.00    +0.060 A 
ATOM     26  C   LIG    1       -3.907  -1.048   3.065  0.00  0.00    +0.010 A 
ATOM     27  C   LIG    1       -2.964  -2.013   3.173  0.00  0.00    -0.000 A 
ATOM     28 BR   LIG    1       -3.236  -3.745   3.880  0.00  0.00    +0.070 Br
ATOM     29  O   LIG    1       -1.807  -1.540   2.691  0.00  0.00    -0.150 OA
ENDBRANCH  22  24
ENDBRANCH  19  20
ENDBRANCH   2  19
TORSDOF 7
