REMARK  Name = ZINCnE000001SQAr.0
REMARK                            x       y       z     vdW  Elec       q    Type
REMARK                         _______ _______ _______ _____ _____    ______ ____
ROOT
ATOM      1  O   LIG    1        3.410   2.024  -0.020  0.00  0.00    -0.550 OA
ATOM      2  C   LIG    1        2.447   1.280  -0.014  0.00  0.00    +0.570 C 
ATOM      3  N   LIG    1        2.627  -0.056  -0.023  0.00  0.00    -0.690 N 
ATOM      4  H   LIG    1        1.860  -0.649  -0.018  0.00  0.00    +0.410 HD
ENDROOT
BRANCH   2   5
ATOM      5  C   LIG    1        1.089   1.837   0.002  0.00  0.00    -0.130 A 
ATOM      6  C   LIG    1       -0.013   1.076   0.008  0.00  0.00    +0.000 A 
ATOM      7  S   LIG    1       -1.437   2.004   0.019  0.00  0.00    +0.160 S 
ATOM      8  C   LIG    1       -0.555   3.525   0.025  0.00  0.00    -0.160 A 
ATOM      9  C   LIG    1       -1.019   4.844   0.035  0.00  0.00    +0.040 A 
ATOM     10  C   LIG    1       -0.130   5.893   0.032  0.00  0.00    +0.020 A 
ATOM     11  C   LIG    1        1.236   5.649   0.019  0.00  0.00    +0.010 A 
ATOM     12  C   LIG    1        1.711   4.361   0.009  0.00  0.00    +0.080 A 
ATOM     13  C   LIG    1        0.817   3.276   0.011  0.00  0.00    -0.040 A 
ENDBRANCH   2   5
BRANCH   3  14
ATOM     14  C   LIG    1        3.983  -0.612  -0.039  0.00  0.00    +0.280 C 
BRANCH  14  15
ATOM     15  C   LIG    1        3.907  -2.140  -0.045  0.00  0.00    -0.070 C 
BRANCH  15  16
ATOM     16  C   LIG    1        5.297  -2.712   0.062  0.00  0.00    -0.020 A 
ATOM     17  C   LIG    1        6.239  -2.425  -0.907  0.00  0.00    +0.020 A 
ATOM     18  C   LIG    1        7.515  -2.947  -0.807  0.00  0.00    +0.000 A 
ATOM     19  C   LIG    1        7.846  -3.763   0.259  0.00  0.00    -0.030 A 
ATOM     20  C   LIG    1        6.902  -4.054   1.226  0.00  0.00    -0.010 A 
ATOM     21  C   LIG    1        5.627  -3.529   1.127  0.00  0.00    -0.010 A 
ENDBRANCH  15  16
BRANCH  15  22
ATOM     22  C   LIG    1        3.270  -2.606  -1.329  0.00  0.00    +0.500 C 
ATOM     23  O   LIG    1        2.448  -1.903  -1.892  0.00  0.00    -0.690 OA
ATOM     24  O   LIG    1        3.576  -3.685  -1.806  0.00  0.00    -0.680 OA
ENDBRANCH  15  22
ENDBRANCH  14  15
ENDBRANCH   3  14
TORSDOF 5
