REMARK  Name = ZINCpe000000TU42.0
REMARK                            x       y       z     vdW  Elec       q    Type
REMARK                         _______ _______ _______ _____ _____    ______ ____
ROOT
ATOM      1  N   LIG    1        4.511   4.512  -1.858  0.00  0.00    -0.730 N 
ATOM      2  H   LIG    1        5.343   4.066  -1.632  0.00  0.00    +0.400 HD
ATOM      3  C   LIG    1        3.346   3.836  -1.795  0.00  0.00    +0.710 C 
ATOM      4  N   LIG    1        3.337   2.542  -1.418  0.00  0.00    -0.740 N 
ATOM      5  H   LIG    1        4.169   2.097  -1.192  0.00  0.00    +0.400 HD
ATOM      6  O   LIG    1        2.304   4.394  -2.078  0.00  0.00    -0.580 OA
ENDROOT
BRANCH   4   7
ATOM      7  C   LIG    1        2.071   1.808  -1.350  0.00  0.00    +0.290 C 
ATOM      8  C   LIG    1        1.408   2.067  -0.000  0.00  0.00    +0.020 C 
ATOM      9  C   LIG    1       -0.019   1.526   0.010  0.00  0.00    +0.080 C 
ATOM     10  C   LIG    1        0.002  -0.004   0.002  0.00  0.00    -0.420 C 
ATOM     11  S   LIG    1        0.758  -0.577  -1.548  0.00  0.00    +2.420 S 
ATOM     12  O   LIG    1       -0.016  -0.093  -2.637  0.00  0.00    -0.930 OA
ATOM     13  O   LIG    1        1.016  -1.970  -1.440  0.00  0.00    -0.930 OA
ATOM     14  C   LIG    1       -1.429  -0.536   0.101  0.00  0.00    +0.090 C 
ATOM     15  C   LIG    1        2.342   0.312  -1.521  0.00  0.00    -0.350 C 
ENDBRANCH   4   7
BRANCH   1  18
ATOM     16  C   LIG    1        5.669   7.691  -2.099  0.00  0.00    +0.190 C 
ATOM     17  C   LIG    1        4.798   6.894  -1.112  0.00  0.00    +0.020 C 
ATOM     18  C   LIG    1        4.521   5.918  -2.268  0.00  0.00    +0.280 C 
ATOM     19  C   LIG    1        5.860   6.375  -2.871  0.00  0.00    +0.250 C 
BRANCH  19  20
ATOM     20  N   LIG    1        7.008   5.588  -2.414  0.00  0.00    -0.350 N 
ATOM     21  C   LIG    1        7.716   5.798  -1.284  0.00  0.00    +0.260 A 
ATOM     22  C   LIG    1        8.687   4.857  -1.226  0.00  0.00    -0.140 A 
ATOM     23  C   LIG    1        8.575   4.051  -2.363  0.00  0.00    +0.230 A 
ATOM     24  N   LIG    1        7.569   4.487  -3.076  0.00  0.00    -0.300 NA
ENDBRANCH  19  20
BRANCH  16  25
ATOM     25  O   LIG    1        6.874   8.195  -1.520  0.00  0.00    -0.370 OA
BRANCH  25  27
ATOM     26  C   LIG    1        8.243  10.044  -0.781  0.00  0.00    +0.040 C 
ATOM     27  C   LIG    1        6.915   9.619  -1.411  0.00  0.00    +0.150 C 
ENDBRANCH  25  27
ENDBRANCH  16  25
ENDBRANCH   1  18
TORSDOF 5
