REMARK  Name = ZINCpe00000VVGLN.0
REMARK                            x       y       z     vdW  Elec       q    Type
REMARK                         _______ _______ _______ _____ _____    ______ ____
ROOT
ATOM      1  C   LIG    1        1.427   5.326  -2.249  0.00  0.00    +0.520 C 
ATOM      2  N   LIG    1        1.175   5.430  -0.929  0.00  0.00    -0.710 N 
ATOM      3  H   LIG    1        0.607   6.143  -0.598  0.00  0.00    +0.410 HD
ATOM      4  O   LIG    1        2.138   4.434  -2.662  0.00  0.00    -0.520 OA
ENDROOT
BRANCH   1   5
ATOM      5  C   LIG    1        0.826   6.318  -3.211  0.00  0.00    +0.210 C 
BRANCH   5   6
ATOM      6  N   LIG    1        1.330   6.054  -4.565  0.00  0.00    -0.490 NA
BRANCH   6   8
ATOM      7  C   LIG    1       -0.269   7.745  -5.327  0.00  0.00    -0.010 C 
ATOM      8  C   LIG    1        1.169   7.233  -5.426  0.00  0.00    +0.170 C 
ATOM      9  C   LIG    1        2.134   8.331  -4.974  0.00  0.00    +0.040 C 
ENDBRANCH   6   8
BRANCH   6  10
ATOM     10  C   LIG    1        0.671   4.879  -5.152  0.00  0.00    +0.200 C 
BRANCH  10  11
ATOM     11  C   LIG    1        1.377   4.492  -6.426  0.00  0.00    +0.520 C 
ATOM     12  O   LIG    1        2.334   5.131  -6.808  0.00  0.00    -0.520 OA
ATOM     13  N   LIG    1        0.944   3.435  -7.141  0.00  0.00    -0.860 N 
ATOM     14  H   LIG    1        1.398   3.185  -7.962  0.00  0.00    +0.400 HD
ATOM     15  H   LIG    1        0.178   2.924  -6.836  0.00  0.00    +0.400 HD
ENDBRANCH  10  11
ENDBRANCH   6  10
ENDBRANCH   5   6
ENDBRANCH   1   5
BRANCH   2  16
ATOM     16  C   LIG    1        1.759   4.465   0.006  0.00  0.00    +0.390 C 
BRANCH  16  17
ATOM     17  C   LIG    1        0.881   3.243   0.082  0.00  0.00    +0.200 A 
ATOM     18  N   LIG    1       -0.420   3.247   0.188  0.00  0.00    -0.480 NA
ATOM     19  C   LIG    1       -0.865   1.982   0.223  0.00  0.00    +0.140 A 
ATOM     20  C   LIG    1        0.202   1.163   0.144  0.00  0.00    +0.120 A 
ATOM     21  N   LIG    1        1.309   1.963   0.051  0.00  0.00    -0.450 N 
ATOM     22  C   LIG    1        2.699   1.514  -0.061  0.00  0.00    +0.320 C 
ENDBRANCH  16  17
BRANCH  16  23
ATOM     23  C   LIG    1        1.866   5.092   1.373  0.00  0.00    -0.090 A 
ATOM     24  C   LIG    1        0.849   5.901   1.843  0.00  0.00    +0.040 A 
ATOM     25  C   LIG    1        0.945   6.473   3.098  0.00  0.00    +0.010 A 
ATOM     26  C   LIG    1        2.062   6.242   3.879  0.00  0.00    +0.010 A 
ATOM     27  C   LIG    1        3.082   5.437   3.406  0.00  0.00    +0.010 A 
ATOM     28  C   LIG    1        2.984   4.862   2.153  0.00  0.00    +0.010 A 
ENDBRANCH  16  23
ENDBRANCH   2  16
TORSDOF 8
