REMARK  Name = ZINCpk00000kETUo.0
REMARK                            x       y       z     vdW  Elec       q    Type
REMARK                         _______ _______ _______ _____ _____    ______ ____
ROOT
ATOM      1  C   LIG    1       -8.362  -0.804  -0.721  0.00  0.00    +0.600 C 
ATOM      2  N   LIG    1       -7.034  -0.591  -0.628  0.00  0.00    -0.600 N 
ATOM      3  C   LIG    1       -6.090  -1.716  -0.689  0.00  0.00    +0.290 C 
ATOM      4  C   LIG    1       -5.205  -1.680   0.563  0.00  0.00    +0.290 C 
ATOM      5  N   LIG    1       -4.676  -0.319   0.725  0.00  0.00    -0.600 N 
ATOM      6  C   LIG    1       -5.620   0.805   0.791  0.00  0.00    +0.280 C 
ATOM      7  C   LIG    1       -3.348  -0.106   0.818  0.00  0.00    +0.610 C 
ATOM      8  O   LIG    1       -2.571  -1.025   0.644  0.00  0.00    -0.520 OA
ATOM      9  C   LIG    1       -6.505   0.770  -0.466  0.00  0.00    +0.280 C 
ATOM     10  O   LIG    1       -8.796  -1.938  -0.726  0.00  0.00    -0.520 OA
ENDROOT
BRANCH   7  11
ATOM     11  C   LIG    1       -2.837   1.241   1.129  0.00  0.00    +0.010 A 
ATOM     12  N   LIG    1       -3.550   2.298   1.457  0.00  0.00    -0.210 NA
ATOM     13  N   LIG    1       -2.812   3.327   1.669  0.00  0.00    -0.410 N 
ATOM     14  H   LIG    1       -3.151   4.201   1.921  0.00  0.00    +0.450 HD
ATOM     15  C   LIG    1       -1.486   3.033   1.492  0.00  0.00    +0.070 A 
ATOM     16  C   LIG    1       -0.301   3.756   1.590  0.00  0.00    +0.010 A 
ATOM     17  C   LIG    1        0.901   3.133   1.337  0.00  0.00    +0.050 A 
ATOM     18  C   LIG    1        0.944   1.790   0.986  0.00  0.00    -0.010 A 
ATOM     19  C   LIG    1       -0.208   1.061   0.883  0.00  0.00    +0.100 A 
ATOM     20  C   LIG    1       -1.433   1.673   1.129  0.00  0.00    -0.110 A 
ENDBRANCH   7  11
BRANCH   1  24
ATOM     21  C   LIG    1      -12.493   2.129  -0.969  0.00  0.00    +0.200 C 
ATOM     22  C   LIG    1      -11.085   1.596  -0.922  0.00  0.00    -0.020 A 
ATOM     23  C   LIG    1      -10.715   0.299  -0.817  0.00  0.00    -0.010 A 
ATOM     24  C   LIG    1       -9.293   0.347  -0.816  0.00  0.00    -0.020 A 
ATOM     25  N   LIG    1       -8.972   1.613  -0.910  0.00  0.00    -0.330 NA
ATOM     26  O   LIG    1       -9.955   2.315  -0.976  0.00  0.00    +0.110 OA
ENDBRANCH   1  24
TORSDOF 2
