REMARK  Name = ZINCpk00000kETUo.1
REMARK                            x       y       z     vdW  Elec       q    Type
REMARK                         _______ _______ _______ _____ _____    ______ ____
ROOT
ATOM      1  C   LIG    1       -0.039   9.505   0.853  0.00  0.00    +0.600 C 
ATOM      2  N   LIG    1        0.454   8.254   0.941  0.00  0.00    -0.600 N 
ATOM      3  C   LIG    1        1.905   8.020   0.953  0.00  0.00    +0.290 C 
ATOM      4  C   LIG    1        2.252   7.040  -0.175  0.00  0.00    +0.290 C 
ATOM      5  N   LIG    1        1.348   5.885  -0.088  0.00  0.00    -0.600 N 
ATOM      6  C   LIG    1       -0.103   6.118  -0.105  0.00  0.00    +0.280 C 
ATOM      7  C   LIG    1        1.841   4.633  -0.000  0.00  0.00    +0.600 C 
ATOM      8  O   LIG    1        3.041   4.458   0.102  0.00  0.00    -0.520 OA
ATOM      9  C   LIG    1       -0.450   7.098   1.028  0.00  0.00    +0.290 C 
ATOM     10  O   LIG    1        0.712  10.442   0.672  0.00  0.00    -0.510 OA
ENDROOT
BRANCH   7  11
ATOM     11  C   LIG    1        0.933   3.485  -0.027  0.00  0.00    -0.020 A 
ATOM     12  C   LIG    1        0.200   3.019  -1.126  0.00  0.00    -0.120 A 
ATOM     13  C   LIG    1        0.039   3.388  -2.468  0.00  0.00    +0.050 A 
ATOM     14  C   LIG    1       -0.793   2.666  -3.266  0.00  0.00    +0.010 A 
ATOM     15  C   LIG    1       -1.494   1.562  -2.780  0.00  0.00    +0.030 A 
ATOM     16  C   LIG    1       -1.382   1.153  -1.490  0.00  0.00    +0.060 A 
ATOM     17  C   LIG    1       -0.537   1.856  -0.609  0.00  0.00    +0.060 A 
ATOM     18  N   LIG    1       -0.203   1.745   0.665  0.00  0.00    -0.270 NA
ATOM     19  N   LIG    1        0.633   2.657   1.011  0.00  0.00    -0.310 N 
ATOM     20  H   LIG    1        1.002   2.746   1.904  0.00  0.00    +0.450 HD
ENDBRANCH   7  11
BRANCH   1  24
ATOM     21  C   LIG    1       -4.635  11.623   1.211  0.00  0.00    +0.200 C 
ATOM     22  C   LIG    1       -3.472  10.667   1.131  0.00  0.00    -0.020 A 
ATOM     23  C   LIG    1       -2.165  10.994   1.005  0.00  0.00    -0.010 A 
ATOM     24  C   LIG    1       -1.499   9.738   0.978  0.00  0.00    -0.020 A 
ATOM     25  N   LIG    1       -2.435   8.827   1.080  0.00  0.00    -0.340 NA
ATOM     26  O   LIG    1       -3.531   9.329   1.171  0.00  0.00    +0.110 OA
ENDBRANCH   1  24
TORSDOF 2
