REMARK  Name = ZINCrg000000p4d9.0
REMARK                            x       y       z     vdW  Elec       q    Type
REMARK                         _______ _______ _______ _____ _____    ______ ____
ROOT
ATOM      1  C   LIG    1        0.889  -0.362  -1.062  0.00  0.00    +0.570 C 
ATOM      2  N   LIG    1        0.044  -0.092  -0.047  0.00  0.00    -0.700 N 
ATOM      3  H   LIG    1        0.328   0.484   0.680  0.00  0.00    +0.410 HD
ATOM      4  O   LIG    1        0.571  -1.161  -1.921  0.00  0.00    -0.520 OA
ENDROOT
BRANCH   1  11
ATOM      5  C   LIG    1        7.695   1.664  -3.396  0.00  0.00    +0.340 C 
ATOM      6  N   LIG    1        6.410   1.445  -2.728  0.00  0.00    -0.580 N 
ATOM      7  C   LIG    1        6.030   2.057  -1.592  0.00  0.00    +0.570 C 
ATOM      8  C   LIG    1        4.676   1.580  -1.230  0.00  0.00    -0.110 A 
ATOM      9  C   LIG    1        3.803   1.854  -0.190  0.00  0.00    +0.100 A 
ATOM     10  C   LIG    1        2.569   1.225  -0.140  0.00  0.00    +0.090 A 
ATOM     11  C   LIG    1        2.206   0.309  -1.127  0.00  0.00    -0.110 A 
ATOM     12  C   LIG    1        3.082   0.027  -2.180  0.00  0.00    +0.170 A 
ATOM     13  C   LIG    1        4.312   0.658  -2.234  0.00  0.00    -0.150 A 
ATOM     14  O   LIG    1        6.686   2.866  -0.968  0.00  0.00    -0.450 OA
ATOM     15  C   LIG    1        5.455   0.607  -3.170  0.00  0.00    +0.580 C 
ATOM     16  O   LIG    1        5.522  -0.078  -4.170  0.00  0.00    -0.450 OA
ENDBRANCH   1  11
BRANCH   2  17
ATOM     17  C   LIG    1       -1.303  -0.668  -0.042  0.00  0.00    +0.150 C 
ATOM     18  C   LIG    1       -2.087  -0.139   1.165  0.00  0.00    +0.260 C 
ATOM     19  O   LIG    1       -1.334  -0.414   2.347  0.00  0.00    -0.310 OA
ATOM     20  C   LIG    1       -0.857  -1.675   2.517  0.00  0.00    +0.120 A 
ATOM     21  C   LIG    1       -0.447  -2.064   3.788  0.00  0.00    -0.010 A 
ATOM     22  C   LIG    1        0.048  -3.335   3.999  0.00  0.00    +0.040 A 
ATOM     23  C   LIG    1        0.138  -4.225   2.945  0.00  0.00    -0.020 A 
ATOM     24  C   LIG    1       -0.269  -3.842   1.682  0.00  0.00    +0.040 A 
ATOM     25  C   LIG    1       -0.769  -2.569   1.464  0.00  0.00    -0.150 A 
ATOM     26  C   LIG    1       -1.212  -2.192   0.074  0.00  0.00    +0.110 C 
BRANCH  17  27
ATOM     27  C   LIG    1       -2.030  -0.291  -1.335  0.00  0.00    +0.200 C 
BRANCH  27  28
ATOM     28  O   LIG    1       -2.012   1.129  -1.494  0.00  0.00    -0.570 OA
ATOM     29  H   LIG    1       -2.456   1.441  -2.295  0.00  0.00    +0.390 HD
ENDBRANCH  27  28
ENDBRANCH  17  27
ENDBRANCH   2  17
TORSDOF 4
