REMARK  Name = ZINCrH000004tiU8.0
REMARK                            x       y       z     vdW  Elec       q    Type
REMARK                         _______ _______ _______ _____ _____    ______ ____
ROOT
ATOM      1  C   LIG    1       -3.669  -1.205  -0.207  0.00  0.00    +0.240 C 
ATOM      2  C   LIG    1       -3.190  -2.665  -0.351  0.00  0.00    +0.040 C 
ATOM      3  C   LIG    1       -1.734  -2.504  -0.864  0.00  0.00    +0.040 C 
ATOM      4  C   LIG    1       -1.278  -1.229  -0.116  0.00  0.00    +0.250 C 
ATOM      5  N   LIG    1       -2.471  -0.363  -0.078  0.00  0.00    -0.610 N 
ATOM      6  C   LIG    1       -2.463   0.979   0.047  0.00  0.00    +0.560 C 
ATOM      7  O   LIG    1       -3.513   1.591   0.092  0.00  0.00    -0.490 OA
ENDROOT
BRANCH   6   8
ATOM      8  C   LIG    1       -1.181   1.706   0.129  0.00  0.00    -0.120 A 
ATOM      9  C   LIG    1       -0.013   1.026   0.481  0.00  0.00    +0.060 A 
ATOM     10  C   LIG    1        1.186   1.703   0.552  0.00  0.00    +0.020 A 
ATOM     11  C   LIG    1        1.230   3.062   0.280  0.00  0.00    +0.090 A 
ATOM     12  O   LIG    1        2.413   3.737   0.349  0.00  0.00    -0.320 OA
ATOM     13  C   LIG    1        2.936   4.210  -0.893  0.00  0.00    +0.230 C 
ATOM     14  C   LIG    1        2.323   5.553  -1.260  0.00  0.00    -0.010 C 
ATOM     15  C   LIG    1        0.828   5.455  -1.521  0.00  0.00    +0.230 C 
ATOM     16  O   LIG    1        0.129   5.084  -0.332  0.00  0.00    -0.320 OA
ATOM     17  C   LIG    1        0.070   3.746  -0.066  0.00  0.00    +0.060 A 
ATOM     18  C   LIG    1       -1.135   3.077  -0.140  0.00  0.00    +0.090 A 
ENDBRANCH   6   8
BRANCH   1  19
ATOM     19  C   LIG    1       -4.540  -1.065   1.043  0.00  0.00    +0.160 C 
BRANCH  19  20
ATOM     20  C   LIG    1       -5.112   0.328   1.103  0.00  0.00    -0.050 A 
ATOM     21  C   LIG    1       -5.914   0.791   0.077  0.00  0.00    +0.020 A 
ATOM     22  C   LIG    1       -6.443   2.067   0.135  0.00  0.00    +0.000 A 
ATOM     23  C   LIG    1       -6.160   2.884   1.213  0.00  0.00    +0.000 A 
ATOM     24  C   LIG    1       -5.353   2.424   2.236  0.00  0.00    +0.010 A 
ATOM     25  C   LIG    1       -4.829   1.146   2.182  0.00  0.00    +0.010 A 
ENDBRANCH  19  20
BRANCH  19  27
ATOM     26  N   LIG    1       -6.485  -2.799   0.946  0.00  0.00    -0.420 NA
ATOM     27  C   LIG    1       -5.638  -2.044   0.988  0.00  0.00    +0.210 C 
ENDBRANCH  19  27
ENDBRANCH   1  19
TORSDOF 4
