REMARK  Name = ZINCpk00000xZ7TY.0
REMARK                            x       y       z     vdW  Elec       q    Type
REMARK                         _______ _______ _______ _____ _____    ______ ____
ROOT
ATOM      1  C   LIG    1       -0.662   1.714   1.109  0.00  0.00    +0.280 C 
ATOM      2  C   LIG    1        0.054   1.317  -0.184  0.00  0.00    +0.050 C 
ATOM      3  C   LIG    1       -0.705   1.931  -1.367  0.00  0.00    +0.030 C 
ATOM      4  C   LIG    1       -2.071   1.253  -1.478  0.00  0.00    +0.270 C 
ATOM      5  N   LIG    1       -2.750   1.261  -0.188  0.00  0.00    -0.540 N 
ATOM      6  C   LIG    1       -2.135   1.444   0.981  0.00  0.00    +0.500 C 
ATOM      7  O   LIG    1       -2.798   1.389   1.994  0.00  0.00    -0.490 OA
ENDROOT
BRANCH   5   8
ATOM      8  C   LIG    1       -4.131   1.065  -0.175  0.00  0.00    +0.300 A 
ATOM      9  C   LIG    1       -4.773  -0.135  -0.170  0.00  0.00    -0.100 A 
ATOM     10  C   LIG    1       -6.148   0.115  -0.155  0.00  0.00    +0.080 A 
ATOM     11  N   LIG    1       -6.330   1.411  -0.160  0.00  0.00    -0.280 NA
ATOM     12  C   LIG    1       -7.235  -0.929  -0.142  0.00  0.00    +0.160 C 
ATOM     13  N   LIG    1       -5.076   2.033  -0.172  0.00  0.00    -0.370 N 
ATOM     14  C   LIG    1       -4.830   3.477  -0.180  0.00  0.00    +0.350 C 
ENDBRANCH   5   8
BRANCH   1  15
ATOM     15  N   LIG    1       -0.449   3.141   1.365  0.00  0.00    -1.110 NA
ATOM     16  H   LIG    1       -0.421   3.767   0.625  0.00  0.00    +0.420 HD
BRANCH  15  17
ATOM     17  S   LIG    1       -0.256   3.683   2.918  0.00  0.00    +2.710 S 
ATOM     18  O   LIG    1       -1.330   3.136   3.670  0.00  0.00    -0.920 OA
ATOM     19  O   LIG    1       -0.004   5.079   2.826  0.00  0.00    -0.950 OA
BRANCH  17  23
ATOM     20  C   LIG    1        3.194   0.789   5.784  0.00  0.00    +0.180 C 
ATOM     21  C   LIG    1        2.614   1.733   4.762  0.00  0.00    -0.010 A 
ATOM     22  C   LIG    1        1.311   2.033   4.618  0.00  0.00    +0.040 A 
ATOM     23  C   LIG    1        1.217   2.951   3.547  0.00  0.00    -0.760 A 
ATOM     24  C   LIG    1        2.469   3.153   3.097  0.00  0.00    +0.130 A 
ATOM     25  C   LIG    1        2.859   4.056   1.956  0.00  0.00    +0.200 C 
ATOM     26  O   LIG    1        3.311   2.417   3.840  0.00  0.00    -0.160 OA
ENDBRANCH  17  23
ENDBRANCH  15  17
ENDBRANCH   1  15
TORSDOF 4
