REMARK  Name = ZINCrH000004jhzv.0
REMARK                            x       y       z     vdW  Elec       q    Type
REMARK                         _______ _______ _______ _____ _____    ______ ____
ROOT
ATOM      1  C   LIG    1        3.594   1.915  -0.022  0.00  0.00    +0.080 A 
ATOM      2  C   LIG    1        4.562   1.893   0.900  0.00  0.00    -0.050 A 
ATOM      3  S   LIG    1        5.687   3.204   0.548  0.00  0.00    +0.110 S 
ATOM      4  C   LIG    1        4.706   3.666  -0.841  0.00  0.00    +0.100 A 
ATOM      5  N   LIG    1        3.688   2.860  -0.929  0.00  0.00    -0.430 NA
ENDROOT
BRANCH   4   6
ATOM      6  C   LIG    1        4.992   4.790  -1.758  0.00  0.00    +0.010 A 
ATOM      7  C   LIG    1        4.139   5.055  -2.829  0.00  0.00    +0.080 A 
ATOM      8  C   LIG    1        4.408   6.109  -3.678  0.00  0.00    +0.070 A 
ATOM      9  C   LIG    1        5.528   6.896  -3.475  0.00  0.00    -0.170 A 
ATOM     10  C   LIG    1        6.382   6.635  -2.417  0.00  0.00    +0.070 A 
ATOM     11  C   LIG    1        6.120   5.588  -1.558  0.00  0.00    +0.040 A 
BRANCH   9  12
ATOM     12  C   LIG    1        5.820   8.042  -4.409  0.00  0.00    +0.510 C 
ATOM     13  F   LIG    1        6.496   9.050  -3.713  0.00  0.00    -0.180 F 
ATOM     14  F   LIG    1        4.618   8.549  -4.914  0.00  0.00    -0.170 F 
ATOM     15  F   LIG    1        6.616   7.590  -5.467  0.00  0.00    -0.170 F 
ENDBRANCH   9  12
ENDBRANCH   4   6
BRANCH   1  16
ATOM     16  C   LIG    1        2.462   0.920  -0.017  0.00  0.00    +0.180 C 
BRANCH  16  19
ATOM     17  N   LIG    1       -0.011   0.966   0.007  0.00  0.00    -0.630 N 
ATOM     18  H   LIG    1        0.002  -0.004   0.002  0.00  0.00    +0.420 HD
ATOM     19  C   LIG    1        1.147   1.655   0.000  0.00  0.00    +0.510 C 
ATOM     20  O   LIG    1        1.130   2.868   0.007  0.00  0.00    -0.470 OA
BRANCH  17  23
ATOM     21  C   LIG    1       -3.366   2.006   0.029  0.00  0.00    +0.300 A 
ATOM     22  N   LIG    1       -2.441   1.080   0.014  0.00  0.00    -0.560 NA
ATOM     23  C   LIG    1       -1.232   1.649   0.017  0.00  0.00    +0.440 A 
ATOM     24  N   LIG    1       -1.377   2.952   0.024  0.00  0.00    -0.290 NA
ATOM     25  N   LIG    1       -2.759   3.205   0.032  0.00  0.00    -0.380 N 
ATOM     26  C   LIG    1       -3.410   4.517   0.043  0.00  0.00    +0.360 C 
BRANCH  21  28
ATOM     27  C   LIG    1       -5.364   1.696  -1.405  0.00  0.00    +0.050 C 
ATOM     28  C   LIG    1       -4.854   1.769   0.035  0.00  0.00    +0.140 C 
ENDBRANCH  21  28
ENDBRANCH  17  23
ENDBRANCH  16  19
ENDBRANCH   1  16
TORSDOF 6
