REMARK  Name = ZINCAx00000009jv.0
REMARK                            x       y       z     vdW  Elec       q    Type
REMARK                         _______ _______ _______ _____ _____    ______ ____
ROOT
ATOM      1  O   LIG    1       -3.777  -2.003  -5.266  0.00  0.00    -0.320 OA
ENDROOT
BRANCH   1   3
ATOM      2  C   LIG    1       -4.698  -1.203  -7.373  0.00  0.00    +0.080 C 
ATOM      3  C   LIG    1       -4.302  -2.431  -6.550  0.00  0.00    +0.190 C 
BRANCH   3   4
ATOM      4  C   LIG    1       -5.513  -3.301  -6.332  0.00  0.00    +0.520 C 
ATOM      5  N   LIG    1       -6.111  -3.898  -7.382  0.00  0.00    -0.670 N 
ATOM      6  H   LIG    1       -5.804  -3.715  -8.284  0.00  0.00    +0.410 HD
ATOM      7  O   LIG    1       -5.949  -3.465  -5.213  0.00  0.00    -0.500 OA
BRANCH   5   8
ATOM      8  C   LIG    1       -7.176  -4.784  -7.171  0.00  0.00    +0.120 A 
ATOM      9  C   LIG    1       -7.333  -5.890  -7.996  0.00  0.00    +0.020 A 
ATOM     10  C   LIG    1       -8.379  -6.766  -7.785  0.00  0.00    -0.020 A 
ATOM     11  C   LIG    1       -9.281  -6.535  -6.754  0.00  0.00    +0.100 A 
ATOM     12  C   LIG    1       -9.127  -5.426  -5.933  0.00  0.00    +0.010 A 
ATOM     13  C   LIG    1       -8.078  -4.553  -6.141  0.00  0.00    +0.050 A 
BRANCH  11  14
ATOM     14  N   LIG    1      -10.344  -7.420  -6.543  0.00  0.00    -0.490 N 
ATOM     15  C   LIG    1      -10.328  -7.944  -5.169  0.00  0.00    +0.160 C 
ATOM     16  C   LIG    1      -11.538  -8.859  -4.964  0.00  0.00    +0.220 C 
ATOM     17  O   LIG    1      -11.513  -9.902  -5.942  0.00  0.00    -0.380 OA
ATOM     18  C   LIG    1      -11.528  -9.427  -7.291  0.00  0.00    +0.220 C 
ATOM     19  C   LIG    1      -10.318  -8.518  -7.520  0.00  0.00    +0.160 C 
ENDBRANCH  11  14
ENDBRANCH   5   8
ENDBRANCH   3   4
ENDBRANCH   1   3
BRANCH   1  20
ATOM     20  C   LIG    1       -2.450  -1.780  -5.191  0.00  0.00    +0.510 C 
ATOM     21  O   LIG    1       -1.752  -1.938  -6.173  0.00  0.00    -0.490 OA
BRANCH  20  22
ATOM     22  C   LIG    1       -1.845  -1.343  -3.917  0.00  0.00    -0.070 A 
ATOM     23  C   LIG    1       -0.471  -1.110  -3.836  0.00  0.00    +0.080 A 
ATOM     24  C   LIG    1        0.088  -0.703  -2.643  0.00  0.00    +0.120 A 
ATOM     25  C   LIG    1       -0.710  -0.524  -1.527  0.00  0.00    -0.650 A 
ATOM     26  C   LIG    1       -2.072  -0.758  -1.598  0.00  0.00    +0.120 A 
ATOM     27  C   LIG    1       -2.645  -1.160  -2.787  0.00  0.00    +0.070 A 
BRANCH  25  28
ATOM     28  S   LIG    1        0.012  -0.004  -0.006  0.00  0.00    +2.690 S 
ATOM     29  O   LIG    1       -0.869  -0.432   1.024  0.00  0.00    -0.940 OA
ATOM     30  O   LIG    1        1.381  -0.380  -0.063  0.00  0.00    -0.950 OA
BRANCH  28  31
ATOM     31  N   LIG    1       -0.019   1.651   0.010  0.00  0.00    -1.110 NA
ATOM     32  H   LIG    1        0.812   2.152   0.004  0.00  0.00    +0.420 HD
BRANCH  31  33
ATOM     33  C   LIG    1       -1.301   2.360   0.028  0.00  0.00    +0.400 C 
BRANCH  33  34
ATOM     34  C   LIG    1       -1.073   3.801   0.408  0.00  0.00    -0.030 A 
ATOM     35  C   LIG    1       -0.822   4.809  -0.447  0.00  0.00    -0.030 A 
ATOM     36  C   LIG    1       -0.678   5.980   0.333  0.00  0.00    -0.070 A 
ATOM     37  C   LIG    1       -0.842   5.615   1.617  0.00  0.00    +0.190 A 
ATOM     38  O   LIG    1       -1.081   4.295   1.657  0.00  0.00    -0.170 OA
ENDBRANCH  33  34
ENDBRANCH  31  33
ENDBRANCH  28  31
ENDBRANCH  25  28
ENDBRANCH  20  22
ENDBRANCH   1  20
TORSDOF 10
