REMARK  Name = ZINCrg00000SjSHH.0
REMARK                            x       y       z     vdW  Elec       q    Type
REMARK                         _______ _______ _______ _____ _____    ______ ____
ROOT
ATOM      1  C   LIG    1        3.361   3.585   2.270  0.00  0.00    +0.300 C 
ENDROOT
BRANCH   1   2
ATOM      2  C   LIG    1        4.240   4.835   2.190  0.00  0.00    +0.270 C 
BRANCH   2   3
ATOM      3  N   LIG    1        5.509   4.584   2.877  0.00  0.00    -1.110 NA
ATOM      4  H   LIG    1        5.598   3.821   3.469  0.00  0.00    +0.420 HD
BRANCH   3   5
ATOM      5  S   LIG    1        6.794   5.603   2.641  0.00  0.00    +2.730 S 
ATOM      6  O   LIG    1        6.917   5.774   1.236  0.00  0.00    -0.940 OA
ATOM      7  O   LIG    1        7.848   5.116   3.460  0.00  0.00    -0.940 OA
BRANCH   5  14
ATOM      8  C   LIG    1        7.173   6.921   5.759  0.00  0.00    +0.190 C 
ATOM      9  C   LIG    1        6.530   7.657   4.611  0.00  0.00    +0.110 A 
ATOM     10  N   LIG    1        6.041   8.863   4.634  0.00  0.00    -0.360 NA
ATOM     11  O   LIG    1        5.591   9.182   3.558  0.00  0.00    +0.100 OA
ATOM     12  C   LIG    1        5.733   8.201   2.655  0.00  0.00    +0.120 A 
ATOM     13  C   LIG    1        5.301   8.235   1.211  0.00  0.00    +0.220 C 
ATOM     14  C   LIG    1        6.340   7.174   3.296  0.00  0.00    -0.800 A 
ENDBRANCH   5  14
ENDBRANCH   3   5
ENDBRANCH   2   3
ENDBRANCH   1   2
BRANCH   1  15
ATOM     15  N   LIG    1        2.091   3.835   1.583  0.00  0.00    -0.970 NA
BRANCH  15  16
ATOM     16  S   LIG    1        1.903   3.385   0.001  0.00  0.00    +2.720 S 
ATOM     17  O   LIG    1        0.872   4.206  -0.530  0.00  0.00    -0.940 OA
ATOM     18  O   LIG    1        3.208   3.319  -0.556  0.00  0.00    -0.930 OA
BRANCH  16  19
ATOM     19  C   LIG    1        1.278   1.737  -0.001  0.00  0.00    -0.800 A 
ATOM     20  C   LIG    1       -0.016   1.336   0.009  0.00  0.00    +0.120 A 
ATOM     21  O   LIG    1        0.002  -0.004   0.002  0.00  0.00    +0.100 OA
ATOM     22  N   LIG    1        1.133  -0.433  -0.011  0.00  0.00    -0.360 NA
ATOM     23  C   LIG    1       -1.235   2.222   0.020  0.00  0.00    +0.220 C 
ATOM     24  C   LIG    1        2.010   0.528  -0.014  0.00  0.00    +0.110 A 
ATOM     25  C   LIG    1        3.510   0.381  -0.029  0.00  0.00    +0.190 C 
ENDBRANCH  16  19
ENDBRANCH  15  16
BRANCH  15  26
ATOM     26  C   LIG    1        0.989   4.485   2.297  0.00  0.00    +0.220 C 
ATOM     27  C   LIG    1        1.286   5.061   3.683  0.00  0.00    +0.030 C 
ATOM     28  C   LIG    1        0.448   3.787   3.546  0.00  0.00    +0.020 C 
ENDBRANCH  15  26
ENDBRANCH   1  15
TORSDOF 8
