REMARK  Name = ZINCrH000004oTd2.0
REMARK                            x       y       z     vdW  Elec       q    Type
REMARK                         _______ _______ _______ _____ _____    ______ ____
ROOT
ATOM      1  C   LIG    1        6.099   1.906  -2.624  0.00  0.00    +0.530 C 
ATOM      2  N   LIG    1        5.309   1.209  -1.783  0.00  0.00    -0.650 N 
ATOM      3  H   LIG    1        5.134   1.546  -0.890  0.00  0.00    +0.410 HD
ATOM      4  O   LIG    1        6.391   1.441  -3.705  0.00  0.00    -0.460 OA
ENDROOT
BRANCH   1  15
ATOM      5  C   LIG    1        7.152   2.409   0.074  0.00  0.00    +0.090 C 
ATOM      6  C   LIG    1        7.721   3.101  -1.166  0.00  0.00    +0.160 C 
ATOM      7  O   LIG    1        8.200   4.404  -0.817  0.00  0.00    -0.290 OA
ATOM      8  C   LIG    1        8.462   5.256  -1.845  0.00  0.00    +0.050 A 
ATOM      9  C   LIG    1        9.249   6.375  -1.618  0.00  0.00    +0.030 A 
ATOM     10  C   LIG    1        9.521   7.251  -2.652  0.00  0.00    +0.030 A 
ATOM     11  C   LIG    1        9.010   7.015  -3.914  0.00  0.00    +0.030 A 
ATOM     12  C   LIG    1        8.225   5.901  -4.147  0.00  0.00    +0.030 A 
ATOM     13  C   LIG    1        7.950   5.017  -3.115  0.00  0.00    +0.050 A 
ATOM     14  O   LIG    1        7.178   3.922  -3.360  0.00  0.00    -0.280 OA
ATOM     15  C   LIG    1        6.618   3.262  -2.221  0.00  0.00    +0.160 C 
ENDBRANCH   1  15
BRANCH   2  16
ATOM     16  C   LIG    1        4.743   0.003  -2.196  0.00  0.00    +0.300 A 
ATOM     17  C   LIG    1        4.902  -0.585  -3.413  0.00  0.00    -0.100 A 
ATOM     18  C   LIG    1        4.169  -1.775  -3.413  0.00  0.00    +0.250 A 
ATOM     19  N   LIG    1        3.595  -1.904  -2.244  0.00  0.00    -0.280 NA
ATOM     20  N   LIG    1        3.936  -0.795  -1.460  0.00  0.00    -0.380 N 
BRANCH  20  21
ATOM     21  C   LIG    1        3.501  -0.546  -0.083  0.00  0.00    +0.390 C 
BRANCH  21  22
ATOM     22  C   LIG    1        2.215   0.240  -0.097  0.00  0.00    -0.120 A 
ATOM     23  C   LIG    1        1.001  -0.421  -0.116  0.00  0.00    +0.070 A 
ATOM     24  C   LIG    1       -0.178   0.300  -0.129  0.00  0.00    +0.030 A 
ATOM     25  C   LIG    1       -0.144   1.683  -0.123  0.00  0.00    -0.020 A 
ATOM     26  C   LIG    1        1.071   2.344  -0.104  0.00  0.00    +0.030 A 
ATOM     27 CL   LIG    1       -1.625   2.589  -0.147  0.00  0.00    -0.060 Cl
ATOM     28  C   LIG    1        2.250   1.622  -0.092  0.00  0.00    +0.030 A 
ENDBRANCH  21  22
ENDBRANCH  20  21
ENDBRANCH   2  16
TORSDOF 4
