REMARK  Name = ZINCrD000000AlPG.2
REMARK                            x       y       z     vdW  Elec       q    Type
REMARK                         _______ _______ _______ _____ _____    ______ ____
ROOT
ATOM      1  N   LIG    1        6.888   4.147  -3.093  0.00  0.00    -0.520 NA
ATOM      2  C   LIG    1        6.701   5.491  -2.531  0.00  0.00    +0.180 C 
ATOM      3  C   LIG    1        8.056   6.194  -2.423  0.00  0.00    +0.040 C 
ATOM      4  C   LIG    1        8.691   6.285  -3.814  0.00  0.00    +0.030 C 
ATOM      5  C   LIG    1        8.830   4.876  -4.396  0.00  0.00    +0.010 C 
ATOM      6  C   LIG    1        7.452   4.212  -4.447  0.00  0.00    +0.220 C 
ENDROOT
BRANCH   5   7
ATOM      7  C   LIG    1        9.399   4.962  -5.789  0.00  0.00    +0.520 C 
ATOM      8  N   LIG    1       10.612   5.514  -5.989  0.00  0.00    -0.670 N 
ATOM      9  H   LIG    1       11.090   5.916  -5.247  0.00  0.00    +0.410 HD
ATOM     10  O   LIG    1        8.765   4.533  -6.730  0.00  0.00    -0.520 OA
BRANCH   8  11
ATOM     11  C   LIG    1       11.182   5.506  -7.266  0.00  0.00    +0.140 A 
ATOM     12  C   LIG    1       12.556   5.369  -7.414  0.00  0.00    -0.020 A 
ATOM     13  C   LIG    1       13.116   5.357  -8.677  0.00  0.00    +0.030 A 
ATOM     14  C   LIG    1       12.310   5.492  -9.793  0.00  0.00    -0.010 A 
ATOM     15  C   LIG    1       10.943   5.634  -9.649  0.00  0.00    +0.030 A 
ATOM     16  C   LIG    1       10.377   5.642  -8.389  0.00  0.00    +0.020 A 
ENDBRANCH   8  11
ENDBRANCH   5   7
BRANCH   1  17
ATOM     17  C   LIG    1        5.628   3.393  -3.083  0.00  0.00    +0.220 C 
BRANCH  17  19
ATOM     18  O   LIG    1        5.890   3.542  -0.742  0.00  0.00    -0.520 OA
ATOM     19  C   LIG    1        5.207   3.136  -1.659  0.00  0.00    +0.520 C 
ATOM     20  N   LIG    1        4.072   2.455  -1.403  0.00  0.00    -0.730 N 
ATOM     21  H   LIG    1        3.526   2.131  -2.136  0.00  0.00    +0.400 HD
BRANCH  20  22
ATOM     22  C   LIG    1        3.663   2.206  -0.019  0.00  0.00    +0.320 C 
BRANCH  22  23
ATOM     23  C   LIG    1        2.370   1.432  -0.008  0.00  0.00    -0.110 A 
ATOM     24  C   LIG    1        1.163   2.104  -0.001  0.00  0.00    +0.040 A 
ATOM     25  C   LIG    1       -0.023   1.394   0.008  0.00  0.00    +0.030 A 
ATOM     26  C   LIG    1       -0.001   0.011   0.010  0.00  0.00    -0.030 A 
ATOM     27  C   LIG    1        1.208  -0.661   0.002  0.00  0.00    +0.030 A 
ATOM     28 CL   LIG    1       -1.491  -0.881   0.021  0.00  0.00    -0.060 Cl
ATOM     29  C   LIG    1        2.393   0.050  -0.007  0.00  0.00    +0.050 A 
ENDBRANCH  22  23
ENDBRANCH  20  22
ENDBRANCH  17  19
ENDBRANCH   1  17
TORSDOF 6
