REMARK  Name = ZINCrg00000fREhM.0
REMARK                            x       y       z     vdW  Elec       q    Type
REMARK                         _______ _______ _______ _____ _____    ______ ____
ROOT
ATOM      1  N   LIG    1       -0.254   0.202   0.056  0.00  0.00    -0.520 NA
ATOM      2  C   LIG    1       -0.046   1.645  -0.132  0.00  0.00    +0.170 C 
ATOM      3  C   LIG    1        1.447   1.963   0.000  0.00  0.00    +0.270 C 
ATOM      4  N   LIG    1        1.928   1.427   1.282  0.00  0.00    -0.620 N 
ATOM      5  C   LIG    1        1.637   0.021   1.602  0.00  0.00    +0.320 C 
ATOM      6  C   LIG    1        2.618   2.203   2.142  0.00  0.00    +0.710 C 
ATOM      7  N   LIG    1        2.966   3.456   1.788  0.00  0.00    -0.670 N 
ATOM      8  H   LIG    1        2.655   3.826   0.947  0.00  0.00    +0.410 HD
ATOM      9  O   LIG    1        2.927   1.772   3.236  0.00  0.00    -0.570 OA
ATOM     10  C   LIG    1        0.136  -0.221   1.407  0.00  0.00    +0.190 C 
ENDROOT
BRANCH   7  11
ATOM     11  C   LIG    1        3.776   4.225   2.635  0.00  0.00    +0.210 A 
ATOM     12  C   LIG    1        4.536   3.608   3.618  0.00  0.00    +0.040 A 
ATOM     13  C   LIG    1        5.339   4.367   4.449  0.00  0.00    +0.060 A 
ATOM     14  C   LIG    1        5.379   5.742   4.312  0.00  0.00    +0.000 A 
ATOM     15  C   LIG    1        4.620   6.366   3.339  0.00  0.00    -0.040 A 
ATOM     16 CL   LIG    1        4.673   8.094   3.171  0.00  0.00    -0.050 Cl
ATOM     17  C   LIG    1        3.815   5.612   2.497  0.00  0.00    +0.050 A 
BRANCH  17  18
ATOM     18  N   LIG    1        3.046   6.241   1.511  0.00  0.00    -0.490 N 
ATOM     19  C   LIG    1        3.902   6.913   0.523  0.00  0.00    +0.160 C 
ATOM     20  C   LIG    1        3.024   7.535  -0.566  0.00  0.00    +0.230 C 
ATOM     21  O   LIG    1        2.087   8.431   0.038  0.00  0.00    -0.380 OA
ATOM     22  C   LIG    1        1.237   7.810   1.004  0.00  0.00    +0.230 C 
ATOM     23  C   LIG    1        2.096   7.190   2.110  0.00  0.00    +0.150 C 
ENDBRANCH  17  18
ENDBRANCH   7  11
BRANCH   1  24
ATOM     24  C   LIG    1       -1.645  -0.171  -0.232  0.00  0.00    +0.220 C 
BRANCH  24  28
ATOM     25  C   LIG    1       -3.075  -3.707  -0.557  0.00  0.00    +0.290 C 
ATOM     26  N   LIG    1       -2.958  -2.247  -0.520  0.00  0.00    -0.740 N 
ATOM     27  H   LIG    1       -3.740  -1.694  -0.674  0.00  0.00    +0.400 HD
ATOM     28  C   LIG    1       -1.765  -1.672  -0.271  0.00  0.00    +0.510 C 
ATOM     29  O   LIG    1       -0.787  -2.364  -0.077  0.00  0.00    -0.520 OA
ENDBRANCH  24  28
ENDBRANCH   1  24
TORSDOF 4
