REMARK  Name = ZINCrD00000lcGCe.0
REMARK                            x       y       z     vdW  Elec       q    Type
REMARK                         _______ _______ _______ _____ _____    ______ ____
ROOT
ATOM      1  C   LIG    1       -0.016   1.341  -0.010  0.00  0.00    +0.480 C 
ATOM      2  N   LIG    1        0.005  -0.007  -0.006  0.00  0.00    -0.700 N 
ATOM      3  H   LIG    1        0.852  -0.479   0.006  0.00  0.00    +0.420 HD
ATOM      4  O   LIG    1       -1.077   1.931  -0.030  0.00  0.00    -0.490 OA
ENDROOT
BRANCH   1   5
ATOM      5  C   LIG    1        1.264   2.107   0.004  0.00  0.00    +0.440 C 
ATOM      6  O   LIG    1        2.322   1.519   0.111  0.00  0.00    -0.400 OA
BRANCH   5   9
ATOM      7  C   LIG    1        1.619   3.738  -2.643  0.00  0.00    +0.150 C 
ATOM      8  C   LIG    1        1.399   4.308  -1.265  0.00  0.00    +0.150 A 
ATOM      9  C   LIG    1        1.245   3.564  -0.111  0.00  0.00    -0.260 A 
ATOM     10  C   LIG    1        1.064   4.537   0.984  0.00  0.00    -0.060 A 
ATOM     11  C   LIG    1        0.869   4.423   2.357  0.00  0.00    +0.040 A 
ATOM     12  C   LIG    1        0.731   5.560   3.123  0.00  0.00    +0.000 A 
ATOM     13  C   LIG    1        0.786   6.813   2.532  0.00  0.00    +0.030 A 
ATOM     14  C   LIG    1        0.979   6.940   1.173  0.00  0.00    +0.000 A 
ATOM     15  C   LIG    1        1.120   5.805   0.382  0.00  0.00    +0.090 A 
ATOM     16  N   LIG    1        1.319   5.618  -0.972  0.00  0.00    -0.570 N 
ATOM     17  H   LIG    1        1.395   6.334  -1.621  0.00  0.00    +0.420 HD
ENDBRANCH   5   9
ENDBRANCH   1   5
BRANCH   2  18
ATOM     18  C   LIG    1       -1.252  -0.759  -0.019  0.00  0.00    +0.320 C 
BRANCH  18  19
ATOM     19  C   LIG    1       -0.954  -2.236  -0.011  0.00  0.00    +0.510 C 
ATOM     20  N   LIG    1       -1.965  -3.128  -0.022  0.00  0.00    -0.660 N 
ATOM     21  H   LIG    1       -2.882  -2.821  -0.093  0.00  0.00    +0.420 HD
ATOM     22  O   LIG    1        0.195  -2.623   0.004  0.00  0.00    -0.510 OA
BRANCH  20  23
ATOM     23  C   LIG    1       -1.691  -4.497   0.070  0.00  0.00    +0.150 A 
ATOM     24  C   LIG    1       -0.463  -4.990  -0.349  0.00  0.00    +0.030 A 
ATOM     25  C   LIG    1       -0.193  -6.342  -0.254  0.00  0.00    +0.050 A 
ATOM     26  C   LIG    1       -1.148  -7.205   0.251  0.00  0.00    +0.020 A 
ATOM     27  C   LIG    1       -2.375  -6.717   0.665  0.00  0.00    -0.020 A 
ATOM     28 CL   LIG    1       -3.572  -7.805   1.298  0.00  0.00    -0.060 Cl
ATOM     29  C   LIG    1       -2.649  -5.366   0.576  0.00  0.00    -0.110 A 
ATOM     30  C   LIG    1       -3.985  -4.835   1.028  0.00  0.00    +0.110 C 
ENDBRANCH  20  23
ENDBRANCH  18  19
ENDBRANCH   2  18
TORSDOF 5
