REMARK  Name = ZINCpe00000yy8fO.0
REMARK                            x       y       z     vdW  Elec       q    Type
REMARK                         _______ _______ _______ _____ _____    ______ ____
ROOT
ATOM      1  C   LIG    1        1.744   3.023   0.791  0.00  0.00    +0.530 C 
ATOM      2  N   LIG    1        1.363   2.000  -0.000  0.00  0.00    -0.610 N 
ATOM      3  C   LIG    1       -0.018   1.499   0.010  0.00  0.00    +0.330 C 
ATOM      4  C   LIG    1        0.002  -0.004   0.002  0.00  0.00    -0.040 C 
ATOM      5  C   LIG    1        1.084  -0.711  -0.222  0.00  0.00    -0.060 C 
ATOM      6  C   LIG    1        2.440  -0.124  -0.480  0.00  0.00    +0.070 C 
ATOM      7  C   LIG    1        2.316   1.340  -0.909  0.00  0.00    +0.290 C 
ATOM      8  O   LIG    1        2.891   3.417   0.762  0.00  0.00    -0.530 OA
ENDROOT
BRANCH   1  11
ATOM      9  N   LIG    1        1.010   6.054   1.545  0.00  0.00    -0.610 N 
ATOM     10  C   LIG    1        1.358   4.915   2.402  0.00  0.00    +0.300 C 
ATOM     11  C   LIG    1        0.745   3.677   1.710  0.00  0.00    +0.000 C 
ATOM     12  C   LIG    1       -0.416   4.308   0.907  0.00  0.00    +0.080 C 
ATOM     13  C   LIG    1        0.013   5.743   0.700  0.00  0.00    +0.520 C 
ATOM     14  O   LIG    1       -0.473   6.503  -0.111  0.00  0.00    -0.530 OA
BRANCH   9  18
ATOM     15  C   LIG    1        1.173   9.744  -0.646  0.00  0.00    +0.170 C 
ATOM     16  N   LIG    1        1.754   9.141   0.561  0.00  0.00    -0.480 NA
ATOM     17  C   LIG    1        2.303   7.798   0.272  0.00  0.00    +0.160 C 
ATOM     18  C   LIG    1        1.666   7.363   1.604  0.00  0.00    +0.250 C 
ATOM     19  C   LIG    1        0.702   8.549   1.420  0.00  0.00    +0.170 C 
ENDBRANCH   9  18
ENDBRANCH   1  11
BRANCH   5  20
ATOM     20  C   LIG    1        0.958  -2.183  -0.218  0.00  0.00    -0.110 A 
ATOM     21  C   LIG    1        0.617  -2.866   0.955  0.00  0.00    +0.070 A 
ATOM     22  C   LIG    1        0.508  -4.245   0.903  0.00  0.00    -0.030 A 
ATOM     23  C   LIG    1        0.748  -4.899  -0.291  0.00  0.00    +0.260 A 
ATOM     24  N   LIG    1        1.073  -4.229  -1.381  0.00  0.00    -0.480 NA
ATOM     25  C   LIG    1        1.183  -2.917  -1.384  0.00  0.00    +0.270 A 
ENDBRANCH   5  20
TORSDOF 3
