REMARK  Name = ZINCpk00000EJCBS.0
REMARK                            x       y       z     vdW  Elec       q    Type
REMARK                         _______ _______ _______ _____ _____    ______ ____
ROOT
ATOM      1  C   LIG    1        1.050   6.118  -4.564  0.00  0.00    +0.330 C 
ATOM      2  N   LIG    1       -0.170   5.308  -4.515  0.00  0.00    -0.560 N 
ATOM      3  C   LIG    1       -0.388   4.500  -3.454  0.00  0.00    +0.560 A 
ATOM      4  C   LIG    1       -1.619   3.700  -3.433  0.00  0.00    -0.230 A 
ATOM      5  C   LIG    1       -1.925   2.836  -2.371  0.00  0.00    +0.250 A 
ATOM      6  C   LIG    1       -3.117   2.112  -2.446  0.00  0.00    -0.100 A 
ATOM      7  C   LIG    1       -3.943   2.283  -3.537  0.00  0.00    +0.360 A 
ATOM      8  N   LIG    1       -3.630   3.104  -4.524  0.00  0.00    -0.510 NA
ATOM      9  C   LIG    1       -2.513   3.810  -4.513  0.00  0.00    +0.410 A 
ATOM     10  N   LIG    1       -2.191   4.669  -5.550  0.00  0.00    -0.530 N 
ATOM     11  C   LIG    1       -3.104   4.804  -6.688  0.00  0.00    +0.350 C 
ATOM     12  O   LIG    1        0.413   4.437  -2.542  0.00  0.00    -0.450 OA
ATOM     13  C   LIG    1       -1.052   5.381  -5.524  0.00  0.00    +0.710 A 
ATOM     14  O   LIG    1       -0.809   6.123  -6.456  0.00  0.00    -0.530 OA
ENDROOT
BRANCH   5  15
ATOM     15  N   LIG    1       -1.071   2.699  -1.290  0.00  0.00    -0.490 N 
ATOM     16  C   LIG    1       -0.536   1.334  -1.210  0.00  0.00    +0.190 C 
ATOM     17  C   LIG    1        0.510   1.259  -0.096  0.00  0.00    +0.050 C 
ATOM     18  C   LIG    1       -0.138   1.651   1.234  0.00  0.00    +0.020 C 
ATOM     19  C   LIG    1       -0.731   3.057   1.110  0.00  0.00    +0.170 C 
ATOM     20  C   LIG    1       -1.741   3.080  -0.040  0.00  0.00    +0.180 C 
BRANCH  19  21
ATOM     21  O   LIG    1       -1.387   3.409   2.329  0.00  0.00    -0.370 OA
BRANCH  21  22
ATOM     22  C   LIG    1       -1.121   4.743   2.769  0.00  0.00    +0.110 C 
ATOM     23  C   LIG    1        0.370   4.891   3.076  0.00  0.00    +0.020 C 
ATOM     24  C   LIG    1       -1.934   5.035   4.032  0.00  0.00    +0.050 C 
ATOM     25  C   LIG    1       -1.516   5.730   1.669  0.00  0.00    +0.010 C 
ENDBRANCH  21  22
ENDBRANCH  19  21
ENDBRANCH   5  15
TORSDOF 3
