REMARK  Name = ZINCrD0000072C7J.0
REMARK                            x       y       z     vdW  Elec       q    Type
REMARK                         _______ _______ _______ _____ _____    ______ ____
ROOT
ATOM      1  C   LIG    1       -1.067  -4.392  -6.689  0.00  0.00    +0.300 C 
ATOM      2  N   LIG    1       -0.642  -4.005  -5.342  0.00  0.00    -0.620 N 
ATOM      3  C   LIG    1       -1.267  -4.381  -4.212  0.00  0.00    +0.520 C 
ATOM      4  C   LIG    1       -0.563  -3.793  -3.009  0.00  0.00    +0.060 C 
ATOM      5  C   LIG    1        0.325  -2.674  -3.598  0.00  0.00    +0.270 C 
ATOM      6  O   LIG    1       -2.251  -5.088  -4.165  0.00  0.00    -0.510 OA
ATOM      7  C   LIG    1        0.521  -3.159  -5.051  0.00  0.00    +0.280 C 
ENDROOT
BRANCH   7   8
ATOM      8  C   LIG    1        1.792  -3.961  -5.166  0.00  0.00    -0.070 A 
ATOM      9  C   LIG    1        2.937  -3.373  -5.670  0.00  0.00    +0.040 A 
ATOM     10  C   LIG    1        4.103  -4.107  -5.776  0.00  0.00    +0.070 A 
ATOM     11  C   LIG    1        4.126  -5.431  -5.378  0.00  0.00    -0.070 A 
ATOM     12  C   LIG    1        2.978  -6.022  -4.873  0.00  0.00    +0.120 A 
ATOM     13  F   LIG    1        2.998  -7.315  -4.484  0.00  0.00    -0.120 F 
ATOM     14 CL   LIG    1        5.590  -6.354  -5.511  0.00  0.00    -0.040 Cl
ATOM     15  C   LIG    1        1.813  -5.283  -4.763  0.00  0.00    +0.020 A 
ENDBRANCH   7   8
BRANCH   5  16
ATOM     16  N   LIG    1       -0.367  -1.383  -3.565  0.00  0.00    -0.720 N 
ATOM     17  H   LIG    1       -0.944  -1.123  -4.301  0.00  0.00    +0.410 HD
ATOM     18  C   LIG    1       -0.204  -0.557  -2.513  0.00  0.00    +0.570 C 
ATOM     19  O   LIG    1        0.516  -0.882  -1.593  0.00  0.00    -0.500 OA
BRANCH  18  20
ATOM     20  C   LIG    1       -0.916   0.770  -2.479  0.00  0.00    -0.080 C 
ATOM     21  C   LIG    1       -1.612   1.167  -1.174  0.00  0.00    +0.150 C 
ATOM     22  C   LIG    1       -2.439   0.751  -2.388  0.00  0.00    -0.080 C 
ATOM     23  C   LIG    1       -3.217  -0.572  -2.400  0.00  0.00    +0.050 C 
ATOM     24  C   LIG    1       -4.522  -0.304  -3.180  0.00  0.00    +0.020 C 
ATOM     25  C   LIG    1       -4.732   1.226  -3.055  0.00  0.00    +0.020 C 
ATOM     26  C   LIG    1       -3.288   1.782  -3.152  0.00  0.00    +0.060 C 
BRANCH  20  27
ATOM     27  C   LIG    1       -0.296   1.845  -3.272  0.00  0.00    +0.240 C 
ATOM     28  N   LIG    1        0.182   2.674  -3.884  0.00  0.00    -0.400 NA
ENDBRANCH  20  27
ENDBRANCH  18  20
ENDBRANCH   5  16
TORSDOF 4
