REMARK  Name = ZINCrg00000fSDDg.1
REMARK                            x       y       z     vdW  Elec       q    Type
REMARK                         _______ _______ _______ _____ _____    ______ ____
ROOT
ATOM      1  C   LIG    1        0.170   1.675   1.221  0.00  0.00    +0.190 A 
ATOM      2  N   LIG    1        1.274   2.377   1.234  0.00  0.00    -0.560 NA
ATOM      3  C   LIG    1        1.005   3.663   1.540  0.00  0.00    +0.500 A 
ATOM      4  N   LIG    1        1.793   4.717   1.666  0.00  0.00    -0.570 NA
ATOM      5  C   LIG    1        1.301   5.920   1.982  0.00  0.00    +0.270 A 
ATOM      6  C   LIG    1       -0.062   6.081   2.183  0.00  0.00    -0.230 A 
ATOM      7  C   LIG    1       -0.899   4.959   2.049  0.00  0.00    +0.540 A 
ATOM      8  O   LIG    1       -2.103   5.057   2.218  0.00  0.00    -0.560 OA
ATOM      9  N   LIG    1       -0.346   3.774   1.730  0.00  0.00    -0.380 N 
ATOM     10  N   LIG    1       -0.884   2.496   1.520  0.00  0.00    -0.300 NA
ENDROOT
BRANCH   5  11
ATOM     11  C   LIG    1        2.212   7.082   2.116  0.00  0.00    -0.040 A 
ATOM     12  C   LIG    1        1.701   8.338   2.439  0.00  0.00    +0.040 A 
ATOM     13  C   LIG    1        2.554   9.415   2.568  0.00  0.00    -0.010 A 
ATOM     14  C   LIG    1        3.913   9.251   2.367  0.00  0.00    +0.010 A 
ATOM     15  C   LIG    1        4.425   8.008   2.041  0.00  0.00    -0.010 A 
ATOM     16  C   LIG    1        3.582   6.923   1.915  0.00  0.00    +0.060 A 
ENDBRANCH   5  11
BRANCH   1  18
ATOM     17  O   LIG    1       -1.007  -0.333   0.939  0.00  0.00    -0.500 OA
ATOM     18  C   LIG    1        0.074   0.220   0.923  0.00  0.00    +0.630 C 
ATOM     19  N   LIG    1        1.187  -0.483   0.637  0.00  0.00    -0.740 N 
ATOM     20  H   LIG    1        2.051  -0.042   0.625  0.00  0.00    +0.410 HD
BRANCH  19  21
ATOM     21  C   LIG    1        1.093  -1.916   0.344  0.00  0.00    +0.310 C 
BRANCH  21  22
ATOM     22  C   LIG    1        2.470  -2.445  -0.063  0.00  0.00    +0.200 C 
ATOM     23  C   LIG    1        2.662  -3.939   0.230  0.00  0.00    +0.110 C 
ATOM     24  C   LIG    1        4.078  -3.502   0.632  0.00  0.00    +0.290 C 
ATOM     25  N   LIG    1        3.523  -2.169   0.932  0.00  0.00    -0.380 N 
ATOM     26  H   LIG    1        3.172  -2.083   1.874  0.00  0.00    +0.440 HD
BRANCH  25  27
ATOM     27  C   LIG    1        4.414  -1.065   0.549  0.00  0.00    +0.090 C 
ATOM     28  C   LIG    1        5.894  -1.393   0.341  0.00  0.00    +0.090 C 
ATOM     29  C   LIG    1        5.451  -0.606   1.576  0.00  0.00    +0.110 C 
ENDBRANCH  25  27
ENDBRANCH  21  22
ENDBRANCH  19  21
ENDBRANCH   1  18
TORSDOF 5
