REMARK  Name = ZINCrg00000fSDDg.0
REMARK                            x       y       z     vdW  Elec       q    Type
REMARK                         _______ _______ _______ _____ _____    ______ ____
ROOT
ATOM      1  C   LIG    1        0.511  -2.577   4.782  0.00  0.00    +0.190 A 
ATOM      2  N   LIG    1        0.122  -3.627   4.106  0.00  0.00    -0.560 NA
ATOM      3  C   LIG    1       -0.282  -4.601   4.948  0.00  0.00    +0.490 A 
ATOM      4  N   LIG    1       -0.749  -5.817   4.723  0.00  0.00    -0.570 NA
ATOM      5  C   LIG    1       -1.094  -6.628   5.729  0.00  0.00    +0.270 A 
ATOM      6  C   LIG    1       -0.966  -6.197   7.042  0.00  0.00    -0.230 A 
ATOM      7  C   LIG    1       -0.470  -4.903   7.279  0.00  0.00    +0.540 A 
ATOM      8  O   LIG    1       -0.342  -4.487   8.419  0.00  0.00    -0.560 OA
ATOM      9  N   LIG    1       -0.139  -4.133   6.226  0.00  0.00    -0.380 N 
ATOM     10  N   LIG    1        0.376  -2.833   6.121  0.00  0.00    -0.300 NA
ENDROOT
BRANCH   5  11
ATOM     11  C   LIG    1       -1.614  -7.985   5.442  0.00  0.00    -0.040 A 
ATOM     12  C   LIG    1       -1.970  -8.835   6.489  0.00  0.00    +0.040 A 
ATOM     13  C   LIG    1       -2.459 -10.096   6.215  0.00  0.00    -0.010 A 
ATOM     14  C   LIG    1       -2.586 -10.522   4.905  0.00  0.00    +0.010 A 
ATOM     15  C   LIG    1       -2.229  -9.686   3.862  0.00  0.00    -0.010 A 
ATOM     16  C   LIG    1       -1.745  -8.421   4.123  0.00  0.00    +0.060 A 
ENDBRANCH   5  11
BRANCH   1  18
ATOM     17  O   LIG    1        1.358  -0.395   4.917  0.00  0.00    -0.510 OA
ATOM     18  C   LIG    1        1.023  -1.311   4.193  0.00  0.00    +0.640 C 
ATOM     19  N   LIG    1        1.115  -1.179   2.855  0.00  0.00    -0.720 N 
ATOM     20  H   LIG    1        0.847  -1.910   2.276  0.00  0.00    +0.420 HD
BRANCH  19  21
ATOM     21  C   LIG    1        1.619   0.068   2.274  0.00  0.00    +0.310 C 
BRANCH  21  22
ATOM     22  C   LIG    1        1.506   0.003   0.750  0.00  0.00    +0.170 C 
ATOM     23  C   LIG    1        2.677  -0.730   0.079  0.00  0.00    +0.110 C 
ATOM     24  C   LIG    1        3.319   0.664   0.071  0.00  0.00    +0.290 C 
ATOM     25  N   LIG    1        1.959   1.233   0.074  0.00  0.00    -0.380 N 
ATOM     26  H   LIG    1        1.571   1.349  -0.850  0.00  0.00    +0.440 HD
BRANCH  25  27
ATOM     27  C   LIG    1        1.831   2.437   0.906  0.00  0.00    +0.080 C 
ATOM     28  C   LIG    1        1.079   3.630   0.311  0.00  0.00    +0.100 C 
ATOM     29  C   LIG    1        2.601   3.684   0.467  0.00  0.00    +0.100 C 
ENDBRANCH  25  27
ENDBRANCH  21  22
ENDBRANCH  19  21
ENDBRANCH   1  18
TORSDOF 5
