REMARK  Name = ZINCrH000004nw86.0
REMARK                            x       y       z     vdW  Elec       q    Type
REMARK                         _______ _______ _______ _____ _____    ______ ____
ROOT
ATOM      1  C   LIG    1       -2.446   4.286  -0.125  0.00  0.00    +0.580 C 
ATOM      2  N   LIG    1       -2.382   5.619  -0.316  0.00  0.00    -0.720 N 
ATOM      3  H   LIG    1       -1.526   6.045  -0.479  0.00  0.00    +0.410 HD
ATOM      4  O   LIG    1       -3.520   3.752   0.078  0.00  0.00    -0.530 OA
ENDROOT
BRANCH   1  11
ATOM      5  C   LIG    1        2.400   1.414  -0.065  0.00  0.00    +0.120 A 
ATOM      6  C   LIG    1        2.391   0.031  -0.095  0.00  0.00    +0.000 A 
ATOM      7  C   LIG    1        1.193  -0.669  -0.055  0.00  0.00    +0.040 A 
ATOM      8  C   LIG    1        0.002  -0.004   0.002  0.00  0.00    +0.070 A 
ATOM      9  C   LIG    1       -0.017   1.399   0.010  0.00  0.00    -0.130 A 
ATOM     10  C   LIG    1       -1.249   2.102   0.031  0.00  0.00    +0.250 A 
ATOM     11  C   LIG    1       -1.216   3.477  -0.163  0.00  0.00    -0.270 A 
ATOM     12  C   LIG    1        0.101   4.093  -0.407  0.00  0.00    +0.520 A 
ATOM     13  O   LIG    1        0.201   5.133  -1.029  0.00  0.00    -0.440 OA
ATOM     14  O   LIG    1        1.193   3.464   0.082  0.00  0.00    -0.250 OA
ATOM     15  C   LIG    1        1.195   2.112   0.002  0.00  0.00    +0.120 A 
BRANCH   5  17
ATOM     16  C   LIG    1        4.773   1.308  -0.169  0.00  0.00    +0.250 C 
ATOM     17  O   LIG    1        3.579   2.090  -0.101  0.00  0.00    -0.300 OA
ENDBRANCH   5  17
ENDBRANCH   1  11
BRANCH   2  18
ATOM     18  C   LIG    1       -3.605   6.424  -0.279  0.00  0.00    +0.330 C 
BRANCH  18  19
ATOM     19  C   LIG    1       -3.262   7.871  -0.520  0.00  0.00    -0.110 A 
ATOM     20  C   LIG    1       -2.967   8.698   0.547  0.00  0.00    +0.070 A 
ATOM     21  C   LIG    1       -2.648  10.025   0.326  0.00  0.00    +0.020 A 
ATOM     22  C   LIG    1       -2.632  10.527  -0.962  0.00  0.00    +0.080 A 
ATOM     23  C   LIG    1       -2.931   9.700  -2.029  0.00  0.00    -0.180 A 
ATOM     24  C   LIG    1       -3.247   8.373  -1.808  0.00  0.00    +0.090 A 
BRANCH  23  25
ATOM     25  C   LIG    1       -2.914  10.247  -3.433  0.00  0.00    +0.510 C 
ATOM     26  F   LIG    1       -2.565   9.229  -4.326  0.00  0.00    -0.180 F 
ATOM     27  F   LIG    1       -1.978  11.284  -3.519  0.00  0.00    -0.180 F 
ATOM     28  F   LIG    1       -4.184  10.737  -3.758  0.00  0.00    -0.180 F 
ENDBRANCH  23  25
ENDBRANCH  18  19
ENDBRANCH   2  18
TORSDOF 5
