REMARK  Name = ZINCrD000000CMYK.0
REMARK                            x       y       z     vdW  Elec       q    Type
REMARK                         _______ _______ _______ _____ _____    ______ ____
ROOT
ATOM      1  C   LIG    1       -1.568   3.574   2.487  0.00  0.00    +0.510 C 
ATOM      2  N   LIG    1       -1.764   4.891   2.695  0.00  0.00    -0.730 N 
ATOM      3  H   LIG    1       -1.397   5.540   2.075  0.00  0.00    +0.400 HD
ATOM      4  O   LIG    1       -2.027   2.762   3.262  0.00  0.00    -0.510 OA
ENDROOT
BRANCH   1   9
ATOM      5  O   LIG    1       -0.756   0.946  -2.252  0.00  0.00    -0.450 OA
ATOM      6  C   LIG    1       -0.743   1.586  -1.220  0.00  0.00    +0.420 C 
ATOM      7  C   LIG    1       -0.013   1.086   0.008  0.00  0.00    +0.050 C 
ATOM      8  C   LIG    1       -0.726   1.578   1.268  0.00  0.00    +0.090 C 
ATOM      9  C   LIG    1       -0.779   3.110   1.290  0.00  0.00    +0.240 C 
ATOM     10  N   LIG    1       -1.433   3.567   0.059  0.00  0.00    -0.420 N 
ATOM     11  C   LIG    1       -2.131   4.691  -0.157  0.00  0.00    +0.200 A 
ATOM     12  C   LIG    1       -2.567   4.702  -1.445  0.00  0.00    -0.060 A 
ATOM     13  C   LIG    1       -2.119   3.529  -2.062  0.00  0.00    +0.070 A 
ATOM     14  C   LIG    1       -1.410   2.830  -1.117  0.00  0.00    -0.090 A 
ENDBRANCH   1   9
BRANCH   2  15
ATOM     15  C   LIG    1       -2.532   5.342   3.859  0.00  0.00    +0.280 C 
BRANCH  15  16
ATOM     16  C   LIG    1       -2.605   6.870   3.860  0.00  0.00    +0.090 C 
BRANCH  16  17
ATOM     17  C   LIG    1       -3.395   7.334   5.057  0.00  0.00    -0.040 A 
ATOM     18  C   LIG    1       -2.749   7.594   6.251  0.00  0.00    -0.010 A 
ATOM     19  C   LIG    1       -3.471   8.020   7.352  0.00  0.00    +0.060 A 
ATOM     20  C   LIG    1       -4.839   8.186   7.260  0.00  0.00    -0.080 A 
ATOM     21  C   LIG    1       -5.489   7.926   6.062  0.00  0.00    +0.130 A 
ATOM     22  C   LIG    1       -4.762   7.504   4.958  0.00  0.00    +0.000 A 
BRANCH  21  23
ATOM     23  O   LIG    1       -6.835   8.089   5.969  0.00  0.00    -0.300 OA
BRANCH  23  24
ATOM     24  C   LIG    1       -7.518   8.531   7.144  0.00  0.00    +0.230 C 
BRANCH  24  25
ATOM     25  C   LIG    1       -9.014   8.655   6.848  0.00  0.00    +0.470 C 
ATOM     26  F   LIG    1       -9.210   9.581   5.818  0.00  0.00    -0.170 F 
ATOM     27  F   LIG    1       -9.682   9.088   7.998  0.00  0.00    -0.170 F 
ATOM     28  F   LIG    1       -9.517   7.409   6.457  0.00  0.00    -0.170 F 
ENDBRANCH  24  25
ENDBRANCH  23  24
ENDBRANCH  21  23
ENDBRANCH  16  17
ENDBRANCH  15  16
ENDBRANCH   2  15
TORSDOF 7
