REMARK  Name = ZINCrD0000075fVo.0
REMARK                            x       y       z     vdW  Elec       q    Type
REMARK                         _______ _______ _______ _____ _____    ______ ____
ROOT
ATOM      1  C   LIG    1        2.182   6.084   0.014  0.00  0.00    +0.220 A 
ATOM      2  N   LIG    1        0.961   6.559   0.029  0.00  0.00    -0.310 NA
ATOM      3  N   LIG    1        1.040   7.958   0.036  0.00  0.00    -0.340 NA
ATOM      4  C   LIG    1        2.307   8.292   0.026  0.00  0.00    +0.400 A 
ATOM      5  N   LIG    1        3.046   7.143   0.017  0.00  0.00    -0.480 N 
ENDROOT
BRANCH   4   6
ATOM      6  N   LIG    1        2.810   9.586   0.028  0.00  0.00    -0.440 N 
ATOM      7  C   LIG    1        3.586   9.859  -1.209  0.00  0.00    +0.180 C 
ATOM      8  C   LIG    1        3.601  11.406  -1.284  0.00  0.00    +0.040 C 
ATOM      9  C   LIG    1        2.191  11.791  -0.780  0.00  0.00    +0.030 C 
ATOM     10  C   LIG    1        1.714  10.580   0.044  0.00  0.00    +0.210 C 
ENDBRANCH   4   6
BRANCH   1  11
ATOM     11  S   LIG    1        2.632   4.381   0.001  0.00  0.00    +0.040 S 
BRANCH  11  12
ATOM     12  C   LIG    1        1.027   3.535   0.011  0.00  0.00    +0.100 C 
BRANCH  12  13
ATOM     13  C   LIG    1        1.248   2.021   0.001  0.00  0.00    +0.240 C 
BRANCH  13  14
ATOM     14  O   LIG    1       -0.016   1.355   0.009  0.00  0.00    -0.300 OA
BRANCH  14  19
ATOM     15  F   LIG    1        0.058  -4.122  -0.021  0.00  0.00    -0.140 F 
ATOM     16  C   LIG    1        0.040  -2.771  -0.014  0.00  0.00    +0.060 A 
ATOM     17  C   LIG    1       -1.169  -2.096   0.002  0.00  0.00    +0.030 A 
ATOM     18  C   LIG    1       -1.189  -0.715   0.010  0.00  0.00    +0.020 A 
ATOM     19  C   LIG    1        0.002  -0.004   0.002  0.00  0.00    +0.120 A 
ATOM     20  C   LIG    1        1.212  -0.682  -0.019  0.00  0.00    -0.040 A 
ATOM     21  C   LIG    1        1.230  -2.063  -0.021  0.00  0.00    +0.030 A 
ENDBRANCH  14  19
ENDBRANCH  13  14
ENDBRANCH  12  13
ENDBRANCH  11  12
ENDBRANCH   1  11
BRANCH   5  22
ATOM     22  C   LIG    1        4.509   7.061   0.009  0.00  0.00    +0.330 C 
BRANCH  22  23
ATOM     23  C   LIG    1        5.012   7.043  -1.436  0.00  0.00    +0.130 C 
ATOM     24  C   LIG    1        6.561   7.048  -1.467  0.00  0.00    +0.030 C 
ATOM     25  C   LIG    1        6.829   6.391  -2.850  0.00  0.00    +0.020 C 
ATOM     26  C   LIG    1        5.664   5.385  -2.968  0.00  0.00    +0.190 C 
ATOM     27  O   LIG    1        4.625   5.820  -2.082  0.00  0.00    -0.360 OA
ENDBRANCH  22  23
ENDBRANCH   5  22
TORSDOF 8
