REMARK  Name = ZINCrD000000ByGu.0
REMARK                            x       y       z     vdW  Elec       q    Type
REMARK                         _______ _______ _______ _____ _____    ______ ____
ROOT
ATOM      1  N   LIG    1       -0.043   1.362   0.063  0.00  0.00    -0.520 N 
ATOM      2  H   LIG    1       -0.895   1.824   0.090  0.00  0.00    +0.440 HD
ATOM      3  C   LIG    1       -0.009   0.015   0.015  0.00  0.00    +0.530 C 
ATOM      4  O   LIG    1        1.051  -0.560  -0.117  0.00  0.00    -0.520 OA
ENDROOT
BRANCH   3   5
ATOM      5  C   LIG    1       -1.287  -0.776   0.124  0.00  0.00    -0.030 C 
ATOM      6  C   LIG    1       -2.021  -0.414   1.427  0.00  0.00    +0.030 C 
ATOM      7  C   LIG    1       -2.124  -1.714   2.250  0.00  0.00    +0.020 C 
ATOM      8  C   LIG    1       -0.966  -2.594   1.718  0.00  0.00    +0.020 C 
ATOM      9  C   LIG    1       -0.970  -2.284   0.201  0.00  0.00    +0.060 C 
BRANCH   5  10
ATOM     10  C   LIG    1       -2.171  -0.494  -1.063  0.00  0.00    -0.070 A 
ATOM     11  C   LIG    1       -1.703   0.286  -2.104  0.00  0.00    +0.010 A 
ATOM     12  C   LIG    1       -2.513   0.545  -3.194  0.00  0.00    +0.040 A 
ATOM     13  C   LIG    1       -3.792   0.023  -3.244  0.00  0.00    +0.030 A 
ATOM     14  C   LIG    1       -4.261  -0.758  -2.202  0.00  0.00    -0.030 A 
ATOM     15 CL   LIG    1       -5.867  -1.414  -2.264  0.00  0.00    -0.060 Cl
ATOM     16  C   LIG    1       -3.448  -1.021  -1.114  0.00  0.00    +0.040 A 
ENDBRANCH   5  10
ENDBRANCH   3   5
BRANCH   1  19
ATOM     17  O   LIG    1        0.051   4.018   0.154  0.00  0.00    -0.510 OA
ATOM     18  C   LIG    1        1.117   3.440   0.115  0.00  0.00    +0.520 C 
ATOM     19  N   LIG    1        1.151   2.094   0.067  0.00  0.00    -0.520 N 
ATOM     20  H   LIG    1        2.003   1.631   0.035  0.00  0.00    +0.430 HD
BRANCH  18  21
ATOM     21  C   LIG    1        2.402   4.227   0.119  0.00  0.00    +0.200 C 
ATOM     22  C   LIG    1        3.164   4.039  -1.214  0.00  0.00    +0.110 C 
ATOM     23  C   LIG    1        3.763   5.415  -1.429  0.00  0.00    -0.180 A 
ATOM     24  C   LIG    1        4.767   5.868  -2.256  0.00  0.00    +0.060 A 
ATOM     25  C   LIG    1        5.123   7.205  -2.243  0.00  0.00    -0.010 A 
ATOM     26  C   LIG    1        4.467   8.082  -1.399  0.00  0.00    +0.050 A 
ATOM     27  C   LIG    1        3.459   7.631  -0.572  0.00  0.00    +0.000 A 
ATOM     28  C   LIG    1        3.093   6.287  -0.581  0.00  0.00    +0.100 A 
ATOM     29  O   LIG    1        2.134   5.639   0.136  0.00  0.00    -0.270 OA
ENDBRANCH  18  21
ENDBRANCH   1  19
TORSDOF 4
