REMARK  Name = ZINCrH000004rlYM.0
REMARK                            x       y       z     vdW  Elec       q    Type
REMARK                         _______ _______ _______ _____ _____    ______ ____
ROOT
ATOM      1  N   LIG    1       -7.861   3.952  -4.372  0.00  0.00    -0.550 N 
ATOM      2  C   LIG    1       -9.041   3.098  -4.198  0.00  0.00    +0.270 C 
ATOM      3  C   LIG    1       -8.733   2.215  -2.969  0.00  0.00    +0.110 C 
ATOM      4  C   LIG    1       -7.187   2.197  -2.973  0.00  0.00    -0.010 C 
ATOM      5  C   LIG    1       -6.803   3.467  -3.700  0.00  0.00    +0.530 C 
ATOM      6  O   LIG    1       -5.701   3.974  -3.679  0.00  0.00    -0.500 OA
ENDROOT
BRANCH   1  11
ATOM      7  C   LIG    1       -7.776   8.696  -7.483  0.00  0.00    +0.090 C 
ATOM      8  C   LIG    1       -7.798   7.436  -6.657  0.00  0.00    -0.110 A 
ATOM      9  C   LIG    1       -8.925   6.635  -6.652  0.00  0.00    +0.040 A 
ATOM     10  C   LIG    1       -8.949   5.479  -5.895  0.00  0.00    -0.030 A 
ATOM     11  C   LIG    1       -7.840   5.122  -5.140  0.00  0.00    +0.160 A 
ATOM     12  C   LIG    1       -6.712   5.932  -5.143  0.00  0.00    +0.000 A 
ATOM     13  C   LIG    1       -6.692   7.083  -5.906  0.00  0.00    -0.060 A 
ATOM     14  C   LIG    1       -5.466   7.959  -5.915  0.00  0.00    +0.090 C 
ENDBRANCH   1  11
BRANCH   4  15
ATOM     15  C   LIG    1       -6.655   2.215  -1.563  0.00  0.00    +0.540 C 
ATOM     16  N   LIG    1       -5.326   2.280  -1.345  0.00  0.00    -0.720 N 
ATOM     17  H   LIG    1       -4.713   2.316  -2.095  0.00  0.00    +0.410 HD
ATOM     18  O   LIG    1       -7.422   2.170  -0.625  0.00  0.00    -0.530 OA
BRANCH  16  19
ATOM     19  C   LIG    1       -4.809   2.298   0.026  0.00  0.00    +0.400 C 
BRANCH  19  20
ATOM     20  C   LIG    1       -3.305   2.373  -0.006  0.00  0.00    +0.010 A 
ATOM     21  C   LIG    1       -2.594   3.509  -0.015  0.00  0.00    -0.010 A 
ATOM     22  C   LIG    1       -1.182   3.108  -0.047  0.00  0.00    -0.140 A 
ATOM     23  C   LIG    1        0.027   3.801  -0.069  0.00  0.00    +0.060 A 
ATOM     24  C   LIG    1        1.213   3.100  -0.097  0.00  0.00    -0.010 A 
ATOM     25  C   LIG    1        1.205   1.712  -0.104  0.00  0.00    +0.050 A 
ATOM     26  C   LIG    1        0.015   1.016  -0.083  0.00  0.00    +0.020 A 
ATOM     27  C   LIG    1       -1.191   1.703  -0.060  0.00  0.00    +0.060 A 
ATOM     28  O   LIG    1       -2.481   1.311  -0.029  0.00  0.00    -0.190 OA
ENDBRANCH  19  20
ENDBRANCH  16  19
ENDBRANCH   4  15
TORSDOF 4
