REMARK  Name = ZINCrD0000075h0v.0
REMARK                            x       y       z     vdW  Elec       q    Type
REMARK                         _______ _______ _______ _____ _____    ______ ____
ROOT
ATOM      1  C   LIG    1       -4.746   0.129  -0.487  0.00  0.00    +0.060 C 
ENDROOT
BRANCH   1   2
ATOM      2  C   LIG    1       -6.061   0.484  -1.132  0.00  0.00    +0.400 C 
ATOM      3  O   LIG    1       -6.209   1.571  -1.651  0.00  0.00    -0.450 OA
BRANCH   2   4
ATOM      4  C   LIG    1       -7.166  -0.486  -1.132  0.00  0.00    -0.180 A 
ATOM      5  C   LIG    1       -6.995  -1.742  -0.539  0.00  0.00    +0.070 A 
ATOM      6  C   LIG    1       -8.028  -2.644  -0.536  0.00  0.00    +0.000 A 
ATOM      7  C   LIG    1       -9.245  -2.314  -1.133  0.00  0.00    -0.010 A 
ATOM      8  C   LIG    1       -9.416  -1.064  -1.730  0.00  0.00    +0.000 A 
ATOM      9  C   LIG    1       -8.388  -0.157  -1.730  0.00  0.00    +0.090 A 
BRANCH   7  10
ATOM     10  C   LIG    1      -10.358  -3.293  -1.134  0.00  0.00    -0.060 A 
ATOM     11  C   LIG    1      -11.578  -2.965  -1.725  0.00  0.00    +0.030 A 
ATOM     12  C   LIG    1      -12.609  -3.883  -1.727  0.00  0.00    +0.010 A 
ATOM     13  C   LIG    1      -12.438  -5.121  -1.136  0.00  0.00    +0.010 A 
ATOM     14  C   LIG    1      -11.232  -5.450  -0.543  0.00  0.00    +0.010 A 
ATOM     15  C   LIG    1      -10.192  -4.543  -0.539  0.00  0.00    +0.030 A 
ENDBRANCH   7  10
ENDBRANCH   2   4
ENDBRANCH   1   2
BRANCH   1  16
ATOM     16  C   LIG    1       -3.777   1.305  -0.625  0.00  0.00    +0.070 C 
BRANCH  16  17
ATOM     17  C   LIG    1       -2.462   0.950   0.019  0.00  0.00    +0.370 C 
ATOM     18  O   LIG    1       -2.315  -0.132   0.535  0.00  0.00    -0.390 OA
BRANCH  17  19
ATOM     19  C   LIG    1       -1.330   1.944   0.019  0.00  0.00    +0.110 C 
BRANCH  19  20
ATOM     20  C   LIG    1       -0.014   1.209   0.009  0.00  0.00    +0.530 C 
ATOM     21  N   LIG    1        1.143   1.898   0.001  0.00  0.00    -0.700 N 
ATOM     22  H   LIG    1        1.130   2.868   0.007  0.00  0.00    +0.400 HD
ATOM     23  O   LIG    1        0.002  -0.004   0.002  0.00  0.00    -0.490 OA
BRANCH  21  24
ATOM     24  C   LIG    1        2.422   1.183  -0.015  0.00  0.00    +0.220 C 
ATOM     25  C   LIG    1        3.526   1.689   0.916  0.00  0.00    +0.020 C 
ATOM     26  C   LIG    1        3.634   1.916  -0.594  0.00  0.00    +0.030 C 
ENDBRANCH  21  24
ENDBRANCH  19  20
BRANCH  19  28
ATOM     27  N   LIG    1       -1.478   3.430   2.157  0.00  0.00    -0.370 NA
ATOM     28  C   LIG    1       -1.413   2.783   1.226  0.00  0.00    +0.200 C 
ENDBRANCH  19  28
ENDBRANCH  17  19
ENDBRANCH  16  17
ENDBRANCH   1  16
TORSDOF 9
