REMARK  Name = ZINCrD00000l5Ejf.0
REMARK                            x       y       z     vdW  Elec       q    Type
REMARK                         _______ _______ _______ _____ _____    ______ ____
ROOT
ATOM      1  C   LIG    1        3.263   2.220  -1.709  0.00  0.00    +0.570 C 
ATOM      2  N   LIG    1        2.601   3.346  -1.375  0.00  0.00    -0.610 N 
ATOM      3  C   LIG    1        3.009   4.653  -1.914  0.00  0.00    +0.260 C 
ATOM      4  C   LIG    1        3.147   5.636  -0.746  0.00  0.00    +0.220 C 
ATOM      5  O   LIG    1        1.948   5.616   0.031  0.00  0.00    -0.360 OA
ATOM      6  C   LIG    1        1.662   4.353   0.636  0.00  0.00    +0.240 C 
ATOM      7  C   LIG    1        1.448   3.304  -0.461  0.00  0.00    +0.340 C 
ATOM      8  O   LIG    1        2.843   1.138  -1.348  0.00  0.00    -0.510 OA
ENDROOT
BRANCH   1  13
ATOM      9  C   LIG    1        8.080   2.543  -4.843  0.00  0.00    +0.110 C 
ATOM     10  C   LIG    1        6.819   2.457  -4.022  0.00  0.00    -0.090 A 
ATOM     11  C   LIG    1        6.525   3.451  -3.106  0.00  0.00    +0.050 A 
ATOM     12  C   LIG    1        5.369   3.382  -2.356  0.00  0.00    +0.040 A 
ATOM     13  C   LIG    1        4.500   2.302  -2.514  0.00  0.00    -0.110 A 
ATOM     14  C   LIG    1        4.801   1.301  -3.440  0.00  0.00    +0.060 A 
ATOM     15  C   LIG    1        5.958   1.384  -4.189  0.00  0.00    +0.100 A 
ATOM     16  F   LIG    1        6.252   0.417  -5.086  0.00  0.00    -0.130 F 
ENDBRANCH   1  13
BRANCH   7  17
ATOM     17  C   LIG    1        1.342   1.935   0.160  0.00  0.00    +0.200 A 
ATOM     18  N   LIG    1        0.357   1.085   0.006  0.00  0.00    -0.460 NA
ATOM     19  C   LIG    1        0.693   0.002   0.743  0.00  0.00    +0.220 A 
ATOM     20  N   LIG    1        1.851   0.255   1.295  0.00  0.00    -0.370 NA
ATOM     21  O   LIG    1        2.236   1.359   0.970  0.00  0.00    +0.090 OA
BRANCH  19  22
ATOM     22  C   LIG    1       -0.103  -1.241   0.896  0.00  0.00    -0.020 A 
ATOM     23  C   LIG    1       -1.331  -1.369   0.249  0.00  0.00    +0.050 A 
ATOM     24  C   LIG    1       -2.065  -2.529   0.392  0.00  0.00    +0.010 A 
ATOM     25  C   LIG    1       -1.590  -3.558   1.184  0.00  0.00    +0.030 A 
ATOM     26  C   LIG    1       -0.374  -3.434   1.833  0.00  0.00    +0.010 A 
ATOM     27  C   LIG    1        0.371  -2.281   1.693  0.00  0.00    +0.050 A 
ENDBRANCH  19  22
ENDBRANCH   7  17
TORSDOF 3
