REMARK  Name = ZINCrH00000xlWyJ.0
REMARK                            x       y       z     vdW  Elec       q    Type
REMARK                         _______ _______ _______ _____ _____    ______ ____
ROOT
ATOM      1  C   LIG    1       -4.646   1.359   1.218  0.00  0.00    +0.000 A 
ATOM      2  C   LIG    1       -5.648   2.148   1.781  0.00  0.00    +0.020 A 
ATOM      3  C   LIG    1       -5.537   3.523   1.753  0.00  0.00    +0.000 A 
ATOM      4  C   LIG    1       -4.434   4.119   1.169  0.00  0.00    +0.010 A 
ATOM      5  C   LIG    1       -3.434   3.341   0.613  0.00  0.00    +0.020 A 
ATOM      6  C   LIG    1       -3.537   1.965   0.630  0.00  0.00    -0.070 A 
ENDROOT
BRANCH   1  10
ATOM      7  C   LIG    1       -6.291  -3.295   0.354  0.00  0.00    +0.320 C 
ATOM      8  N   LIG    1       -5.476  -2.193   0.872  0.00  0.00    -0.470 N 
ATOM      9  C   LIG    1       -5.695  -0.872   0.613  0.00  0.00    +0.270 A 
ATOM     10  C   LIG    1       -4.759  -0.119   1.246  0.00  0.00    -0.150 A 
ATOM     11  C   LIG    1       -3.878  -1.052   1.957  0.00  0.00    -0.060 A 
ATOM     12  C   LIG    1       -2.758  -0.924   2.779  0.00  0.00    +0.010 A 
ATOM     13  C   LIG    1       -2.183  -2.056   3.287  0.00  0.00    +0.210 A 
ATOM     14  N   LIG    1       -2.672  -3.255   3.017  0.00  0.00    -0.460 NA
ATOM     15  C   LIG    1       -3.729  -3.433   2.251  0.00  0.00    +0.270 A 
ATOM     16  C   LIG    1       -4.380  -2.342   1.691  0.00  0.00    +0.040 A 
ENDBRANCH   1  10
BRANCH   6  17
ATOM     17  CA  LIG    1       -2.449   1.119   0.020  0.00  0.00    +0.330 C 
BRANCH  17  18
ATOM     18  N   LIG    1       -1.191   1.869   0.018  0.00  0.00    -0.700 N 
ATOM     19  H   LIG    1       -1.204   2.839   0.023  0.00  0.00    +0.410 HD
ATOM     20  C   LIG    1       -0.014   1.211   0.009  0.00  0.00    +0.650 C 
ATOM     21  O   LIG    1        0.002  -0.004   0.002  0.00  0.00    -0.570 OA
BRANCH  20  22
ATOM     22  O   LIG    1        1.142   1.900   0.001  0.00  0.00    -0.360 OA
BRANCH  22  23
ATOM     23  C   LIG    1        2.371   1.126  -0.015  0.00  0.00    +0.140 C 
ATOM     24  C   LIG    1        2.429   0.237   1.229  0.00  0.00    +0.040 C 
ATOM     25  C   LIG    1        3.571   2.074  -0.021  0.00  0.00    +0.080 C 
ATOM     26  C   LIG    1        2.405   0.250  -1.269  0.00  0.00    +0.040 C 
ENDBRANCH  22  23
ENDBRANCH  20  22
ENDBRANCH  17  18
BRANCH  17  27
ATOM     27  C   LIG    1       -2.830   0.758  -1.417  0.00  0.00    +0.180 C 
BRANCH  27  28
ATOM     28  O   LIG    1       -3.103   1.953  -2.153  0.00  0.00    -0.560 OA
ATOM     29  H   LIG    1       -3.351   1.799  -3.074  0.00  0.00    +0.380 HD
ENDBRANCH  27  28
ENDBRANCH  17  27
ENDBRANCH   6  17
TORSDOF 7
