REMARK  Name = ZINCqH0000009BNG.0
REMARK                            x       y       z     vdW  Elec       q    Type
REMARK                         _______ _______ _______ _____ _____    ______ ____
ROOT
ATOM      1  N   LIG    1        3.274   6.210  -0.553  0.00  0.00    -0.680 N 
ATOM      2  H   LIG    1        4.120   5.775  -0.738  0.00  0.00    +0.410 HD
ATOM      3  C   LIG    1        3.182   7.554  -0.603  0.00  0.00    +0.510 C 
ATOM      4  O   LIG    1        2.151   8.104  -0.278  0.00  0.00    -0.500 OA
ENDROOT
BRANCH   1  11
ATOM      5  C   LIG    1       -2.195   1.103   1.424  0.00  0.00    +0.100 C 
ATOM      6  C   LIG    1       -0.991   1.760   0.746  0.00  0.00    +0.190 C 
ATOM      7  O   LIG    1       -1.181   3.180   0.708  0.00  0.00    -0.300 OA
ATOM      8  C   LIG    1       -0.092   3.932   0.394  0.00  0.00    +0.060 A 
ATOM      9  C   LIG    1       -0.232   5.113  -0.314  0.00  0.00    +0.070 A 
ATOM     10  C   LIG    1        0.884   5.867  -0.627  0.00  0.00    +0.040 A 
ATOM     11  C   LIG    1        2.146   5.443  -0.233  0.00  0.00    +0.160 A 
ATOM     12  C   LIG    1        2.291   4.258   0.477  0.00  0.00    -0.010 A 
ATOM     13  C   LIG    1        1.174   3.504   0.791  0.00  0.00    +0.110 A 
ATOM     14  N   LIG    1        1.299   2.305   1.507  0.00  0.00    -0.660 N 
ATOM     15  H   LIG    1        2.119   2.098   1.982  0.00  0.00    +0.420 HD
ATOM     16  C   LIG    1        0.260   1.442   1.526  0.00  0.00    +0.490 C 
ATOM     17  O   LIG    1        0.334   0.413   2.164  0.00  0.00    -0.500 OA
ENDBRANCH   1  11
BRANCH   3  18
ATOM     18  C   LIG    1        4.361   8.373  -1.062  0.00  0.00    +0.120 C 
BRANCH  18  19
ATOM     19  C   LIG    1        4.002   9.836  -1.025  0.00  0.00    -0.060 A 
ATOM     20  C   LIG    1        3.548  10.457  -2.148  0.00  0.00    +0.020 A 
ATOM     21  C   LIG    1        3.211  11.809  -2.134  0.00  0.00    +0.010 A 
ATOM     22  C   LIG    1        3.325  12.548  -0.997  0.00  0.00    +0.030 A 
ATOM     23  C   LIG    1        3.789  11.942   0.183  0.00  0.00    -0.050 A 
ATOM     24  C   LIG    1        3.920  12.672   1.376  0.00  0.00    +0.030 A 
ATOM     25  C   LIG    1        4.357  12.046   2.504  0.00  0.00    +0.000 A 
ATOM     26  C   LIG    1        4.694  10.694   2.490  0.00  0.00    +0.010 A 
ATOM     27  C   LIG    1        4.586   9.957   1.351  0.00  0.00    +0.010 A 
ATOM     28  C   LIG    1        4.127  10.565   0.170  0.00  0.00    -0.030 A 
ENDBRANCH  18  19
ENDBRANCH   3  18
TORSDOF 3
