REMARK  Name = ZINCpk000000nODH.0
REMARK                            x       y       z     vdW  Elec       q    Type
REMARK                         _______ _______ _______ _____ _____    ______ ____
ROOT
ATOM      1  C   LIG    1        4.300   2.638  -2.228  0.00  0.00    +0.470 A 
ATOM      2  C   LIG    1        3.816   2.188  -3.452  0.00  0.00    -0.230 A 
ATOM      3  C   LIG    1        4.565   2.451  -4.595  0.00  0.00    +0.460 A 
ATOM      4  N   LIG    1        5.710   3.120  -4.476  0.00  0.00    -0.610 NA
ATOM      5  C   LIG    1        6.135   3.530  -3.298  0.00  0.00    +0.580 A 
ATOM      6  N   LIG    1        5.453   3.305  -2.195  0.00  0.00    -0.610 NA
ENDROOT
BRANCH   1   7
ATOM      7  N   LIG    1        3.591   2.401  -1.060  0.00  0.00    -0.700 N 
ATOM      8  H   LIG    1        3.935   2.718  -0.211  0.00  0.00    +0.410 HD
BRANCH   7  14
ATOM      9  C   LIG    1        1.463   2.055   0.099  0.00  0.00    +0.150 C 
ATOM     10  O   LIG    1        0.251   1.300   0.079  0.00  0.00    -0.360 OA
ATOM     11  C   LIG    1        0.442  -0.114   0.158  0.00  0.00    +0.210 C 
ATOM     12  C   LIG    1        1.259  -0.584  -1.049  0.00  0.00    +0.000 C 
ATOM     13  C   LIG    1        2.595   0.165  -1.075  0.00  0.00    +0.000 C 
ATOM     14  C   LIG    1        2.321   1.672  -1.110  0.00  0.00    +0.220 C 
BRANCH   9  16
ATOM     15  C   LIG    1        0.254   3.829  -1.179  0.00  0.00    +0.030 C 
ATOM     16  C   LIG    1        1.136   3.549   0.039  0.00  0.00    -0.010 C 
ATOM     17  C   LIG    1        0.392   3.959   1.312  0.00  0.00    +0.020 C 
ENDBRANCH   9  16
ENDBRANCH   7  14
ENDBRANCH   1   7
BRANCH   3  18
ATOM     18  N   LIG    1        4.125   2.025  -5.838  0.00  0.00    -0.710 N 
ATOM     19  H   LIG    1        4.653   2.212  -6.630  0.00  0.00    +0.410 HD
BRANCH  18  20
ATOM     20  C   LIG    1        2.863   1.290  -5.956  0.00  0.00    +0.270 C 
BRANCH  20  21
ATOM     21  C   LIG    1        2.613   0.939  -7.424  0.00  0.00    +0.020 C 
BRANCH  21  22
ATOM     22  C   LIG    1        1.295   0.171  -7.547  0.00  0.00    +0.280 C 
BRANCH  22  23
ATOM     23  N   LIG    1        1.055  -0.165  -8.953  0.00  0.00    -1.120 NA
ATOM     24  H   LIG    1        1.563   0.277  -9.650  0.00  0.00    +0.420 HD
BRANCH  23  25
ATOM     25  S   LIG    1       -0.084  -1.300  -9.350  0.00  0.00    +2.620 S 
ATOM     26  O   LIG    1        0.240  -2.420  -8.539  0.00  0.00    -0.950 OA
ATOM     27  O   LIG    1       -0.020  -1.378 -10.767  0.00  0.00    -0.960 OA
ATOM     28  C   LIG    1       -1.657  -0.566  -8.823  0.00  0.00    -0.280 C 
ENDBRANCH  23  25
ENDBRANCH  22  23
ENDBRANCH  21  22
ENDBRANCH  20  21
ENDBRANCH  18  20
ENDBRANCH   3  18
TORSDOF 9
