REMARK  Name = ZINCrD000000CY0a.0
REMARK                            x       y       z     vdW  Elec       q    Type
REMARK                         _______ _______ _______ _____ _____    ______ ____
ROOT
ATOM      1  C   LIG    1       -4.035   5.553   0.139  0.00  0.00    +0.260 C 
ATOM      2  C   LIG    1       -4.786   4.233   0.435  0.00  0.00    +0.080 C 
ATOM      3  C   LIG    1       -3.770   3.177  -0.060  0.00  0.00    +0.280 C 
ATOM      4  N   LIG    1       -2.456   3.823   0.043  0.00  0.00    -0.560 N 
ATOM      5  C   LIG    1       -2.575   5.158   0.147  0.00  0.00    +0.500 C 
ATOM      6  O   LIG    1       -1.646   5.934   0.234  0.00  0.00    -0.480 OA
ENDROOT
BRANCH   4   7
ATOM      7  C   LIG    1       -1.236   3.138   0.029  0.00  0.00    +0.200 A 
ATOM      8  C   LIG    1       -1.218   1.749   0.033  0.00  0.00    -0.020 A 
ATOM      9  C   LIG    1       -0.012   1.076   0.023  0.00  0.00    +0.100 A 
ATOM     10  C   LIG    1        1.176   1.783   0.000  0.00  0.00    -0.210 A 
ATOM     11  C   LIG    1        1.161   3.165  -0.007  0.00  0.00    +0.100 A 
ATOM     12  C   LIG    1       -0.041   3.845   0.007  0.00  0.00    +0.010 A 
BRANCH  10  13
ATOM     13  C   LIG    1        2.490   1.045  -0.016  0.00  0.00    +0.510 C 
ATOM     14  F   LIG    1        2.347  -0.176   0.654  0.00  0.00    -0.180 F 
ATOM     15  F   LIG    1        3.466   1.816   0.624  0.00  0.00    -0.180 F 
ATOM     16  F   LIG    1        2.876   0.808  -1.339  0.00  0.00    -0.180 F 
ENDBRANCH  10  13
ENDBRANCH   4   7
BRANCH   1  17
ATOM     17  N   LIG    1       -4.418   6.077  -1.174  0.00  0.00    -0.720 N 
ATOM     18  H   LIG    1       -4.801   5.485  -1.840  0.00  0.00    +0.410 HD
BRANCH  17  25
ATOM     19  O   LIG    1       -4.355  12.261  -4.595  0.00  0.00    -0.490 OA
ATOM     20  C   LIG    1       -4.276  11.313  -3.837  0.00  0.00    +0.640 A 
ATOM     21  N   LIG    1       -4.661  10.054  -4.123  0.00  0.00    -0.650 N 
ATOM     22  H   LIG    1       -5.045   9.747  -4.959  0.00  0.00    +0.440 HD
ATOM     23  C   LIG    1       -4.406   9.271  -2.997  0.00  0.00    +0.120 A 
ATOM     24  C   LIG    1       -4.589   7.928  -2.713  0.00  0.00    -0.030 A 
ATOM     25  C   LIG    1       -4.231   7.432  -1.467  0.00  0.00    +0.230 A 
ATOM     26  C   LIG    1       -3.683   8.280  -0.512  0.00  0.00    -0.030 A 
ATOM     27  C   LIG    1       -3.496   9.619  -0.797  0.00  0.00    +0.110 A 
ATOM     28  C   LIG    1       -3.856  10.121  -2.037  0.00  0.00    -0.020 A 
ATOM     29  O   LIG    1       -3.792  11.360  -2.587  0.00  0.00    -0.230 OA
ENDBRANCH  17  25
ENDBRANCH   1  17
TORSDOF 4
