REMARK  Name = ZINCpk00000ea9Ba.0
REMARK                            x       y       z     vdW  Elec       q    Type
REMARK                         _______ _______ _______ _____ _____    ______ ____
ROOT
ATOM      1  C   LIG    1       -2.164   1.050   1.278  0.00  0.00    +0.290 C 
ATOM      2  C   LIG    1       -0.729   1.579   1.267  0.00  0.00    +0.040 C 
ATOM      3  C   LIG    1       -0.013   1.086   0.008  0.00  0.00    +0.040 C 
ATOM      4  C   LIG    1       -0.753   1.593  -1.232  0.00  0.00    +0.030 C 
ATOM      5  C   LIG    1       -2.188   1.063  -1.221  0.00  0.00    +0.030 C 
ATOM      6  C   LIG    1       -2.904   1.556   0.038  0.00  0.00    +0.180 C 
ENDROOT
BRANCH   1   9
ATOM      7  C   LIG    1       -3.515   2.731   4.171  0.00  0.00    -0.090 A 
ATOM      8  C   LIG    1       -2.676   2.712   3.092  0.00  0.00    +0.310 A 
ATOM      9  N   LIG    1       -2.850   1.522   2.483  0.00  0.00    -0.350 N 
ATOM     10  N   LIG    1       -3.809   0.821   3.228  0.00  0.00    -0.040 NA
ATOM     11  N   LIG    1       -4.179   1.562   4.214  0.00  0.00    -0.180 NA
BRANCH   7  12
ATOM     12  C   LIG    1       -3.663   3.841   5.128  0.00  0.00    +0.560 C 
ATOM     13  O   LIG    1       -3.007   4.855   4.989  0.00  0.00    -0.500 OA
BRANCH  12  15
ATOM     14  C   LIG    1       -4.619   4.866   7.061  0.00  0.00    +0.290 C 
ATOM     15  O   LIG    1       -4.525   3.733   6.158  0.00  0.00    -0.340 OA
ENDBRANCH  12  15
ENDBRANCH   7  12
ENDBRANCH   1   9
BRANCH   6  16
ATOM     16  O   LIG    1       -4.266   1.054   0.049  0.00  0.00    -0.340 OA
BRANCH  16  17
ATOM     17  C   LIG    1       -5.206   1.821  -0.539  0.00  0.00    +0.550 C 
ATOM     18  O   LIG    1       -4.895   2.881  -1.046  0.00  0.00    -0.520 OA
BRANCH  17  19
ATOM     19  C   LIG    1       -6.609   1.375  -0.566  0.00  0.00    -0.290 A 
ATOM     20  C   LIG    1       -7.675   2.054  -1.124  0.00  0.00    +0.170 A 
ATOM     21  N   LIG    1       -8.772   1.302  -0.938  0.00  0.00    -0.360 N 
ATOM     22  N   LIG    1       -8.403   0.142  -0.248  0.00  0.00    -0.300 NA
ATOM     23  C   LIG    1      -10.127   1.643  -1.376  0.00  0.00    +0.360 C 
ATOM     24  C   LIG    1       -7.617   3.390  -1.817  0.00  0.00    +0.180 C 
ATOM     25  C   LIG    1       -7.119   0.174  -0.022  0.00  0.00    +0.310 A 
ENDBRANCH  17  19
ENDBRANCH  16  17
ENDBRANCH   6  16
TORSDOF 6
