REMARK  Name = ZINCrH000004t6AY.0
REMARK                            x       y       z     vdW  Elec       q    Type
REMARK                         _______ _______ _______ _____ _____    ______ ____
ROOT
ATOM      1  C   LIG    1       -2.135  -6.039   2.170  0.00  0.00    +0.570 C 
ATOM      2  N   LIG    1       -1.647  -5.416   1.078  0.00  0.00    -0.610 N 
ATOM      3  C   LIG    1       -1.745  -6.043  -0.247  0.00  0.00    +0.270 C 
ATOM      4  C   LIG    1       -2.417  -5.059  -1.210  0.00  0.00    +0.030 C 
ATOM      5  C   LIG    1       -1.651  -3.734  -1.195  0.00  0.00    +0.040 C 
ATOM      6  C   LIG    1       -1.690  -3.135   0.213  0.00  0.00    +0.110 C 
ATOM      7  C   LIG    1       -1.010  -4.097   1.191  0.00  0.00    +0.300 C 
ATOM      8  O   LIG    1       -1.987  -5.542   3.270  0.00  0.00    -0.520 OA
ENDROOT
BRANCH   1  15
ATOM      9  C   LIG    1       -4.862 -12.119   1.170  0.00  0.00    +0.340 C 
ATOM     10  N   LIG    1       -5.046 -10.806   1.791  0.00  0.00    -0.500 N 
ATOM     11  C   LIG    1       -6.125 -10.402   2.516  0.00  0.00    +0.480 A 
ATOM     12  N   LIG    1       -5.960  -9.176   2.919  0.00  0.00    -0.490 NA
ATOM     13  C   LIG    1       -4.763  -8.710   2.480  0.00  0.00    +0.040 A 
ATOM     14  C   LIG    1       -4.095  -7.495   2.622  0.00  0.00    +0.140 A 
ATOM     15  C   LIG    1       -2.847  -7.325   2.030  0.00  0.00    -0.140 A 
ATOM     16  C   LIG    1       -2.262  -8.373   1.306  0.00  0.00    +0.060 A 
ATOM     17  C   LIG    1       -2.910  -9.566   1.170  0.00  0.00    +0.020 A 
ATOM     18  C   LIG    1       -4.160  -9.751   1.749  0.00  0.00    +0.060 A 
ENDBRANCH   1  15
BRANCH   6  19
ATOM     19  C   LIG    1       -0.963  -1.815   0.218  0.00  0.00    +0.260 A 
ATOM     20  N   LIG    1       -1.498  -0.675   0.537  0.00  0.00    -0.470 NA
ATOM     21  C   LIG    1       -0.552   0.298   0.431  0.00  0.00    +0.020 A 
ATOM     22  C   LIG    1       -0.557   1.677   0.643  0.00  0.00    +0.080 A 
ATOM     23  C   LIG    1        0.596   2.403   0.443  0.00  0.00    +0.020 A 
ATOM     24  C   LIG    1        1.761   1.772   0.033  0.00  0.00    +0.050 A 
ATOM     25  C   LIG    1        1.780   0.409  -0.181  0.00  0.00    +0.050 A 
ATOM     26  C   LIG    1        0.628  -0.337   0.015  0.00  0.00    +0.010 A 
ATOM     27  O   LIG    1        0.329  -1.649  -0.105  0.00  0.00    -0.210 OA
ENDBRANCH   6  19
TORSDOF 2
