REMARK  Name = ZINCpe00000MDDGB.0
REMARK                            x       y       z     vdW  Elec       q    Type
REMARK                         _______ _______ _______ _____ _____    ______ ____
ROOT
ATOM      1  C   LIG    1        3.215   3.388   0.910  0.00  0.00    +0.220 C 
ENDROOT
BRANCH   1   7
ATOM      2  C   LIG    1        0.002  -0.004   0.002  0.00  0.00    -0.020 C 
ATOM      3  C   LIG    1        0.834  -0.492  -1.186  0.00  0.00    +0.060 C 
ATOM      4  C   LIG    1        2.272   0.009  -1.045  0.00  0.00    +0.010 C 
ATOM      5  C   LIG    1        2.277   1.541  -1.048  0.00  0.00    +0.270 C 
ATOM      6  N   LIG    1        1.366   2.019  -0.000  0.00  0.00    -0.610 N 
ATOM      7  C   LIG    1        1.792   2.893   0.934  0.00  0.00    +0.520 C 
ATOM      8  O   LIG    1        1.029   3.280   1.794  0.00  0.00    -0.520 OA
ATOM      9  C   LIG    1       -0.019   1.528   0.010  0.00  0.00    +0.290 C 
BRANCH   2  13
ATOM     10  N   LIG    1       -2.324  -0.218   0.817  0.00  0.00    -0.850 N 
ATOM     11  H   LIG    1       -3.230  -0.553   0.738  0.00  0.00    +0.400 HD
ATOM     12  H   LIG    1       -2.077   0.339   1.572  0.00  0.00    +0.400 HD
ATOM     13  C   LIG    1       -1.406  -0.525  -0.121  0.00  0.00    +0.530 C 
ATOM     14  O   LIG    1       -1.715  -1.222  -1.065  0.00  0.00    -0.540 OA
ENDBRANCH   2  13
ENDBRANCH   1   7
BRANCH   1  15
ATOM     15  N   LIG    1        3.427   4.322   2.023  0.00  0.00    -0.490 NA
ATOM     16  C   LIG    1        2.682   5.581   1.808  0.00  0.00    +0.190 C 
ATOM     17  C   LIG    1        3.573   6.680   2.439  0.00  0.00    +0.030 C 
ATOM     18  C   LIG    1        4.995   6.177   2.076  0.00  0.00    +0.030 C 
ATOM     19  C   LIG    1        4.858   4.644   2.178  0.00  0.00    +0.280 C 
BRANCH  19  20
ATOM     20  C   LIG    1        5.653   3.981   1.083  0.00  0.00    +0.160 A 
ATOM     21  N   LIG    1        5.345   3.947  -0.179  0.00  0.00    -0.380 NA
ATOM     22  O   LIG    1        6.190   3.340  -0.802  0.00  0.00    +0.070 OA
ATOM     23  C   LIG    1        7.143   2.908   0.030  0.00  0.00    +0.220 A 
ATOM     24  N   LIG    1        6.810   3.311   1.233  0.00  0.00    -0.470 NA
BRANCH  23  25
ATOM     25  C   LIG    1        8.366   2.110  -0.342  0.00  0.00    +0.060 C 
ATOM     26  C   LIG    1        8.661   1.924  -1.832  0.00  0.00    +0.070 C 
ATOM     27  C   LIG    1        8.146   0.746  -1.000  0.00  0.00    +0.070 C 
ENDBRANCH  23  25
ENDBRANCH  19  20
ENDBRANCH   1  15
TORSDOF 5
