REMARK  Name = ZINCrD000000CKYH.1
REMARK                            x       y       z     vdW  Elec       q    Type
REMARK                         _______ _______ _______ _____ _____    ______ ____
ROOT
ATOM      1  C   LIG    1       -4.245   0.055   1.192  0.00  0.00    +0.170 C 
ENDROOT
BRANCH   1   2
ATOM      2  C   LIG    1       -4.249  -0.755   2.462  0.00  0.00    -0.090 A 
ATOM      3  C   LIG    1       -3.634  -0.261   3.598  0.00  0.00    +0.030 A 
ATOM      4  C   LIG    1       -3.640  -1.002   4.765  0.00  0.00    +0.000 A 
ATOM      5  C   LIG    1       -4.254  -2.240   4.794  0.00  0.00    +0.000 A 
ATOM      6  C   LIG    1       -4.864  -2.736   3.657  0.00  0.00    +0.000 A 
ATOM      7  C   LIG    1       -4.861  -1.994   2.491  0.00  0.00    +0.010 A 
ENDBRANCH   1   2
BRANCH   1   8
ATOM      8  N   LIG    1       -2.937   0.702   1.027  0.00  0.00    -0.670 NA
ATOM      9  H   LIG    1       -2.202   0.141   1.430  0.00  0.00    +0.350 HD
BRANCH   8  10
ATOM     10  C   LIG    1       -2.665   0.987  -0.389  0.00  0.00    +0.240 C 
BRANCH  10  11
ATOM     11  C   LIG    1       -1.379   1.763  -0.507  0.00  0.00    -0.090 A 
ATOM     12  C   LIG    1       -0.179   1.091  -0.650  0.00  0.00    +0.050 A 
ATOM     13  C   LIG    1        1.002   1.800  -0.764  0.00  0.00    +0.000 A 
ATOM     14  C   LIG    1        0.983   3.187  -0.729  0.00  0.00    +0.140 A 
ATOM     15  C   LIG    1       -0.223   3.859  -0.579  0.00  0.00    +0.000 A 
ATOM     16  C   LIG    1       -1.400   3.145  -0.466  0.00  0.00    +0.060 A 
BRANCH  14  17
ATOM     17  N   LIG    1        2.179   3.909  -0.845  0.00  0.00    -0.410 N 
ATOM     18  C   LIG    1        2.312   5.274  -0.833  0.00  0.00    +0.130 A 
ATOM     19  C   LIG    1        3.626   5.539  -0.967  0.00  0.00    +0.160 A 
ATOM     20  N   LIG    1        4.280   4.372  -1.068  0.00  0.00    -0.480 NA
ATOM     21  C   LIG    1        3.425   3.389  -0.997  0.00  0.00    +0.400 A 
ENDBRANCH  14  17
ENDBRANCH  10  11
ENDBRANCH   8  10
ENDBRANCH   1   8
BRANCH   1  22
ATOM     22  C   LIG    1       -5.338   1.123   1.265  0.00  0.00    +0.310 C 
BRANCH  22  28
ATOM     23  O   LIG    1       -6.965   0.215  -0.923  0.00  0.00    -0.530 OA
ATOM     24  C   LIG    1       -7.339   0.081   0.223  0.00  0.00    +0.520 C 
ATOM     25  C   LIG    1       -8.645  -0.559   0.638  0.00  0.00    +0.040 C 
ATOM     26  C   LIG    1       -8.461  -0.857   2.144  0.00  0.00    +0.040 C 
ATOM     27  C   LIG    1       -7.389   0.182   2.542  0.00  0.00    +0.250 C 
ATOM     28  N   LIG    1       -6.652   0.476   1.308  0.00  0.00    -0.610 N 
ENDBRANCH  22  28
ENDBRANCH   1  22
TORSDOF 7
