REMARK  Name = ZINCtV00000L6l9r.0
REMARK                            x       y       z     vdW  Elec       q    Type
REMARK                         _______ _______ _______ _____ _____    ______ ____
ROOT
ATOM      1  N   LIG    1        1.698  -0.645   1.624  0.00  0.00    -0.980 NA
ENDROOT
BRANCH   1   2
ATOM      2  S   LIG    1        1.692   0.357   2.943  0.00  0.00    +2.670 S 
ATOM      3  O   LIG    1        0.945  -0.311   3.951  0.00  0.00    -0.960 OA
ATOM      4  O   LIG    1        3.034   0.787   3.126  0.00  0.00    -0.940 OA
BRANCH   2  10
ATOM      5  C   LIG    1       -2.384   3.564   3.596  0.00  0.00    +0.090 C 
ATOM      6  C   LIG    1       -1.121   3.226   2.848  0.00  0.00    -0.110 A 
ATOM      7  C   LIG    1       -0.689   4.039   1.817  0.00  0.00    +0.070 A 
ATOM      8  C   LIG    1        0.473   3.732   1.134  0.00  0.00    +0.000 A 
ATOM      9  C   LIG    1        1.197   2.604   1.474  0.00  0.00    +0.030 A 
ATOM     10  C   LIG    1        0.765   1.790   2.505  0.00  0.00    -0.670 A 
ATOM     11  C   LIG    1        2.460   2.266   0.725  0.00  0.00    +0.090 C 
ATOM     12  C   LIG    1       -0.393   2.101   3.192  0.00  0.00    +0.120 A 
ENDBRANCH   2  10
ENDBRANCH   1   2
BRANCH   1  13
ATOM     13  C   LIG    1        2.967  -1.024   0.999  0.00  0.00    +0.280 C 
ATOM     14  C   LIG    1        4.114  -0.269   1.673  0.00  0.00    +0.070 C 
BRANCH  13  15
ATOM     15  C   LIG    1        3.181  -2.508   1.156  0.00  0.00    -0.090 A 
ATOM     16  C   LIG    1        3.191  -3.075   2.417  0.00  0.00    +0.010 A 
ATOM     17  C   LIG    1        3.382  -4.436   2.562  0.00  0.00    +0.000 A 
ATOM     18  C   LIG    1        3.573  -5.229   1.446  0.00  0.00    +0.000 A 
ATOM     19  C   LIG    1        3.568  -4.662   0.185  0.00  0.00    +0.000 A 
ATOM     20  C   LIG    1        3.372  -3.301   0.041  0.00  0.00    +0.010 A 
ENDBRANCH  13  15
ENDBRANCH   1  13
BRANCH   1  21
ATOM     21  C   LIG    1        0.434  -1.151   1.083  0.00  0.00    +0.370 C 
BRANCH  21  22
ATOM     22  C   LIG    1       -0.090  -0.190   0.047  0.00  0.00    -0.100 A 
ATOM     23  C   LIG    1       -1.133   0.661   0.360  0.00  0.00    +0.060 A 
ATOM     24  C   LIG    1       -1.610   1.547  -0.588  0.00  0.00    +0.040 A 
ATOM     25  C   LIG    1       -1.052   1.574  -1.854  0.00  0.00    -0.020 A 
ATOM     26  C   LIG    1       -0.012   0.718  -2.169  0.00  0.00    +0.050 A 
ATOM     27 CL   LIG    1       -1.656   2.682  -3.046  0.00  0.00    -0.050 Cl
ATOM     28  C   LIG    1        0.469  -0.165  -1.218  0.00  0.00    -0.010 A 
ATOM     29 CL   LIG    1        1.774  -1.240  -1.613  0.00  0.00    -0.040 Cl
ENDBRANCH  21  22
ENDBRANCH   1  21
TORSDOF 6
