REMARK  Name = ZINCpk00000ebKwp.0
REMARK                            x       y       z     vdW  Elec       q    Type
REMARK                         _______ _______ _______ _____ _____    ______ ____
ROOT
ATOM      1  C   LIG    1        0.768  -4.646   1.313  0.00  0.00    -0.140 A 
ATOM      2  C   LIG    1        0.003  -3.898   2.212  0.00  0.00    +0.100 A 
ATOM      3  C   LIG    1        0.006  -2.523   2.140  0.00  0.00    +0.030 A 
ATOM      4  C   LIG    1        0.769  -1.877   1.173  0.00  0.00    +0.110 A 
ATOM      5  C   LIG    1        1.530  -2.620   0.271  0.00  0.00    +0.050 A 
ATOM      6  F   LIG    1        2.266  -1.989  -0.670  0.00  0.00    -0.130 F 
ATOM      7  C   LIG    1        1.535  -3.995   0.342  0.00  0.00    +0.050 A 
ENDROOT
BRANCH   1  17
ATOM      8  O   LIG    1        5.121  -8.746   2.583  0.00  0.00    -0.530 OA
ATOM      9  C   LIG    1        4.155  -8.124   2.195  0.00  0.00    +0.540 C 
ATOM     10  C   LIG    1        4.286  -6.652   1.951  0.00  0.00    +0.080 C 
ATOM     11  C   LIG    1        3.172  -6.080   1.096  0.00  0.00    +0.280 C 
ATOM     12  N   LIG    1        1.915  -6.804   1.224  0.00  0.00    -0.610 N 
ATOM     13  C   LIG    1        1.885  -8.260   1.183  0.00  0.00    +0.460 C 
ATOM     14  C   LIG    1        0.621  -8.819   1.871  0.00  0.00    +0.080 C 
ATOM     15  C   LIG    1        1.099 -10.257   2.226  0.00  0.00    +0.030 C 
ATOM     16  C   LIG    1        2.576 -10.044   2.602  0.00  0.00    +0.260 C 
ATOM     17  C   LIG    1        0.766  -6.120   1.389  0.00  0.00    +0.570 C 
ATOM     18  O   LIG    1       -0.273  -6.716   1.599  0.00  0.00    -0.510 OA
ATOM     19  N   LIG    1        2.998  -8.773   1.998  0.00  0.00    -0.630 N 
ENDBRANCH   1  17
BRANCH   4  20
ATOM     20  N   LIG    1        0.770  -0.487   1.103  0.00  0.00    -0.490 N 
ATOM     21  C   LIG    1       -0.584   0.029   0.855  0.00  0.00    +0.180 C 
ATOM     22  C   LIG    1       -0.548   1.559   0.845  0.00  0.00    +0.230 C 
ATOM     23  O   LIG    1        0.389   2.002  -0.140  0.00  0.00    -0.380 OA
ATOM     24  C   LIG    1        1.718   1.519   0.071  0.00  0.00    +0.230 C 
ATOM     25  C   LIG    1        1.705  -0.012   0.073  0.00  0.00    +0.170 C 
ENDBRANCH   4  20
TORSDOF 2
