REMARK  Name = ZINCrg000000sA9h.0
REMARK                            x       y       z     vdW  Elec       q    Type
REMARK                         _______ _______ _______ _____ _____    ______ ____
ROOT
ATOM      1  C   LIG    1       -0.013   1.086   0.008  0.00  0.00    +0.360 C 
ATOM      2  N   LIG    1       -0.698   1.558   1.213  0.00  0.00    -0.560 N 
ATOM      3  C   LIG    1       -2.033   1.767   1.180  0.00  0.00    +0.570 A 
ATOM      4  C   LIG    1       -2.694   2.237   2.410  0.00  0.00    -0.250 A 
ATOM      5  C   LIG    1       -4.063   2.473   2.463  0.00  0.00    +0.260 A 
ATOM      6  C   LIG    1       -4.601   2.924   3.674  0.00  0.00    -0.230 A 
ATOM      7  C   LIG    1       -3.751   3.117   4.768  0.00  0.00    +0.390 A 
ATOM      8  N   LIG    1       -2.459   2.884   4.679  0.00  0.00    -0.510 NA
ATOM      9  C   LIG    1       -1.903   2.456   3.556  0.00  0.00    +0.430 A 
ATOM     10  N   LIG    1       -0.546   2.215   3.475  0.00  0.00    -0.530 N 
ATOM     11  C   LIG    1        0.299   2.435   4.651  0.00  0.00    +0.340 C 
ATOM     12  O   LIG    1       -2.672   1.569   0.165  0.00  0.00    -0.480 OA
ATOM     13  C   LIG    1        0.010   1.782   2.331  0.00  0.00    +0.710 A 
ATOM     14  O   LIG    1        1.209   1.583   2.308  0.00  0.00    -0.520 OA
ENDROOT
BRANCH   6  15
ATOM     15  C   LIG    1       -6.048   3.193   3.796  0.00  0.00    +0.570 C 
ATOM     16  N   LIG    1       -6.557   3.627   4.965  0.00  0.00    -0.720 N 
ATOM     17  H   LIG    1       -5.973   3.764   5.728  0.00  0.00    +0.400 HD
ATOM     18  O   LIG    1       -6.780   3.022   2.840  0.00  0.00    -0.520 OA
BRANCH  16  19
ATOM     19  C   LIG    1       -7.992   3.894   5.086  0.00  0.00    +0.310 C 
BRANCH  19  20
ATOM     20  C   LIG    1       -8.305   4.372   6.505  0.00  0.00    +0.210 C 
BRANCH  20  21
ATOM     21  O   LIG    1       -7.666   5.630   6.736  0.00  0.00    -0.310 OA
BRANCH  21  22
ATOM     22  C   LIG    1       -7.845   6.197   7.958  0.00  0.00    +0.130 A 
ATOM     23  C   LIG    1       -8.623   5.560   8.913  0.00  0.00    -0.060 A 
ATOM     24  C   LIG    1       -8.799   6.136  10.156  0.00  0.00    +0.070 A 
ATOM     25  C   LIG    1       -8.208   7.353  10.445  0.00  0.00    -0.070 A 
ATOM     26  C   LIG    1       -7.435   7.993   9.492  0.00  0.00    +0.070 A 
ATOM     27 CL   LIG    1       -8.436   8.079  12.006  0.00  0.00    -0.070 Cl
ATOM     28  C   LIG    1       -7.253   7.418   8.250  0.00  0.00    +0.000 A 
ENDBRANCH  21  22
ENDBRANCH  20  21
ENDBRANCH  19  20
ENDBRANCH  16  19
ENDBRANCH   6  15
TORSDOF 5
