REMARK  Name = ZINCrD00000hQ6tz.0
REMARK                            x       y       z     vdW  Elec       q    Type
REMARK                         _______ _______ _______ _____ _____    ______ ____
ROOT
ATOM      1  C   LIG    1       -1.717   3.056   5.135  0.00  0.00    +0.140 A 
ATOM      2  C   LIG    1       -0.738   3.896   5.644  0.00  0.00    -0.050 A 
ATOM      3  C   LIG    1       -1.029   4.735   6.702  0.00  0.00    +0.070 A 
ATOM      4  C   LIG    1       -2.298   4.729   7.262  0.00  0.00    +0.040 A 
ATOM      5  C   LIG    1       -3.276   3.885   6.756  0.00  0.00    +0.050 A 
ATOM      6  C   LIG    1       -2.986   3.050   5.695  0.00  0.00    +0.000 A 
ENDROOT
BRANCH   1   7
ATOM      7  O   LIG    1       -1.431   2.235   4.090  0.00  0.00    -0.300 OA
BRANCH   7   8
ATOM      8  C   LIG    1       -0.104   2.293   3.562  0.00  0.00    +0.250 C 
BRANCH   8  11
ATOM      9  N   LIG    1       -0.776   1.559   1.197  0.00  0.00    -0.430 NA
ATOM     10  C   LIG    1       -1.191   0.445   2.060  0.00  0.00    +0.180 C 
ATOM     11  C   LIG    1        0.027   1.306   2.401  0.00  0.00    +0.070 C 
BRANCH   9  12
ATOM     12  C   LIG    1       -0.092   1.066  -0.006  0.00  0.00    +0.240 C 
BRANCH  12  16
ATOM     13  C   LIG    1       -3.176   1.597  -3.921  0.00  0.00    +0.360 C 
ATOM     14  N   LIG    1       -2.120   1.841  -2.936  0.00  0.00    -0.380 N 
ATOM     15  C   LIG    1       -1.794   1.034  -1.904  0.00  0.00    +0.240 A 
ATOM     16  C   LIG    1       -0.774   1.616  -1.232  0.00  0.00    -0.230 A 
ATOM     17  C   LIG    1       -0.460   2.816  -1.880  0.00  0.00    +0.240 A 
ATOM     18  N   LIG    1       -1.266   2.951  -2.901  0.00  0.00    -0.300 NA
ENDBRANCH  12  16
ENDBRANCH   9  12
ENDBRANCH   8  11
ENDBRANCH   7   8
ENDBRANCH   1   7
BRANCH   4  19
ATOM     19  O   LIG    1       -2.584   5.551   8.307  0.00  0.00    -0.250 OA
BRANCH  19  20
ATOM     20  C   LIG    1       -2.833   4.984   9.515  0.00  0.00    +0.150 A 
ATOM     21  C   LIG    1       -2.672   3.614   9.683  0.00  0.00    -0.060 A 
ATOM     22  C   LIG    1       -2.919   3.035  10.908  0.00  0.00    +0.110 A 
ATOM     23  C   LIG    1       -3.342   3.826  11.980  0.00  0.00    -0.070 A 
ATOM     24  C   LIG    1       -3.508   5.203  11.805  0.00  0.00    +0.110 A 
ATOM     25  C   LIG    1       -3.254   5.774  10.578  0.00  0.00    -0.010 A 
BRANCH  23  26
ATOM     26  C   LIG    1       -3.605   3.228  13.254  0.00  0.00    +0.250 C 
ATOM     27  N   LIG    1       -3.813   2.753  14.265  0.00  0.00    -0.420 NA
ENDBRANCH  23  26
ENDBRANCH  19  20
ENDBRANCH   4  19
TORSDOF 8
