REMARK  Name = ZINCrD000000fQI5.0
REMARK                            x       y       z     vdW  Elec       q    Type
REMARK                         _______ _______ _______ _____ _____    ______ ____
ROOT
ATOM      1  N   LIG    1       -3.146   0.449   1.798  0.00  0.00    -1.110 NA
ATOM      2  H   LIG    1       -3.141  -0.376   2.309  0.00  0.00    +0.420 HD
ENDROOT
BRANCH   1   3
ATOM      3  S   LIG    1       -2.898   0.412   0.161  0.00  0.00    +2.690 S 
ATOM      4  O   LIG    1       -2.674  -0.950  -0.179  0.00  0.00    -0.950 OA
ATOM      5  O   LIG    1       -3.930   1.198  -0.419  0.00  0.00    -0.940 OA
BRANCH   3   9
ATOM      6  C   LIG    1        0.989   2.591  -0.664  0.00  0.00    -0.110 A 
ATOM      7  C   LIG    1        0.993   1.214  -0.420  0.00  0.00    +0.060 A 
ATOM      8  C   LIG    1       -0.193   0.559  -0.166  0.00  0.00    +0.120 A 
ATOM      9  C   LIG    1       -1.387   1.259  -0.157  0.00  0.00    -0.650 A 
ATOM     10  C   LIG    1       -1.399   2.623  -0.392  0.00  0.00    +0.110 A 
ATOM     11  C   LIG    1       -0.221   3.293  -0.647  0.00  0.00    +0.060 A 
BRANCH   6  13
ATOM     12  C   LIG    1        2.241   4.782  -1.197  0.00  0.00    +0.080 C 
ATOM     13  C   LIG    1        2.250   3.298  -0.935  0.00  0.00    +0.390 C 
ATOM     14  O   LIG    1        3.297   2.687  -0.949  0.00  0.00    -0.440 OA
ENDBRANCH   6  13
ENDBRANCH   3   9
ENDBRANCH   1   3
BRANCH   1  15
ATOM     15  C   LIG    1       -3.373   1.728   2.476  0.00  0.00    +0.290 C 
BRANCH  15  16
ATOM     16  C   LIG    1       -2.719   1.701   3.833  0.00  0.00    -0.080 A 
ATOM     17  C   LIG    1       -2.777   0.555   4.604  0.00  0.00    +0.030 A 
ATOM     18  C   LIG    1       -2.179   0.527   5.850  0.00  0.00    +0.030 A 
ATOM     19  C   LIG    1       -1.519   1.648   6.329  0.00  0.00    +0.050 A 
ATOM     20  O   LIG    1       -0.940   1.607   7.561  0.00  0.00    -0.310 OA
ATOM     21  C   LIG    1        0.029   2.620   7.851  0.00  0.00    +0.220 C 
ATOM     22  C   LIG    1       -0.543   3.974   7.407  0.00  0.00    +0.220 C 
ATOM     23  O   LIG    1       -0.809   3.908   6.002  0.00  0.00    -0.310 OA
ATOM     24  C   LIG    1       -1.458   2.799   5.553  0.00  0.00    +0.050 A 
ATOM     25  C   LIG    1       -2.057   2.820   4.303  0.00  0.00    +0.040 A 
ENDBRANCH  15  16
BRANCH  15  26
ATOM     26  C   LIG    1       -4.877   1.960   2.639  0.00  0.00    -0.020 C 
ATOM     27  C   LIG    1       -5.113   3.286   3.363  0.00  0.00    +0.030 C 
ATOM     28  C   LIG    1       -5.483   0.817   3.456  0.00  0.00    +0.020 C 
ENDBRANCH  15  26
ENDBRANCH   1  15
TORSDOF 6
