REMARK  Name = ZINCvU0000000IHA.0
REMARK                            x       y       z     vdW  Elec       q    Type
REMARK                         _______ _______ _______ _____ _____    ______ ____
ROOT
ATOM      1  C   LIG    1        1.171   7.294   0.251  0.00  0.00    -0.270 A 
ATOM      2  C   LIG    1        0.096   8.159   0.284  0.00  0.00    +0.350 A 
ATOM      3  N   LIG    1        0.574   9.406   0.406  0.00  0.00    -0.360 N 
ATOM      4  N   LIG    1        1.970   9.372   0.454  0.00  0.00    -0.270 NA
ATOM      5  C   LIG    1        2.373   8.125   0.371  0.00  0.00    +0.180 A 
ENDROOT
BRANCH   5   6
ATOM      6  C   LIG    1        3.777   7.648   0.390  0.00  0.00    -0.030 A 
ATOM      7  C   LIG    1        4.095   6.434   0.996  0.00  0.00    +0.150 A 
ATOM      8  C   LIG    1        5.404   5.995   1.011  0.00  0.00    +0.030 A 
ATOM      9  C   LIG    1        6.398   6.757   0.425  0.00  0.00    +0.120 A 
ATOM     10  C   LIG    1        6.088   7.963  -0.179  0.00  0.00    -0.050 A 
ATOM     11  C   LIG    1        4.783   8.409  -0.204  0.00  0.00    +0.140 A 
BRANCH  10  12
ATOM     12  N   LIG    1        7.158   8.772  -0.804  0.00  0.00    +0.030 N 
ATOM     13  O   LIG    1        6.886   9.834  -1.336  0.00  0.00    -0.160 OA
ATOM     14  O   LIG    1        8.310   8.377  -0.787  0.00  0.00    -0.160 OA
ENDBRANCH  10  12
ENDBRANCH   5   6
BRANCH   1  15
ATOM     15  C   LIG    1        1.121   5.829   0.127  0.00  0.00    +0.540 C 
ATOM     16  O   LIG    1        2.151   5.184   0.111  0.00  0.00    -0.490 OA
BRANCH  15  17
ATOM     17  O   LIG    1       -0.069   5.201   0.030  0.00  0.00    -0.290 OA
BRANCH  17  24
ATOM     18  C   LIG    1        0.318   3.916  -2.456  0.00  0.00    +0.090 C 
ATOM     19  C   LIG    1        0.136   3.156  -1.168  0.00  0.00    -0.080 A 
ATOM     20  C   LIG    1        0.160   1.775  -1.172  0.00  0.00    +0.020 A 
ATOM     21  C   LIG    1       -0.012   1.076   0.009  0.00  0.00    +0.030 A 
ATOM     22  C   LIG    1       -0.197   1.757   1.198  0.00  0.00    -0.070 A 
ATOM     23  C   LIG    1       -0.217   3.139   1.207  0.00  0.00    +0.020 A 
ATOM     24  C   LIG    1       -0.050   3.842   0.023  0.00  0.00    +0.080 A 
BRANCH  22  25
ATOM     25  C   LIG    1       -0.378   0.993   2.484  0.00  0.00    +0.020 C 
ATOM     26  C   LIG    1        0.859   0.129   2.741  0.00  0.00    +0.030 C 
ATOM     27  C   LIG    1       -1.612   0.096   2.375  0.00  0.00    +0.030 C 
ENDBRANCH  22  25
ENDBRANCH  17  24
ENDBRANCH  15  17
ENDBRANCH   1  15
BRANCH   3  28
ATOM     28  C   LIG    1       -0.243  10.620   0.478  0.00  0.00    +0.360 C 
BRANCH  28  29
ATOM     29  C   LIG    1        0.116  11.402   1.743  0.00  0.00    +0.210 C 
BRANCH  29  30
ATOM     30  C   LIG    1       -0.706  12.621   1.816  0.00  0.00    +0.200 C 
ATOM     31  N   LIG    1       -1.339  13.562   1.872  0.00  0.00    -0.410 NA
ENDBRANCH  29  30
ENDBRANCH  28  29
ENDBRANCH   3  28
TORSDOF 9
