REMARK  Name = ZINCrg00000fS37O.1
REMARK                            x       y       z     vdW  Elec       q    Type
REMARK                         _______ _______ _______ _____ _____    ______ ____
ROOT
ATOM      1  N   LIG    1        2.893   4.008   1.375  0.00  0.00    -0.660 NA
ATOM      2  H   LIG    1        3.011   3.108   1.815  0.00  0.00    +0.350 HD
ENDROOT
BRANCH   1   6
ATOM      3  N   LIG    1        5.906   3.674   2.490  0.00  0.00    -0.570 N 
ATOM      4  C   LIG    1        5.191   4.417   3.533  0.00  0.00    +0.250 C 
ATOM      5  C   LIG    1        4.329   5.456   2.782  0.00  0.00    +0.080 C 
ATOM      6  C   LIG    1        4.145   4.777   1.405  0.00  0.00    +0.180 C 
ATOM      7  C   LIG    1        5.337   3.853   1.285  0.00  0.00    +0.490 C 
ATOM      8  O   LIG    1        5.722   3.347   0.252  0.00  0.00    -0.510 OA
BRANCH   3  14
ATOM      9  C   LIG    1        8.311   3.436   2.635  0.00  0.00    +0.140 A 
ATOM     10  C   LIG    1        9.425   2.647   2.867  0.00  0.00    -0.070 A 
ATOM     11  C   LIG    1        9.272   1.306   3.172  0.00  0.00    +0.060 A 
ATOM     12  C   LIG    1        8.008   0.752   3.251  0.00  0.00    -0.020 A 
ATOM     13  C   LIG    1        6.891   1.534   3.026  0.00  0.00    +0.060 A 
ATOM     14  C   LIG    1        7.037   2.879   2.719  0.00  0.00    +0.110 A 
BRANCH   9  16
ATOM     15  C   LIG    1        9.796   5.255   2.260  0.00  0.00    +0.250 C 
ATOM     16  O   LIG    1        8.460   4.753   2.329  0.00  0.00    -0.310 OA
ENDBRANCH   9  16
ENDBRANCH   3  14
ENDBRANCH   1   6
BRANCH   1  17
ATOM     17  C   LIG    1        2.400   3.861  -0.001  0.00  0.00    +0.280 C 
BRANCH  17  18
ATOM     18  C   LIG    1        1.118   3.068   0.007  0.00  0.00    -0.270 A 
ATOM     19  C   LIG    1       -0.076   3.699   0.022  0.00  0.00    +0.380 A 
ATOM     20  N   LIG    1       -1.230   2.965   0.029  0.00  0.00    -0.530 N 
ATOM     21  C   LIG    1       -1.187   1.620   0.017  0.00  0.00    +0.700 A 
ATOM     22  N   LIG    1       -0.011   0.966   0.007  0.00  0.00    -0.660 N 
ATOM     23  H   LIG    1        0.002  -0.004   0.002  0.00  0.00    +0.430 HD
ATOM     24  O   LIG    1       -2.225   0.987   0.018  0.00  0.00    -0.530 OA
ATOM     25  C   LIG    1        1.149   1.653   0.000  0.00  0.00    +0.550 A 
ATOM     26  O   LIG    1        2.213   1.062  -0.013  0.00  0.00    -0.510 OA
BRANCH  20  27
ATOM     27  C   LIG    1       -2.526   3.649   0.044  0.00  0.00    +0.250 C 
ATOM     28  C   LIG    1       -3.302   3.244   1.298  0.00  0.00    +0.050 C 
ATOM     29  C   LIG    1       -3.325   3.256  -1.200  0.00  0.00    +0.040 C 
ENDBRANCH  20  27
ENDBRANCH  17  18
ENDBRANCH   1  17
TORSDOF 6
