REMARK  Name = ZINCpk00000KfLOM.0
REMARK                            x       y       z     vdW  Elec       q    Type
REMARK                         _______ _______ _______ _____ _____    ______ ____
ROOT
ATOM      1  C   LIG    1        1.883   2.123   1.876  0.00  0.00    +0.260 C 
ATOM      2  C   LIG    1        1.254   1.723   0.535  0.00  0.00    +0.320 C 
ATOM      3  N   LIG    1       -0.134   1.304   0.774  0.00  0.00    -0.610 N 
ATOM      4  C   LIG    1       -0.395   0.238   1.751  0.00  0.00    +0.280 C 
ATOM      5  C   LIG    1        0.234   0.638   3.092  0.00  0.00    +0.290 C 
ATOM      6  C   LIG    1       -1.150   1.884   0.104  0.00  0.00    +0.610 C 
ATOM      7  O   LIG    1       -0.939   2.851  -0.604  0.00  0.00    -0.510 OA
ATOM      8  N   LIG    1        1.622   1.057   2.853  0.00  0.00    -0.600 N 
ATOM      9  C   LIG    1        2.639   0.474   3.519  0.00  0.00    +0.600 C 
ATOM     10  O   LIG    1        3.772   0.900   3.395  0.00  0.00    -0.490 OA
ENDROOT
BRANCH   6  11
ATOM     11  C   LIG    1       -2.510   1.350   0.229  0.00  0.00    -0.090 A 
ATOM     12  C   LIG    1       -3.652   1.947  -0.224  0.00  0.00    +0.050 A 
ATOM     13  C   LIG    1       -4.713   1.090   0.106  0.00  0.00    -0.060 A 
ATOM     14  C   LIG    1       -4.181   0.024   0.743  0.00  0.00    +0.200 A 
ATOM     15  O   LIG    1       -2.853   0.184   0.816  0.00  0.00    -0.160 OA
ENDBRANCH   6  11
BRANCH   9  16
ATOM     16  C   LIG    1        2.379  -0.674   4.394  0.00  0.00    -0.080 A 
ATOM     17  C   LIG    1        3.285  -1.274   5.221  0.00  0.00    +0.050 A 
ATOM     18  C   LIG    1        2.610  -2.321   5.868  0.00  0.00    -0.060 A 
ATOM     19  C   LIG    1        1.340  -2.321   5.406  0.00  0.00    +0.200 A 
ATOM     20  O   LIG    1        1.205  -1.327   4.518  0.00  0.00    -0.160 OA
ENDBRANCH   9  16
BRANCH   1  21
ATOM     21  C   LIG    1        3.369   2.303   1.707  0.00  0.00    +0.480 C 
ATOM     22  O   LIG    1        4.064   1.356   1.423  0.00  0.00    -0.470 OA
BRANCH  21  23
ATOM     23  O   LIG    1        3.922   3.515   1.873  0.00  0.00    -0.360 OA
BRANCH  23  25
ATOM     24  C   LIG    1        5.803   5.060   1.923  0.00  0.00    +0.070 C 
ATOM     25  C   LIG    1        5.360   3.614   1.696  0.00  0.00    +0.210 C 
ENDBRANCH  23  25
ENDBRANCH  21  23
ENDBRANCH   1  21
TORSDOF 5
