REMARK  Name = ZINCpe000000UPGq.0
REMARK                            x       y       z     vdW  Elec       q    Type
REMARK                         _______ _______ _______ _____ _____    ______ ____
ROOT
ATOM      1  C   LIG    1       -2.482   0.853   0.018  0.00  0.00    -0.020 C 
ATOM      2  C   LIG    1       -3.659   1.831   0.033  0.00  0.00    +0.060 C 
ATOM      3  C   LIG    1       -4.974   1.049   0.002  0.00  0.00    +0.010 C 
ATOM      4  C   LIG    1       -5.067   0.162   1.248  0.00  0.00    +0.270 C 
ATOM      5  N   LIG    1       -3.865  -0.680   1.319  0.00  0.00    -0.610 N 
ATOM      6  C   LIG    1       -3.971  -2.019   1.431  0.00  0.00    +0.520 C 
ATOM      7  O   LIG    1       -2.972  -2.704   1.489  0.00  0.00    -0.530 OA
ATOM      8  C   LIG    1       -2.546  -0.036   1.265  0.00  0.00    +0.290 C 
ENDROOT
BRANCH   1  11
ATOM      9  N   LIG    1       -0.011   0.966   0.007  0.00  0.00    -0.720 N 
ATOM     10  H   LIG    1        0.002  -0.004   0.002  0.00  0.00    +0.410 HD
ATOM     11  C   LIG    1       -1.187   1.624   0.017  0.00  0.00    +0.530 C 
ATOM     12  O   LIG    1       -1.204   2.837   0.023  0.00  0.00    -0.520 OA
BRANCH   9  16
ATOM     13  C   LIG    1        4.967   0.935   0.082  0.00  0.00    +0.300 C 
ATOM     14  N   LIG    1        3.579   1.229  -0.283  0.00  0.00    -0.620 N 
ATOM     15  C   LIG    1        2.412   0.846   0.522  0.00  0.00    +0.270 C 
ATOM     16  C   LIG    1        1.248   1.716  -0.001  0.00  0.00    +0.260 C 
ATOM     17  C   LIG    1        1.703   2.018  -1.447  0.00  0.00    +0.050 C 
ATOM     18  C   LIG    1        3.209   1.883  -1.397  0.00  0.00    +0.520 C 
ATOM     19  O   LIG    1        3.972   2.305  -2.240  0.00  0.00    -0.520 OA
ENDBRANCH   9  16
ENDBRANCH   1  11
BRANCH   6  20
ATOM     20  C   LIG    1       -5.332  -2.665   1.486  0.00  0.00    +0.100 C 
BRANCH  20  21
ATOM     21  C   LIG    1       -5.174  -4.159   1.611  0.00  0.00    -0.070 A 
ATOM     22  C   LIG    1       -5.107  -4.945   0.476  0.00  0.00    +0.010 A 
ATOM     23  C   LIG    1       -4.957  -6.314   0.591  0.00  0.00    +0.000 A 
ATOM     24  C   LIG    1       -4.885  -6.899   1.842  0.00  0.00    +0.000 A 
ATOM     25  C   LIG    1       -4.957  -6.113   2.977  0.00  0.00    +0.000 A 
ATOM     26  C   LIG    1       -5.102  -4.743   2.862  0.00  0.00    +0.010 A 
ENDBRANCH  20  21
ENDBRANCH   6  20
TORSDOF 4
