REMARK  Name = ZINCrD0000072LSI.0
REMARK                            x       y       z     vdW  Elec       q    Type
REMARK                         _______ _______ _______ _____ _____    ______ ____
ROOT
ATOM      1  C   LIG    1       -1.244  -2.135   0.003  0.00  0.00    +0.290 C 
ENDROOT
BRANCH   1   2
ATOM      2  N   LIG    1       -2.643  -2.570   0.013  0.00  0.00    -0.710 N 
ATOM      3  H   LIG    1       -3.076  -2.788   0.853  0.00  0.00    +0.400 HD
ATOM      4  C   LIG    1       -3.328  -2.666  -1.143  0.00  0.00    +0.520 C 
ATOM      5  O   LIG    1       -2.786  -2.393  -2.193  0.00  0.00    -0.530 OA
BRANCH   4   6
ATOM      6  C   LIG    1       -4.767  -3.113  -1.132  0.00  0.00    +0.070 C 
BRANCH   6   7
ATOM      7  C   LIG    1       -5.305  -3.137  -2.564  0.00  0.00    +0.100 C 
BRANCH   7   8
ATOM      8  C   LIG    1       -6.744  -3.584  -2.553  0.00  0.00    -0.090 A 
ATOM      9  C   LIG    1       -7.052  -4.926  -2.667  0.00  0.00    +0.010 A 
ATOM     10  C   LIG    1       -8.372  -5.337  -2.651  0.00  0.00    +0.000 A 
ATOM     11  C   LIG    1       -9.384  -4.404  -2.533  0.00  0.00    -0.090 A 
ATOM     12  C   LIG    1       -9.077  -3.060  -2.424  0.00  0.00    +0.000 A 
ATOM     13  C   LIG    1      -10.824  -4.850  -2.522  0.00  0.00    +0.090 C 
ATOM     14  C   LIG    1       -7.757  -2.650  -2.434  0.00  0.00    +0.010 A 
ENDBRANCH   7   8
ENDBRANCH   6   7
ENDBRANCH   4   6
ENDBRANCH   1   2
BRANCH   1  15
ATOM     15  C   LIG    1       -1.185  -0.630   0.010  0.00  0.00    +0.450 C 
ATOM     16  O   LIG    1       -2.208   0.015   0.023  0.00  0.00    -0.500 OA
BRANCH  15  18
ATOM     17  C   LIG    1       -0.018   1.448   0.010  0.00  0.00    +0.260 C 
ATOM     18  O   LIG    1        0.002  -0.004   0.002  0.00  0.00    -0.360 OA
ENDBRANCH  15  18
ENDBRANCH   1  15
BRANCH   1  19
ATOM     19  C   LIG    1       -0.531  -2.680   1.242  0.00  0.00    +0.140 C 
BRANCH  19  20
ATOM     20  C   LIG    1       -0.482  -4.184   1.173  0.00  0.00    -0.170 A 
ATOM     21  C   LIG    1       -1.348  -5.038   1.741  0.00  0.00    +0.230 A 
ATOM     22  N   LIG    1       -0.985  -6.327   1.459  0.00  0.00    -0.590 N 
ATOM     23  H   LIG    1       -1.460  -7.118   1.759  0.00  0.00    +0.420 HD
ATOM     24  C   LIG    1        0.159  -6.335   0.692  0.00  0.00    +0.100 A 
ATOM     25  C   LIG    1        0.939  -7.348   0.146  0.00  0.00    -0.010 A 
ATOM     26  C   LIG    1        2.055  -7.028  -0.596  0.00  0.00    +0.030 A 
ATOM     27  C   LIG    1        2.411  -5.702  -0.803  0.00  0.00    -0.020 A 
ATOM     28  C   LIG    1        1.659  -4.691  -0.275  0.00  0.00    +0.050 A 
ATOM     29  C   LIG    1        0.524  -4.992   0.479  0.00  0.00    -0.100 A 
ENDBRANCH  19  20
ENDBRANCH   1  19
TORSDOF 8
