REMARK  Name = ZINCqH0000002I3Y.0
REMARK                            x       y       z     vdW  Elec       q    Type
REMARK                         _______ _______ _______ _____ _____    ______ ____
ROOT
ATOM      1  C   LIG    1       -0.270   2.991  -6.543  0.00  0.00    +0.510 C 
ATOM      2  N   LIG    1       -0.841   3.668  -7.558  0.00  0.00    -0.680 N 
ATOM      3  H   LIG    1       -1.573   3.271  -8.055  0.00  0.00    +0.410 HD
ATOM      4  O   LIG    1        0.706   3.446  -5.983  0.00  0.00    -0.500 OA
ENDROOT
BRANCH   2   5
ATOM      5  C   LIG    1       -0.379   4.945  -7.894  0.00  0.00    +0.160 A 
ATOM      6  C   LIG    1        0.097   5.794  -6.903  0.00  0.00    +0.010 A 
ATOM      7  C   LIG    1        0.557   7.051  -7.233  0.00  0.00    +0.090 A 
ATOM      8  C   LIG    1        0.535   7.473  -8.561  0.00  0.00    -0.040 A 
ATOM      9  C   LIG    1        0.052   6.622  -9.553  0.00  0.00    +0.080 A 
ATOM     10  C   LIG    1       -0.402   5.364  -9.219  0.00  0.00    -0.020 A 
BRANCH   8  11
ATOM     11  C   LIG    1        1.024   8.828  -8.918  0.00  0.00    +0.280 A 
ATOM     12  N   LIG    1        1.052   9.338 -10.130  0.00  0.00    -0.310 NA
ATOM     13  N   LIG    1        1.585  10.632 -10.011  0.00  0.00    -0.480 N 
ATOM     14  H   LIG    1        1.734  11.266 -10.730  0.00  0.00    +0.440 HD
ATOM     15  C   LIG    1        1.848  10.819  -8.705  0.00  0.00    +0.290 A 
ATOM     16  C   LIG    1        2.434  12.065  -8.092  0.00  0.00    +0.190 C 
ATOM     17  N   LIG    1        1.505   9.736  -8.058  0.00  0.00    -0.530 NA
ENDBRANCH   8  11
ENDBRANCH   2   5
BRANCH   1  18
ATOM     18  C   LIG    1       -0.843   1.668  -6.102  0.00  0.00    +0.120 C 
BRANCH  18  23
ATOM     19  C   LIG    1        0.390   0.937  -2.606  0.00  0.00    +0.130 A 
ATOM     20  C   LIG    1        1.482   0.121  -2.865  0.00  0.00    -0.080 A 
ATOM     21  C   LIG    1        1.811  -0.197  -4.169  0.00  0.00    +0.050 A 
ATOM     22  C   LIG    1        1.060   0.305  -5.215  0.00  0.00    -0.020 A 
ATOM     23  C   LIG    1       -0.026   1.123  -4.960  0.00  0.00    -0.030 A 
ATOM     24  C   LIG    1       -0.362   1.440  -3.658  0.00  0.00    -0.010 A 
BRANCH  19  25
ATOM     25  O   LIG    1        0.061   1.247  -1.325  0.00  0.00    -0.320 OA
BRANCH  25  26
ATOM     26  C   LIG    1        0.880   0.694  -0.292  0.00  0.00    +0.180 C 
BRANCH  26  28
ATOM     27  C   LIG    1        1.236   0.558   2.177  0.00  0.00    +0.040 C 
ATOM     28  C   LIG    1        0.359   1.151   1.072  0.00  0.00    +0.020 C 
ENDBRANCH  26  28
ENDBRANCH  25  26
ENDBRANCH  19  25
ENDBRANCH  18  23
ENDBRANCH   1  18
TORSDOF 7
