REMARK  Name = ZINCnE00000gYnwK.0
REMARK                            x       y       z     vdW  Elec       q    Type
REMARK                         _______ _______ _______ _____ _____    ______ ____
ROOT
ATOM      1  C   LIG    1       -0.726   7.255   0.045  0.00  0.00    +0.000 A 
ATOM      2  C   LIG    1       -0.004   8.415   0.045  0.00  0.00    -0.010 A 
ATOM      3  C   LIG    1       -0.996   9.432   0.058  0.00  0.00    +0.030 A 
ATOM      4  N   LIG    1       -2.153   8.818   0.065  0.00  0.00    -0.350 NA
ATOM      5  O   LIG    1       -2.022   7.616   0.052  0.00  0.00    +0.140 OA
ENDROOT
BRANCH   3   6
ATOM      6  C   LIG    1       -0.768  10.899   0.064  0.00  0.00    +0.030 A 
ATOM      7  C   LIG    1        0.531  11.404   0.061  0.00  0.00    +0.040 A 
ATOM      8  C   LIG    1        0.738  12.769   0.061  0.00  0.00    +0.070 A 
ATOM      9  C   LIG    1       -0.341  13.634   0.074  0.00  0.00    -0.180 A 
ATOM     10  C   LIG    1       -1.632  13.138   0.082  0.00  0.00    +0.070 A 
ATOM     11  C   LIG    1       -1.851  11.775   0.077  0.00  0.00    +0.040 A 
BRANCH   9  12
ATOM     12  C   LIG    1       -0.109  15.123   0.081  0.00  0.00    +0.510 C 
ATOM     13  F   LIG    1       -1.171  15.764  -0.567  0.00  0.00    -0.180 F 
ATOM     14  F   LIG    1        1.086  15.412  -0.587  0.00  0.00    -0.180 F 
ATOM     15  F   LIG    1       -0.026  15.577   1.401  0.00  0.00    -0.180 F 
ENDBRANCH   9  12
ENDBRANCH   3   6
BRANCH   1  17
ATOM     16  O   LIG    1        1.016   5.693   0.022  0.00  0.00    -0.540 OA
ATOM     17  C   LIG    1       -0.189   5.878   0.034  0.00  0.00    +0.540 C 
BRANCH  17  18
ATOM     18  N   LIG    1       -1.024   4.837   0.036  0.00  0.00    -0.650 NA
ATOM     19  C   LIG    1       -0.541   3.595   0.025  0.00  0.00    +0.330 A 
ATOM     20  N   LIG    1        0.754   3.224   0.011  0.00  0.00    -0.400 NA
ATOM     21  N   LIG    1        1.007   1.869   0.003  0.00  0.00    -0.280 NA
ATOM     22  C   LIG    1       -0.013   1.076   0.008  0.00  0.00    +0.170 A 
ATOM     23  S   LIG    1       -1.440   2.126   0.019  0.00  0.00    -0.060 S 
ENDBRANCH  17  18
ENDBRANCH   1  17
TORSDOF 4
