REMARK  Name = ZINCrD0000075V4z.0
REMARK                            x       y       z     vdW  Elec       q    Type
REMARK                         _______ _______ _______ _____ _____    ______ ____
ROOT
ATOM      1  O   LIG    1        5.366   1.410  -4.869  0.00  0.00    -0.520 OA
ATOM      2  C   LIG    1        4.290   0.845  -4.826  0.00  0.00    +0.570 C 
ATOM      3  N   LIG    1        3.798   0.248  -5.930  0.00  0.00    -0.600 N 
ATOM      4  C   LIG    1        2.449  -0.334  -5.928  0.00  0.00    +0.260 C 
ATOM      5  C   LIG    1        1.661   0.257  -7.107  0.00  0.00    +0.010 C 
ATOM      6  C   LIG    1        2.443   0.026  -8.402  0.00  0.00    +0.010 C 
ATOM      7  C   LIG    1        3.793   0.741  -8.320  0.00  0.00    +0.020 C 
ATOM      8  C   LIG    1        4.603   0.162  -7.156  0.00  0.00    +0.290 C 
ENDROOT
BRANCH   2   9
ATOM      9  C   LIG    1        3.523   0.812  -3.563  0.00  0.00    -0.250 A 
ATOM     10  C   LIG    1        2.848  -0.347  -3.161  0.00  0.00    +0.370 A 
ATOM     11  N   LIG    1        2.175  -0.333  -2.025  0.00  0.00    -0.510 NA
ATOM     12  C   LIG    1        2.132   0.751  -1.275  0.00  0.00    +0.370 A 
ATOM     13  N   LIG    1        2.749   1.865  -1.618  0.00  0.00    -0.520 NA
ATOM     14  C   LIG    1        3.450   1.938  -2.736  0.00  0.00    +0.390 A 
BRANCH  12  15
ATOM     15  C   LIG    1        1.350   0.717   0.013  0.00  0.00    +0.020 C 
ATOM     16  C   LIG    1        2.113   0.987   1.311  0.00  0.00    +0.060 C 
ATOM     17  C   LIG    1        1.153   2.041   0.755  0.00  0.00    +0.060 C 
ENDBRANCH  12  15
ENDBRANCH   2   9
BRANCH   6  18
ATOM     18  C   LIG    1        1.644   0.579  -9.585  0.00  0.00    +0.140 C 
BRANCH  18  19
ATOM     19  C   LIG    1        0.369  -0.208  -9.741  0.00  0.00    +0.290 A 
ATOM     20  N   LIG    1        0.302  -1.501  -9.875  0.00  0.00    -0.490 NA
ATOM     21  C   LIG    1       -0.996  -1.881  -9.992  0.00  0.00    +0.050 A 
ATOM     22  C   LIG    1       -1.627  -3.117 -10.155  0.00  0.00    +0.060 A 
ATOM     23  C   LIG    1       -2.989  -3.180 -10.243  0.00  0.00    +0.000 A 
ATOM     24  C   LIG    1       -3.757  -2.026 -10.174  0.00  0.00    +0.030 A 
ATOM     25  C   LIG    1       -3.155  -0.795 -10.014  0.00  0.00    +0.010 A 
ATOM     26  C   LIG    1       -1.773  -0.712  -9.922  0.00  0.00    +0.050 A 
ATOM     27  N   LIG    1       -0.881   0.329  -9.757  0.00  0.00    -0.600 N 
ATOM     28  H   LIG    1       -1.104   1.269  -9.671  0.00  0.00    +0.420 HD
ENDBRANCH  18  19
ENDBRANCH   6  18
TORSDOF 4
