REMARK  Name = ZINCtV000002I4F5.0
REMARK                            x       y       z     vdW  Elec       q    Type
REMARK                         _______ _______ _______ _____ _____    ______ ____
ROOT
ATOM      1  C   LIG    1       -1.236  -0.565   0.004  0.00  0.00    +0.110 A 
ATOM      2  C   LIG    1       -2.364   0.242  -0.033  0.00  0.00    +0.040 A 
ATOM      3  C   LIG    1       -3.621  -0.331  -0.036  0.00  0.00    +0.070 A 
ATOM      4  C   LIG    1       -3.756  -1.707   0.010  0.00  0.00    -0.040 A 
ATOM      5  C   LIG    1       -2.632  -2.513   0.053  0.00  0.00    +0.070 A 
ATOM      6 CL   LIG    1       -5.338  -2.423   0.013  0.00  0.00    -0.050 Cl
ATOM      7  C   LIG    1       -1.373  -1.945   0.050  0.00  0.00    -0.110 A 
ENDROOT
BRANCH   1   8
ATOM      8  O   LIG    1        0.002  -0.004   0.002  0.00  0.00    -0.260 OA
BRANCH   8  13
ATOM      9  C   LIG    1        2.610   0.625  -4.950  0.00  0.00    +0.090 C 
ATOM     10  C   LIG    1        1.912   0.457  -3.625  0.00  0.00    -0.110 A 
ATOM     11  C   LIG    1        0.611  -0.007  -3.585  0.00  0.00    +0.050 A 
ATOM     12  C   LIG    1       -0.030  -0.167  -2.371  0.00  0.00    -0.060 A 
ATOM     13  C   LIG    1        0.631   0.148  -1.193  0.00  0.00    +0.120 A 
ATOM     14  C   LIG    1        1.938   0.614  -1.236  0.00  0.00    -0.010 A 
ATOM     15  C   LIG    1        2.575   0.767  -2.452  0.00  0.00    -0.050 A 
ATOM     16  C   LIG    1        3.994   1.273  -2.499  0.00  0.00    +0.110 C 
ENDBRANCH   8  13
ENDBRANCH   1   8
BRANCH   7  17
ATOM     17  C   LIG    1       -0.150  -2.823   0.098  0.00  0.00    +0.350 C 
BRANCH  17  18
ATOM     18  N   LIG    1        0.368  -2.866   1.467  0.00  0.00    -0.690 N 
ATOM     19  H   LIG    1       -0.079  -2.370   2.171  0.00  0.00    +0.410 HD
BRANCH  18  20
ATOM     20  C   LIG    1        1.491  -3.612   1.757  0.00  0.00    +0.480 A 
ATOM     21  N   LIG    1        2.113  -4.302   0.811  0.00  0.00    -0.590 NA
ATOM     22  C   LIG    1        3.194  -5.019   1.075  0.00  0.00    +0.550 A 
ATOM     23  N   LIG    1        3.717  -5.106   2.275  0.00  0.00    -0.550 NA
ATOM     24  C   LIG    1        3.163  -4.452   3.307  0.00  0.00    +0.160 A 
ATOM     25  C   LIG    1        3.695  -4.524   4.604  0.00  0.00    +0.110 A 
ATOM     26  C   LIG    1        3.091  -3.837   5.618  0.00  0.00    +0.040 A 
ATOM     27  C   LIG    1        1.955  -3.067   5.385  0.00  0.00    +0.030 A 
ATOM     28  C   LIG    1        1.413  -2.977   4.136  0.00  0.00    +0.050 A 
ATOM     29  F   LIG    1        4.796  -5.267   4.847  0.00  0.00    -0.120 F 
ATOM     30  C   LIG    1        2.008  -3.667   3.075  0.00  0.00    -0.170 A 
ENDBRANCH  18  20
ENDBRANCH  17  18
ENDBRANCH   7  17
TORSDOF 5
