REMARK  Name = ZINCrH000004qNzm.0
REMARK                            x       y       z     vdW  Elec       q    Type
REMARK                         _______ _______ _______ _____ _____    ______ ____
ROOT
ATOM      1  N   LIG    1        2.044   0.536   5.860  0.00  0.00    -0.680 N 
ATOM      2  H   LIG    1        1.554   0.286   6.659  0.00  0.00    +0.410 HD
ATOM      3  C   LIG    1        3.391   0.579   5.881  0.00  0.00    +0.710 C 
ATOM      4  N   LIG    1        4.053   0.380   7.038  0.00  0.00    -0.730 N 
ATOM      5  H   LIG    1        3.560   0.205   7.855  0.00  0.00    +0.400 HD
ATOM      6  O   LIG    1        4.009   0.799   4.857  0.00  0.00    -0.560 OA
ENDROOT
BRANCH   4   7
ATOM      7  C   LIG    1        5.517   0.428   7.062  0.00  0.00    +0.370 C 
ATOM      8  C   LIG    1        6.064  -0.366   8.270  0.00  0.00    +0.080 C 
ATOM      9  C   LIG    1        7.284   0.486   8.681  0.00  0.00    +0.230 C 
ATOM     10  N   LIG    1        6.987   1.849   8.215  0.00  0.00    -0.480 N 
ATOM     11  C   LIG    1        7.375   3.153   8.389  0.00  0.00    +0.140 A 
ATOM     12  C   LIG    1        6.611   3.900   7.571  0.00  0.00    +0.160 A 
ATOM     13  N   LIG    1        5.779   3.078   6.916  0.00  0.00    -0.460 NA
ATOM     14  C   LIG    1        7.452   0.472  10.201  0.00  0.00    +0.060 C 
ATOM     15  C   LIG    1        5.997   1.846   7.296  0.00  0.00    +0.170 A 
ENDBRANCH   4   7
BRANCH   1  19
ATOM     16  C   LIG    1        1.663   3.080   1.648  0.00  0.00    +0.110 C 
ATOM     17  C   LIG    1        1.149   2.070   2.642  0.00  0.00    -0.080 A 
ATOM     18  C   LIG    1        1.862   1.795   3.794  0.00  0.00    +0.070 A 
ATOM     19  C   LIG    1        1.351   0.850   4.682  0.00  0.00    +0.120 A 
ATOM     20  C   LIG    1        0.150   0.225   4.386  0.00  0.00    +0.230 A 
ATOM     21  N   LIG    1       -0.507   0.515   3.279  0.00  0.00    -0.490 NA
ATOM     22  C   LIG    1       -0.052   1.407   2.413  0.00  0.00    +0.270 A 
BRANCH  22  23
ATOM     23  N   LIG    1       -0.781   1.680   1.259  0.00  0.00    -0.480 N 
ATOM     24  C   LIG    1       -0.842   0.502   0.384  0.00  0.00    +0.180 C 
ATOM     25  C   LIG    1       -1.522   0.878  -0.934  0.00  0.00    +0.020 C 
ATOM     26  C   LIG    1       -2.933   1.397  -0.645  0.00  0.00    +0.010 C 
ATOM     27  C   LIG    1       -2.845   2.593   0.307  0.00  0.00    +0.030 C 
ATOM     28  C   LIG    1       -2.126   2.167   1.589  0.00  0.00    +0.140 C 
ATOM     29  C   LIG    1       -2.017   3.365   2.534  0.00  0.00    +0.020 C 
ENDBRANCH  22  23
ENDBRANCH   1  19
TORSDOF 3
