REMARK  Name = ZINCpk000000mXaF.0
REMARK                            x       y       z     vdW  Elec       q    Type
REMARK                         _______ _______ _______ _____ _____    ______ ____
ROOT
ATOM      1  C   LIG    1        4.539   8.285   0.007  0.00  0.00    +0.090 C 
ENDROOT
BRANCH   1   2
ATOM      2  C   LIG    1        3.242   7.516   0.014  0.00  0.00    +0.510 C 
ATOM      3  N   LIG    1        3.257   6.169   0.006  0.00  0.00    -0.520 N 
ATOM      4  H   LIG    1        4.103   5.694  -0.004  0.00  0.00    +0.430 HD
ATOM      5  O   LIG    1        2.185   8.111   0.028  0.00  0.00    -0.520 OA
BRANCH   3   6
ATOM      6  N   LIG    1        2.052   5.455   0.013  0.00  0.00    -0.520 N 
ATOM      7  H   LIG    1        1.207   5.930   0.024  0.00  0.00    +0.430 HD
ATOM      8  C   LIG    1        2.068   4.107   0.005  0.00  0.00    +0.570 C 
ATOM      9  O   LIG    1        3.127   3.511  -0.008  0.00  0.00    -0.530 OA
BRANCH   8  10
ATOM     10  C   LIG    1        0.796   3.353   0.013  0.00  0.00    -0.190 A 
ATOM     11  C   LIG    1        0.798   1.953   0.004  0.00  0.00    +0.140 A 
ATOM     12  C   LIG    1       -0.420   1.296   0.012  0.00  0.00    -0.030 A 
ATOM     13  C   LIG    1       -1.588   2.035   0.022  0.00  0.00    +0.300 A 
ATOM     14  N   LIG    1       -1.560   3.354   0.035  0.00  0.00    -0.480 NA
ATOM     15  C   LIG    1       -0.427   4.025   0.028  0.00  0.00    +0.300 A 
ENDBRANCH   8  10
ENDBRANCH   3   6
ENDBRANCH   1   2
BRANCH   1  16
ATOM     16  C   LIG    1        4.242   9.786   0.018  0.00  0.00    +0.320 C 
BRANCH  16  17
ATOM     17  C   LIG    1        5.532  10.554  -0.113  0.00  0.00    -0.110 A 
ATOM     18  C   LIG    1        6.392  10.649   0.965  0.00  0.00    +0.020 A 
ATOM     19  C   LIG    1        7.578  11.350   0.843  0.00  0.00    +0.000 A 
ATOM     20  C   LIG    1        7.898  11.963  -0.354  0.00  0.00    -0.080 A 
ATOM     21  C   LIG    1        7.035  11.872  -1.430  0.00  0.00    +0.000 A 
ATOM     22  C   LIG    1        9.189  12.730  -0.485  0.00  0.00    +0.090 C 
ATOM     23  C   LIG    1        5.852  11.168  -1.309  0.00  0.00    +0.030 A 
ENDBRANCH  16  17
BRANCH  16  26
ATOM     24  C   LIG    1        2.259  11.694   2.676  0.00  0.00    +0.090 C 
ATOM     25  C   LIG    1        2.834  11.260   1.353  0.00  0.00    +0.520 C 
ATOM     26  N   LIG    1        3.586  10.144   1.278  0.00  0.00    -0.720 N 
ATOM     27  H   LIG    1        3.693   9.579   2.059  0.00  0.00    +0.400 HD
ATOM     28  O   LIG    1        2.620  11.915   0.355  0.00  0.00    -0.540 OA
ENDBRANCH  16  26
ENDBRANCH   1  16
TORSDOF 6
