REMARK  Name = ZINCkj000005hedq.0
REMARK                            x       y       z     vdW  Elec       q    Type
REMARK                         _______ _______ _______ _____ _____    ______ ____
ROOT
ATOM      1  C   LIG    1       -0.047   1.431  -0.485  0.00  0.00    -0.110 A 
ATOM      2  C   LIG    1       -0.033   0.082  -0.703  0.00  0.00    +0.310 A 
ATOM      3  N   LIG    1        1.252  -0.263  -0.933  0.00  0.00    -0.300 N 
ATOM      4  N   LIG    1        2.009   0.915  -0.847  0.00  0.00    -0.050 NA
ATOM      5  N   LIG    1        1.212   1.891  -0.583  0.00  0.00    -0.200 NA
ENDROOT
BRANCH   3   6
ATOM      6  C   LIG    1        1.737  -1.550  -1.204  0.00  0.00    +0.120 A 
ATOM      7  C   LIG    1        0.862  -2.627  -1.251  0.00  0.00    +0.030 A 
ATOM      8  C   LIG    1        1.341  -3.893  -1.525  0.00  0.00    +0.060 A 
ATOM      9  C   LIG    1        2.693  -4.091  -1.740  0.00  0.00    -0.030 A 
ATOM     10  C   LIG    1        3.568  -3.020  -1.689  0.00  0.00    +0.060 A 
ATOM     11 CL   LIG    1        3.293  -5.685  -2.077  0.00  0.00    -0.040 Cl
ATOM     12  C   LIG    1        3.093  -1.751  -1.421  0.00  0.00    +0.060 A 
ENDBRANCH   3   6
BRANCH   1  15
ATOM     13  C   LIG    1        0.216   4.170   0.126  0.00  0.00    +0.310 C 
ATOM     14  N   LIG    1       -1.110   3.546   0.129  0.00  0.00    -0.610 N 
ATOM     15  C   LIG    1       -1.243   2.245  -0.198  0.00  0.00    +0.610 C 
ATOM     16  O   LIG    1       -2.349   1.743  -0.255  0.00  0.00    -0.530 OA
BRANCH  14  17
ATOM     17  C   LIG    1       -2.290   4.337   0.486  0.00  0.00    +0.310 C 
BRANCH  17  18
ATOM     18  C   LIG    1       -2.527   4.247   1.995  0.00  0.00    +0.010 C 
BRANCH  18  19
ATOM     19  C   LIG    1       -3.760   5.072   2.368  0.00  0.00    +0.280 C 
BRANCH  19  20
ATOM     20  N   LIG    1       -3.986   4.986   3.817  0.00  0.00    -0.640 N 
ATOM     21  H   LIG    1       -4.800   5.530   4.063  0.00  0.00    +0.440 HD
ATOM     22  H   LIG    1       -3.180   5.346   4.306  0.00  0.00    +0.440 HD
ATOM     23  H   LIG    1       -4.135   4.023   4.077  0.00  0.00    +0.440 HD
ENDBRANCH  19  20
ENDBRANCH  18  19
ENDBRANCH  17  18
ENDBRANCH  14  17
ENDBRANCH   1  15
TORSDOF 6
