REMARK  Name = ZINCnE000001DFAx.0
REMARK                            x       y       z     vdW  Elec       q    Type
REMARK                         _______ _______ _______ _____ _____    ______ ____
ROOT
ATOM      1  C   LIG    1        3.768   3.628  -0.014  0.00  0.00    +0.100 C 
ATOM      2  C   LIG    1        3.098   4.082  -1.313  0.00  0.00    +0.090 C 
ENDROOT
BRANCH   1   3
ATOM      3  C   LIG    1        5.127   4.269   0.101  0.00  0.00    +0.480 A 
ATOM      4  N   LIG    1        5.204   5.467   0.610  0.00  0.00    -0.590 NA
ATOM      5  C   LIG    1        6.382   6.105   0.745  0.00  0.00    +0.540 A 
ATOM      6  C   LIG    1        7.603   5.409   0.298  0.00  0.00    -0.210 A 
ATOM      7  C   LIG    1        8.864   5.991   0.398  0.00  0.00    +0.110 A 
ATOM      8  C   LIG    1        9.969   5.292  -0.037  0.00  0.00    -0.020 A 
ATOM      9  C   LIG    1        9.831   4.019  -0.572  0.00  0.00    +0.080 A 
ATOM     10  C   LIG    1        8.587   3.431  -0.678  0.00  0.00    -0.020 A 
ATOM     11  C   LIG    1        7.463   4.119  -0.244  0.00  0.00    +0.180 A 
ATOM     12  O   LIG    1        6.438   7.224   1.223  0.00  0.00    -0.490 OA
ATOM     13  N   LIG    1        6.197   3.573  -0.323  0.00  0.00    -0.620 N 
ATOM     14  H   LIG    1        6.078   2.683  -0.690  0.00  0.00    +0.430 HD
ENDBRANCH   1   3
BRANCH   1  15
ATOM     15  S   LIG    1        3.949   1.823  -0.025  0.00  0.00    -0.040 S 
BRANCH  15  20
ATOM     16  N   LIG    1       -1.024  -0.821   0.007  0.00  0.00    -0.620 NA
ATOM     17  C   LIG    1        0.002  -0.004   0.002  0.00  0.00    +0.340 A 
ATOM     18  N   LIG    1       -0.016   1.361   0.009  0.00  0.00    -0.500 NA
ATOM     19  N   LIG    1        1.210   1.987   0.001  0.00  0.00    -0.230 NA
ATOM     20  C   LIG    1        2.280   1.257  -0.013  0.00  0.00    -0.070 A 
ATOM     21  S   LIG    1        1.725  -0.426  -0.017  0.00  0.00    -0.100 S 
BRANCH  16  23
ATOM     22  C   LIG    1       -3.138  -0.761  -1.221  0.00  0.00    +0.000 C 
ATOM     23  C   LIG    1       -2.387  -0.284   0.024  0.00  0.00    +0.150 C 
ATOM     24  C   LIG    1       -3.114  -0.775   1.278  0.00  0.00    +0.000 C 
ENDBRANCH  16  23
ENDBRANCH  15  20
ENDBRANCH   1  15
TORSDOF 4
