REMARK  Name = ZINCqH000000901I.0
REMARK                            x       y       z     vdW  Elec       q    Type
REMARK                         _______ _______ _______ _____ _____    ______ ____
ROOT
ATOM      1  N   LIG    1       -4.681   1.806   1.041  0.00  0.00    -0.720 N 
ATOM      2  H   LIG    1       -4.991   2.595   1.512  0.00  0.00    +0.400 HD
ATOM      3  C   LIG    1       -5.270   1.434  -0.113  0.00  0.00    +0.520 C 
ATOM      4  O   LIG    1       -4.883   0.447  -0.701  0.00  0.00    -0.530 OA
ENDROOT
BRANCH   3   5
ATOM      5  C   LIG    1       -6.410   2.245  -0.672  0.00  0.00    -0.020 C 
ATOM      6  C   LIG    1       -6.898   1.610  -1.976  0.00  0.00    +0.060 C 
ATOM      7  C   LIG    1       -8.034   2.452  -2.562  0.00  0.00    +0.030 C 
ATOM      8  C   LIG    1       -9.203   2.483  -1.573  0.00  0.00    +0.260 C 
ATOM      9  N   LIG    1       -8.710   2.956  -0.273  0.00  0.00    -0.600 N 
ATOM     10  C   LIG    1       -9.300   3.997   0.348  0.00  0.00    +0.600 C 
ATOM     11  O   LIG    1       -8.925   4.339   1.454  0.00  0.00    -0.520 OA
ATOM     12  C   LIG    1       -7.562   2.274   0.339  0.00  0.00    +0.300 C 
BRANCH  10  13
ATOM     13  C   LIG    1      -10.394   4.718  -0.310  0.00  0.00    -0.270 A 
ATOM     14  C   LIG    1      -10.519   6.077  -0.381  0.00  0.00    +0.090 A 
ATOM     15  C   LIG    1      -11.643   6.486  -1.058  0.00  0.00    +0.000 A 
ATOM     16  C   LIG    1      -12.414   5.497  -1.527  0.00  0.00    -0.070 A 
ATOM     17  S   LIG    1      -11.753   3.973  -1.140  0.00  0.00    +0.220 S 
ENDBRANCH  10  13
ENDBRANCH   3   5
BRANCH   1  19
ATOM     18  C   LIG    1       -4.130  -0.142   2.414  0.00  0.00    +0.030 C 
ATOM     19  C   LIG    1       -3.573   1.017   1.585  0.00  0.00    +0.230 C 
BRANCH  19  20
ATOM     20  C   LIG    1       -2.701   1.907   2.474  0.00  0.00    +0.030 C 
BRANCH  20  21
ATOM     21  C   LIG    1       -2.045   2.993   1.620  0.00  0.00    +0.060 C 
BRANCH  21  22
ATOM     22  C   LIG    1       -1.186   3.870   2.495  0.00  0.00    -0.080 A 
ATOM     23  C   LIG    1        0.143   3.551   2.701  0.00  0.00    +0.000 A 
ATOM     24  C   LIG    1        0.932   4.359   3.499  0.00  0.00    +0.000 A 
ATOM     25  C   LIG    1        0.389   5.481   4.097  0.00  0.00    +0.000 A 
ATOM     26  C   LIG    1       -0.941   5.796   3.896  0.00  0.00    +0.000 A 
ATOM     27  C   LIG    1       -1.730   4.990   3.096  0.00  0.00    +0.000 A 
ENDBRANCH  21  22
ENDBRANCH  20  21
ENDBRANCH  19  20
ENDBRANCH   1  19
TORSDOF 6
