REMARK  Name = ZINCrD0000071K6w.0
REMARK                            x       y       z     vdW  Elec       q    Type
REMARK                         _______ _______ _______ _____ _____    ______ ____
ROOT
ATOM      1  O   LIG    1       -2.563  -0.141   0.805  0.00  0.00    -0.310 OA
ENDROOT
BRANCH   1   2
ATOM      2  C   LIG    1       -3.581  -0.968   1.428  0.00  0.00    +0.180 C 
ATOM      3  C   LIG    1       -4.767  -1.122   0.474  0.00  0.00    +0.080 C 
BRANCH   2   5
ATOM      4  N   LIG    1       -4.777  -1.018   3.593  0.00  0.00    -0.550 N 
ATOM      5  C   LIG    1       -4.045  -0.316   2.705  0.00  0.00    +0.520 C 
ATOM      6  O   LIG    1       -3.759   0.840   2.935  0.00  0.00    -0.480 OA
BRANCH   4   7
ATOM      7  C   LIG    1       -5.316  -0.380   4.715  0.00  0.00    +0.150 A 
ATOM      8  C   LIG    1       -5.939  -1.126   5.707  0.00  0.00    -0.030 A 
ATOM      9  C   LIG    1       -6.466  -0.494   6.816  0.00  0.00    +0.030 A 
ATOM     10  C   LIG    1       -6.383   0.881   6.934  0.00  0.00    -0.020 A 
ATOM     11  C   LIG    1       -5.769   1.627   5.945  0.00  0.00    +0.030 A 
ATOM     12  C   LIG    1       -5.236   1.001   4.836  0.00  0.00    +0.010 A 
ENDBRANCH   4   7
BRANCH   4  14
ATOM     13  C   LIG    1       -3.965  -3.255   4.160  0.00  0.00    +0.030 C 
ATOM     14  C   LIG    1       -5.008  -2.450   3.382  0.00  0.00    +0.260 C 
ENDBRANCH   4  14
ENDBRANCH   2   5
ENDBRANCH   1   2
BRANCH   1  15
ATOM     15  C   LIG    1       -1.626  -0.773   0.070  0.00  0.00    +0.530 C 
ATOM     16  O   LIG    1       -1.660  -1.983  -0.047  0.00  0.00    -0.500 OA
BRANCH  15  17
ATOM     17  C   LIG    1       -0.564   0.000  -0.591  0.00  0.00    -0.260 A 
ATOM     18  C   LIG    1        0.416  -0.622  -1.355  0.00  0.00    +0.270 A 
ATOM     19  C   LIG    1        1.422   0.193  -1.936  0.00  0.00    -0.180 A 
ATOM     20  C   LIG    1        2.323  -0.342  -2.867  0.00  0.00    +0.110 A 
ATOM     21  C   LIG    1        3.264   0.464  -3.442  0.00  0.00    -0.010 A 
ATOM     22  C   LIG    1        3.345   1.806  -3.102  0.00  0.00    +0.110 A 
ATOM     23  C   LIG    1        2.487   2.348  -2.167  0.00  0.00    +0.010 A 
ATOM     24  C   LIG    1        1.527   1.547  -1.563  0.00  0.00    +0.160 A 
ATOM     25  O   LIG    1        0.715   2.057  -0.607  0.00  0.00    -0.270 OA
ATOM     26  C   LIG    1       -0.494   1.468  -0.469  0.00  0.00    +0.520 A 
ATOM     27  O   LIG    1       -1.493   2.129  -0.257  0.00  0.00    -0.400 OA
ENDBRANCH  15  17
ENDBRANCH   1  15
TORSDOF 6
