REMARK  Name = ZINCrH00000No4y4.0
REMARK                            x       y       z     vdW  Elec       q    Type
REMARK                         _______ _______ _______ _____ _____    ______ ____
ROOT
ATOM      1  C   LIG    1        1.171   7.162   0.086  0.00  0.00    -0.120 C 
ATOM      2  N   LIG    1        1.053   5.846   0.021  0.00  0.00    -0.070 NA
ATOM      3  N   LIG    1       -0.069   5.237   0.029  0.00  0.00    -0.330 N 
ATOM      4  C   LIG    1       -1.369   5.898   0.040  0.00  0.00    +0.220 C 
ATOM      5  C   LIG    1       -1.269   7.242   0.778  0.00  0.00    +0.080 C 
ATOM      6  C   LIG    1       -1.827   6.138  -1.400  0.00  0.00    +0.060 C 
ATOM      7  C   LIG    1       -0.057   7.966   0.216  0.00  0.00    +0.380 C 
ATOM      8  O   LIG    1       -0.098   9.135  -0.108  0.00  0.00    -0.410 OA
ENDROOT
BRANCH   3   9
ATOM      9  C   LIG    1       -0.050   3.843   0.023  0.00  0.00    +0.140 A 
ATOM     10  C   LIG    1        1.162   3.162   0.007  0.00  0.00    +0.030 A 
ATOM     11  C   LIG    1        1.177   1.782   0.000  0.00  0.00    +0.040 A 
ATOM     12  C   LIG    1       -0.013   1.076   0.008  0.00  0.00    +0.000 A 
ATOM     13  C   LIG    1       -1.221   1.749   0.017  0.00  0.00    +0.040 A 
ATOM     14  C   LIG    1       -1.244   3.130   0.031  0.00  0.00    -0.020 A 
ENDBRANCH   3   9
BRANCH   1  15
ATOM     15  C   LIG    1        2.491   7.803   0.031  0.00  0.00    +0.540 C 
ATOM     16  O   LIG    1        2.582   9.015   0.093  0.00  0.00    -0.410 OA
BRANCH  15  18
ATOM     17  N   LIG    1        4.717   7.592  -0.134  0.00  0.00    -0.170 NA
ATOM     18  N   LIG    1        3.603   7.050  -0.087  0.00  0.00    -0.160 NA
BRANCH  17  19
ATOM     19  C   LIG    1        5.828   6.839  -0.253  0.00  0.00    +0.540 C 
ATOM     20  O   LIG    1        5.738   5.628  -0.314  0.00  0.00    -0.440 OA
BRANCH  19  24
ATOM     21  C   LIG    1        9.548  10.326  -0.313  0.00  0.00    +0.170 C 
ATOM     22  C   LIG    1        8.778   9.031  -0.334  0.00  0.00    -0.020 A 
ATOM     23  C   LIG    1        7.444   8.921  -0.247  0.00  0.00    +0.010 A 
ATOM     24  C   LIG    1        7.150   7.482  -0.308  0.00  0.00    -0.240 A 
ATOM     25  C   LIG    1        8.377   6.862  -0.422  0.00  0.00    +0.100 A 
ATOM     26  C   LIG    1        8.613   5.376  -0.514  0.00  0.00    +0.210 C 
ATOM     27  O   LIG    1        9.321   7.808  -0.440  0.00  0.00    -0.170 OA
ENDBRANCH  19  24
ENDBRANCH  17  19
ENDBRANCH  15  18
ENDBRANCH   1  15
TORSDOF 5
