REMARK  Name = ZINCrH00000No4y4.1
REMARK                            x       y       z     vdW  Elec       q    Type
REMARK                         _______ _______ _______ _____ _____    ______ ____
ROOT
ATOM      1  N   LIG    1       -3.758   2.252  -0.172  0.00  0.00    -0.510 N 
ATOM      2  H   LIG    1       -3.650   3.205  -0.314  0.00  0.00    +0.440 HD
ATOM      3  C   LIG    1       -2.675   1.472   0.017  0.00  0.00    +0.590 C 
ATOM      4  O   LIG    1       -2.810   0.277   0.194  0.00  0.00    -0.500 OA
ENDROOT
BRANCH   3   5
ATOM      5  C   LIG    1       -1.324   2.069   0.010  0.00  0.00    -0.030 A 
ATOM      6  N   LIG    1       -1.164   3.363  -0.174  0.00  0.00    -0.160 NA
ATOM      7  N   LIG    1       -0.005   3.910  -0.192  0.00  0.00    -0.260 N 
ATOM      8  C   LIG    1        1.147   3.218  -0.017  0.00  0.00    +0.130 A 
ATOM      9  C   LIG    1        1.129   1.880   0.189  0.00  0.00    -0.080 A 
ATOM     10  C   LIG    1        2.466   3.947  -0.053  0.00  0.00    +0.150 C 
ATOM     11  C   LIG    1       -0.133   1.231   0.216  0.00  0.00    +0.390 A 
ATOM     12  O   LIG    1       -0.225   0.027   0.397  0.00  0.00    -0.450 OA
BRANCH   7  13
ATOM     13  C   LIG    1        0.074   5.291  -0.401  0.00  0.00    +0.100 A 
ATOM     14  C   LIG    1        0.729   6.098   0.520  0.00  0.00    +0.030 A 
ATOM     15  C   LIG    1        0.811   7.460   0.307  0.00  0.00    +0.040 A 
ATOM     16  C   LIG    1        0.231   8.022  -0.816  0.00  0.00    +0.030 A 
ATOM     17  C   LIG    1       -0.427   7.222  -1.732  0.00  0.00    +0.040 A 
ATOM     18  C   LIG    1       -0.507   5.859  -1.528  0.00  0.00    +0.040 A 
ENDBRANCH   7  13
ENDBRANCH   3   5
BRANCH   1  20
ATOM     19  C   LIG    1       -6.122   2.464  -0.355  0.00  0.00    +0.600 C 
ATOM     20  N   LIG    1       -5.039   1.685  -0.166  0.00  0.00    -0.510 N 
ATOM     21  H   LIG    1       -5.146   0.731  -0.025  0.00  0.00    +0.430 HD
ATOM     22  O   LIG    1       -5.987   3.660  -0.532  0.00  0.00    -0.540 OA
BRANCH  19  26
ATOM     23  C   LIG    1       -9.973  -0.871  -0.081  0.00  0.00    +0.180 C 
ATOM     24  C   LIG    1       -9.152   0.385  -0.225  0.00  0.00    -0.000 A 
ATOM     25  C   LIG    1       -7.814   0.453  -0.150  0.00  0.00    -0.030 A 
ATOM     26  C   LIG    1       -7.469   1.868  -0.349  0.00  0.00    -0.240 A 
ATOM     27  C   LIG    1       -8.658   2.515  -0.519  0.00  0.00    +0.090 A 
ATOM     28  C   LIG    1       -8.832   3.994  -0.751  0.00  0.00    +0.190 C 
ATOM     29  O   LIG    1       -9.643   1.614  -0.447  0.00  0.00    -0.170 OA
ENDBRANCH  19  26
ENDBRANCH   1  20
TORSDOF 4
