REMARK  Name = ZINCpk000000oid3.0
REMARK                            x       y       z     vdW  Elec       q    Type
REMARK                         _______ _______ _______ _____ _____    ______ ____
ROOT
ATOM      1  C   LIG    1        5.968   4.714  -1.655  0.00  0.00    +0.590 C 
ATOM      2  N   LIG    1        5.013   4.761  -0.705  0.00  0.00    -0.600 N 
ATOM      3  C   LIG    1        4.064   5.883  -0.644  0.00  0.00    +0.290 C 
ATOM      4  C   LIG    1        4.057   6.438   0.784  0.00  0.00    +0.200 C 
ATOM      5  N   LIG    1        3.788   5.345   1.729  0.00  0.00    -0.480 N 
ATOM      6  C   LIG    1        4.852   4.332   1.689  0.00  0.00    +0.200 C 
ATOM      7  C   LIG    1        4.891   3.692   0.298  0.00  0.00    +0.320 C 
ATOM      8  O   LIG    1        6.825   3.852  -1.612  0.00  0.00    -0.520 OA
ENDROOT
BRANCH   1  11
ATOM      9  N   LIG    1        4.921   7.418  -3.818  0.00  0.00    -0.340 N 
ATOM     10  N   LIG    1        4.960   6.533  -2.889  0.00  0.00    -0.170 NA
ATOM     11  C   LIG    1        5.974   5.709  -2.748  0.00  0.00    +0.020 A 
ATOM     12  C   LIG    1        7.070   5.768  -3.643  0.00  0.00    +0.130 A 
ATOM     13  C   LIG    1        7.041   6.699  -4.638  0.00  0.00    -0.010 A 
ATOM     14  C   LIG    1        5.915   7.549  -4.716  0.00  0.00    +0.480 A 
ATOM     15  O   LIG    1        5.845   8.397  -5.590  0.00  0.00    -0.520 OA
BRANCH   9  16
ATOM     16  C   LIG    1        3.758   8.305  -3.908  0.00  0.00    +0.320 C 
BRANCH  16  17
ATOM     17  C   LIG    1        2.697   7.666  -4.806  0.00  0.00    +0.010 C 
BRANCH  17  19
ATOM     18  C   LIG    1        0.422   7.953  -5.798  0.00  0.00    +0.030 C 
ATOM     19  C   LIG    1        1.483   8.592  -4.900  0.00  0.00    +0.020 C 
ENDBRANCH  17  19
ENDBRANCH  16  17
ENDBRANCH   9  16
ENDBRANCH   1  11
BRANCH   5  20
ATOM     20  C   LIG    1        3.612   5.833   3.018  0.00  0.00    +0.310 A 
ATOM     21  C   LIG    1        3.347   4.949   4.059  0.00  0.00    -0.050 A 
ATOM     22  C   LIG    1        3.174   5.449   5.338  0.00  0.00    +0.090 A 
ATOM     23  C   LIG    1        3.278   6.819   5.534  0.00  0.00    -0.060 A 
ATOM     24  C   LIG    1        3.539   7.639   4.454  0.00  0.00    +0.290 A 
ATOM     25  N   LIG    1        3.699   7.135   3.245  0.00  0.00    -0.520 NA
ENDBRANCH   5  20
TORSDOF 5
