REMARK  Name = ZINCb800000011kS.0
REMARK                            x       y       z     vdW  Elec       q    Type
REMARK                         _______ _______ _______ _____ _____    ______ ____
ROOT
ATOM      1  O   LIG    1        2.226   3.714  -0.000  0.00  0.00    -0.550 OA
ATOM      2  C   LIG    1        1.166   3.110   0.007  0.00  0.00    +0.510 A 
ATOM      3  C   LIG    1       -0.047   3.820   0.023  0.00  0.00    -0.090 A 
ATOM      4  C   LIG    1       -1.224   3.131   0.031  0.00  0.00    +0.120 A 
ATOM      5  C   LIG    1       -1.198   1.729   0.017  0.00  0.00    -0.080 A 
ATOM      6  C   LIG    1       -0.013   1.076   0.008  0.00  0.00    +0.290 A 
ATOM      7  N   LIG    1        1.158   1.763   0.001  0.00  0.00    -0.500 N 
ENDROOT
BRANCH   7   8
ATOM      8  C   LIG    1        2.427   1.032  -0.016  0.00  0.00    +0.280 C 
BRANCH   8   9
ATOM      9  C   LIG    1        2.856   0.785  -1.464  0.00  0.00    +0.020 C 
BRANCH   9  10
ATOM     10  C   LIG    1        4.181   0.021  -1.480  0.00  0.00    +0.180 C 
BRANCH  10  11
ATOM     11  O   LIG    1        4.581  -0.209  -2.833  0.00  0.00    -0.570 OA
ATOM     12  H   LIG    1        5.415  -0.690  -2.920  0.00  0.00    +0.380 HD
ENDBRANCH  10  11
ENDBRANCH   9  10
ENDBRANCH   8   9
ENDBRANCH   7   8
TORSDOF 4
