REMARK  Name = ZINCrD00000F5Ltx.0
REMARK                            x       y       z     vdW  Elec       q    Type
REMARK                         _______ _______ _______ _____ _____    ______ ____
ROOT
ATOM      1  C   LIG    1       -1.819   5.553  -1.296  0.00  0.00    +0.250 C 
ATOM      2  C   LIG    1       -2.309   5.957  -2.689  0.00  0.00    -0.310 C 
ATOM      3  S   LIG    1       -4.091   5.612  -2.803  0.00  0.00    +2.410 S 
ATOM      4  C   LIG    1       -4.142   3.873  -2.275  0.00  0.00    -0.320 C 
ATOM      5  C   LIG    1       -3.410   3.744  -0.936  0.00  0.00    +0.220 C 
ATOM      6  O   LIG    1       -4.773   6.401  -1.838  0.00  0.00    -0.940 OA
ATOM      7  O   LIG    1       -4.483   5.686  -4.167  0.00  0.00    -0.940 OA
ATOM      8  N   LIG    1       -2.002   4.113  -1.101  0.00  0.00    -0.540 NA
ENDROOT
BRANCH   1  11
ATOM      9  N   LIG    1        1.495   6.926  -0.639  0.00  0.00    -0.370 N 
ATOM     10  C   LIG    1        0.150   6.987  -0.543  0.00  0.00    +0.240 A 
ATOM     11  C   LIG    1       -0.358   5.895  -1.160  0.00  0.00    -0.240 A 
ATOM     12  C   LIG    1        0.713   5.137  -1.644  0.00  0.00    +0.260 A 
ATOM     13  N   LIG    1        1.824   5.757  -1.338  0.00  0.00    -0.290 NA
BRANCH   9  15
ATOM     14  C   LIG    1        3.448   7.203   0.806  0.00  0.00    +0.040 C 
ATOM     15  C   LIG    1        2.443   7.907  -0.107  0.00  0.00    +0.320 C 
ENDBRANCH   9  15
ENDBRANCH   1  11
BRANCH   8  16
ATOM     16  C   LIG    1       -1.195   3.628   0.027  0.00  0.00    +0.230 C 
BRANCH  16  17
ATOM     17  C   LIG    1       -1.175   2.121   0.019  0.00  0.00    -0.030 C 
ATOM     18  C   LIG    1       -0.018   1.474   0.010  0.00  0.00    +0.020 C 
BRANCH  18  19
ATOM     19  C   LIG    1        0.002  -0.004   0.002  0.00  0.00    -0.060 A 
ATOM     20  C   LIG    1       -1.195  -0.721   0.015  0.00  0.00    +0.010 A 
ATOM     21  C   LIG    1       -1.169  -2.101   0.003  0.00  0.00    -0.090 A 
ATOM     22  C   LIG    1        0.040  -2.773  -0.012  0.00  0.00    -0.080 A 
ATOM     23  C   LIG    1        1.230  -2.068  -0.020  0.00  0.00    +0.000 A 
ATOM     24  C   LIG    1        0.060  -4.280  -0.019  0.00  0.00    +0.090 C 
ATOM     25  C   LIG    1       -2.461  -2.877   0.012  0.00  0.00    +0.080 C 
ATOM     26  C   LIG    1        1.218  -0.688  -0.013  0.00  0.00    -0.070 A 
ATOM     27  C   LIG    1        2.516   0.078  -0.023  0.00  0.00    +0.090 C 
ENDBRANCH  18  19
ENDBRANCH  16  17
ENDBRANCH   8  16
TORSDOF 5
