REMARK  Name = ZINCrH000004s2vi.0
REMARK                            x       y       z     vdW  Elec       q    Type
REMARK                         _______ _______ _______ _____ _____    ______ ____
ROOT
ATOM      1  C   LIG    1       -2.480  -1.846   3.523  0.00  0.00    -0.080 A 
ATOM      2  C   LIG    1       -1.739  -1.700   4.697  0.00  0.00    +0.030 A 
ATOM      3  C   LIG    1       -2.165  -2.309   5.859  0.00  0.00    +0.130 A 
ATOM      4  C   LIG    1       -3.320  -3.072   5.860  0.00  0.00    -0.660 A 
ATOM      5  C   LIG    1       -4.056  -3.225   4.699  0.00  0.00    +0.130 A 
ATOM      6  C   LIG    1       -3.644  -2.617   3.531  0.00  0.00    +0.070 A 
ENDROOT
BRANCH   1   9
ATOM      7  N   LIG    1       -0.908  -0.449   2.270  0.00  0.00    -0.720 N 
ATOM      8  H   LIG    1       -0.393  -0.342   3.086  0.00  0.00    +0.400 HD
ATOM      9  C   LIG    1       -2.032  -1.192   2.275  0.00  0.00    +0.550 C 
ATOM     10  O   LIG    1       -2.677  -1.325   1.254  0.00  0.00    -0.520 OA
BRANCH   7  11
ATOM     11  C   LIG    1       -0.464   0.199   1.034  0.00  0.00    +0.320 C 
BRANCH  11  18
ATOM     12  C   LIG    1        2.066  -1.193   1.127  0.00  0.00    +0.090 C 
ATOM     13  C   LIG    1        2.019   0.298   1.341  0.00  0.00    -0.070 A 
ATOM     14  C   LIG    1        3.185   0.999   1.581  0.00  0.00    +0.010 A 
ATOM     15  C   LIG    1        3.141   2.367   1.777  0.00  0.00    +0.020 A 
ATOM     16  C   LIG    1        1.931   3.033   1.733  0.00  0.00    +0.000 A 
ATOM     17  C   LIG    1        0.764   2.332   1.492  0.00  0.00    +0.040 A 
ATOM     18  C   LIG    1        0.808   0.964   1.296  0.00  0.00    -0.120 A 
ENDBRANCH  11  18
ENDBRANCH   7  11
ENDBRANCH   1   9
BRANCH   4  19
ATOM     19  S   LIG    1       -3.853  -3.853   7.347  0.00  0.00    +2.690 S 
ATOM     20  O   LIG    1       -5.268  -3.953   7.262  0.00  0.00    -0.950 OA
ATOM     21  O   LIG    1       -3.182  -3.191   8.411  0.00  0.00    -0.940 OA
BRANCH  19  22
ATOM     22  N   LIG    1       -3.272  -5.404   7.322  0.00  0.00    -1.060 N 
ATOM     23  H   LIG    1       -3.889  -6.152   7.303  0.00  0.00    +0.430 HD
BRANCH  22  24
ATOM     24  C   LIG    1       -1.895  -5.634   7.327  0.00  0.00    +0.120 A 
ATOM     25  C   LIG    1       -1.256  -6.056   6.168  0.00  0.00    +0.020 A 
ATOM     26  C   LIG    1        0.108  -6.279   6.175  0.00  0.00    +0.020 A 
ATOM     27  C   LIG    1        0.834  -6.091   7.337  0.00  0.00    +0.020 A 
ATOM     28  C   LIG    1        0.200  -5.676   8.493  0.00  0.00    +0.020 A 
ATOM     29  C   LIG    1       -1.162  -5.447   8.492  0.00  0.00    +0.040 A 
ENDBRANCH  22  24
ENDBRANCH  19  22
ENDBRANCH   4  19
TORSDOF 6
