REMARK  Name = ZINC9p0000006kvS.0
REMARK                            x       y       z     vdW  Elec       q    Type
REMARK                         _______ _______ _______ _____ _____    ______ ____
ROOT
ATOM      1  C   LIG    1        0.120   2.510  -2.060  0.00  0.00    +0.040 C 
ATOM      2  C   LIG    1       -0.784   1.609  -1.216  0.00  0.00    -0.060 C 
ATOM      3  C   LIG    1       -1.978   2.421  -0.670  0.00  0.00    +0.050 C 
ATOM      4  C   LIG    1       -1.531   2.845   0.750  0.00  0.00    +0.050 C 
ATOM      5  C   LIG    1       -0.763   1.597   1.255  0.00  0.00    +0.050 C 
ATOM      6  C   LIG    1       -1.741   0.536   1.764  0.00  0.00    +0.100 C 
ATOM      7  C   LIG    1       -1.288   0.436  -2.059  0.00  0.00    +0.040 C 
ATOM      8  C   LIG    1       -0.013   1.086   0.008  0.00  0.00    +0.060 C 
ENDROOT
BRANCH   5   9
ATOM      9  N   LIG    1        0.189   1.970   2.311  0.00  0.00    -0.630 N 
ATOM     10  H   LIG    1        0.739   1.164   2.567  0.00  0.00    +0.430 HD
ATOM     11  H   LIG    1       -0.318   2.302   3.118  0.00  0.00    +0.430 HD
ATOM     12  H   LIG    1        0.797   2.700   1.972  0.00  0.00    +0.430 HD
ENDBRANCH   5   9
TORSDOF 1
