REMARK  Name = ZINCpk000000mYbJ.0
REMARK                            x       y       z     vdW  Elec       q    Type
REMARK                         _______ _______ _______ _____ _____    ______ ____
ROOT
ATOM      1  C   LIG    1       -2.418   1.183   0.113  0.00  0.00    +0.150 A 
ATOM      2  C   LIG    1       -3.602   1.908   0.127  0.00  0.00    +0.040 A 
ATOM      3  C   LIG    1       -4.822   1.250   0.203  0.00  0.00    +0.150 A 
ATOM      4  C   LIG    1       -4.862  -0.134   0.275  0.00  0.00    +0.090 A 
ATOM      5  C   LIG    1       -3.674  -0.866   0.267  0.00  0.00    -0.090 A 
ATOM      6  C   LIG    1       -2.450  -0.201   0.185  0.00  0.00    +0.050 A 
ENDROOT
BRANCH   1   9
ATOM      7  C   LIG    1        0.198   3.776  -0.664  0.00  0.00    +0.110 C 
ATOM      8  C   LIG    1       -1.091   2.994  -0.675  0.00  0.00    +0.510 C 
ATOM      9  N   LIG    1       -1.190   1.850   0.032  0.00  0.00    -0.670 N 
ATOM     10  H   LIG    1       -0.412   1.490   0.484  0.00  0.00    +0.420 HD
ATOM     11  O   LIG    1       -2.039   3.395  -1.316  0.00  0.00    -0.520 OA
ENDBRANCH   1   9
BRANCH   3  12
ATOM     12  N   LIG    1       -6.013   1.985   0.211  0.00  0.00    -0.670 N 
ATOM     13  H   LIG    1       -6.087   2.795  -0.317  0.00  0.00    +0.420 HD
ATOM     14  C   LIG    1       -7.057   1.568   0.954  0.00  0.00    +0.510 C 
ATOM     15  O   LIG    1       -6.995   0.513   1.549  0.00  0.00    -0.520 OA
ATOM     16  C   LIG    1       -8.302   2.412   1.046  0.00  0.00    +0.110 C 
ENDBRANCH   3  12
BRANCH   5  17
ATOM     17  C   LIG    1       -3.713  -2.341   0.344  0.00  0.00    +0.520 C 
ATOM     18  O   LIG    1       -2.678  -2.977   0.337  0.00  0.00    -0.500 OA
BRANCH  17  19
ATOM     19  O   LIG    1       -4.896  -2.981   0.423  0.00  0.00    -0.320 OA
BRANCH  19  20
ATOM     20  C   LIG    1       -4.857  -4.430   0.496  0.00  0.00    +0.190 C 
ATOM     21  C   LIG    1       -4.789  -4.865   1.961  0.00  0.00    +0.070 C 
BRANCH  20  22
ATOM     22  C   LIG    1       -6.100  -4.998  -0.139  0.00  0.00    +0.520 C 
ATOM     23  N   LIG    1       -6.283  -6.333  -0.186  0.00  0.00    -0.700 N 
ATOM     24  H   LIG    1       -5.615  -6.928   0.188  0.00  0.00    +0.400 HD
ATOM     25  O   LIG    1       -6.936  -4.255  -0.607  0.00  0.00    -0.510 OA
BRANCH  23  26
ATOM     26  C   LIG    1       -7.492  -6.885  -0.804  0.00  0.00    +0.220 C 
ATOM     27  C   LIG    1       -8.199  -8.028  -0.073  0.00  0.00    +0.010 C 
ATOM     28  C   LIG    1       -7.415  -8.309  -1.357  0.00  0.00    +0.020 C 
ENDBRANCH  23  26
ENDBRANCH  20  22
ENDBRANCH  19  20
ENDBRANCH  17  19
ENDBRANCH   5  17
TORSDOF 7
