REMARK  Name = ZINCqH0000038B4r.0
REMARK                            x       y       z     vdW  Elec       q    Type
REMARK                         _______ _______ _______ _____ _____    ______ ____
ROOT
ATOM      1  N   LIG    1       -3.057  -3.291  -1.572  0.00  0.00    -1.050 N 
ATOM      2  H   LIG    1       -3.873  -2.898  -1.921  0.00  0.00    +0.430 HD
ENDROOT
BRANCH   1   7
ATOM      3  C   LIG    1       -1.142  -4.412  -4.511  0.00  0.00    +0.000 A 
ATOM      4  C   LIG    1       -0.634  -5.622  -4.042  0.00  0.00    +0.060 A 
ATOM      5  C   LIG    1       -0.932  -6.047  -2.762  0.00  0.00    +0.040 A 
ATOM      6  C   LIG    1       -1.734  -5.276  -1.943  0.00  0.00    +0.020 A 
ATOM      7  C   LIG    1       -2.246  -4.068  -2.403  0.00  0.00    +0.140 A 
ATOM      8  C   LIG    1       -1.955  -3.637  -3.688  0.00  0.00    +0.050 A 
BRANCH   3  12
ATOM      9  C   LIG    1        0.779  -4.335  -9.116  0.00  0.00    +0.210 C 
ATOM     10  C   LIG    1        0.015  -3.930  -7.882  0.00  0.00    +0.290 A 
ATOM     11  N   LIG    1       -0.060  -4.612  -6.770  0.00  0.00    -0.530 NA
ATOM     12  C   LIG    1       -0.823  -3.955  -5.886  0.00  0.00    +0.270 A 
ATOM     13  N   LIG    1       -1.246  -2.840  -6.440  0.00  0.00    -0.300 NA
ATOM     14  N   LIG    1       -0.707  -2.804  -7.737  0.00  0.00    -0.480 N 
ATOM     15  H   LIG    1       -0.834  -2.106  -8.399  0.00  0.00    +0.440 HD
ENDBRANCH   3  12
ENDBRANCH   1   7
BRANCH   1  16
ATOM     16  S   LIG    1       -2.627  -3.042   0.007  0.00  0.00    +2.690 S 
ATOM     17  O   LIG    1       -3.623  -2.196   0.566  0.00  0.00    -0.950 OA
ATOM     18  O   LIG    1       -2.302  -4.318   0.541  0.00  0.00    -0.940 OA
BRANCH  16  19
ATOM     19  C   LIG    1       -1.131  -2.110  -0.001  0.00  0.00    -0.670 A 
ATOM     20  C   LIG    1       -1.189  -0.750   0.008  0.00  0.00    +0.170 A 
ATOM     21  C   LIG    1        0.002  -0.004   0.002  0.00  0.00    -0.080 A 
ATOM     22  C   LIG    1       -0.017   1.401   0.010  0.00  0.00    +0.040 A 
ATOM     23  C   LIG    1        1.157   2.090   0.002  0.00  0.00    +0.010 A 
ATOM     24  C   LIG    1        2.380   1.424  -0.012  0.00  0.00    +0.040 A 
ATOM     25  C   LIG    1        2.437   0.064  -0.020  0.00  0.00    +0.010 A 
ATOM     26  C   LIG    1        1.247  -0.682  -0.013  0.00  0.00    -0.010 A 
ATOM     27  C   LIG    1        1.266  -2.087  -0.022  0.00  0.00    +0.020 A 
ATOM     28  C   LIG    1        0.092  -2.777  -0.015  0.00  0.00    +0.100 A 
ENDBRANCH  16  19
ENDBRANCH   1  16
TORSDOF 4
