REMARK  Name = ZINCpk000000pKJD.0
REMARK                            x       y       z     vdW  Elec       q    Type
REMARK                         _______ _______ _______ _____ _____    ______ ____
ROOT
ATOM      1  C   LIG    1       -0.489  -7.305   3.537  0.00  0.00    +0.240 C 
ATOM      2  C   LIG    1       -1.861  -7.760   4.086  0.00  0.00    +0.170 C 
ATOM      3  S   LIG    1       -2.994  -7.186   2.752  0.00  0.00    -0.240 S 
ATOM      4  C   LIG    1       -1.754  -7.438   1.415  0.00  0.00    +0.400 C 
ATOM      5  N   LIG    1       -0.481  -7.125   2.094  0.00  0.00    -0.980 NA
ENDROOT
BRANCH   1   8
ATOM      6  N   LIG    1        0.733  -8.677   5.194  0.00  0.00    -0.720 N 
ATOM      7  H   LIG    1        0.198  -8.260   5.887  0.00  0.00    +0.400 HD
ATOM      8  C   LIG    1        0.549  -8.335   3.903  0.00  0.00    +0.500 C 
ATOM      9  O   LIG    1        1.218  -8.855   3.036  0.00  0.00    -0.500 OA
BRANCH   6  10
ATOM     10  C   LIG    1        1.742  -9.678   5.549  0.00  0.00    +0.230 C 
ATOM     11  C   LIG    1        3.107  -9.000   5.687  0.00  0.00    +0.030 C 
BRANCH  10  13
ATOM     12  C   LIG    1        0.059 -11.117   6.706  0.00  0.00    +0.020 C 
ATOM     13  C   LIG    1        1.363 -10.335   6.878  0.00  0.00    +0.020 C 
ENDBRANCH  10  13
ENDBRANCH   6  10
ENDBRANCH   1   8
BRANCH   5  14
ATOM     14  S   LIG    1        0.862  -6.612   1.270  0.00  0.00    +2.700 S 
ATOM     15  O   LIG    1        1.980  -6.937   2.084  0.00  0.00    -0.910 OA
ATOM     16  O   LIG    1        0.713  -7.073  -0.066  0.00  0.00    -0.940 OA
BRANCH  14  17
ATOM     17  C   LIG    1        0.790  -4.853   1.201  0.00  0.00    -0.660 A 
ATOM     18  C   LIG    1        1.371  -4.100   2.206  0.00  0.00    +0.120 A 
ATOM     19  C   LIG    1        1.320  -2.722   2.157  0.00  0.00    +0.080 A 
ATOM     20  C   LIG    1        0.680  -2.088   1.091  0.00  0.00    -0.070 A 
ATOM     21  C   LIG    1        0.091  -2.854   0.083  0.00  0.00    +0.070 A 
ATOM     22  C   LIG    1        0.154  -4.231   0.141  0.00  0.00    +0.120 A 
BRANCH  20  23
ATOM     23  C   LIG    1        0.620  -0.613   1.032  0.00  0.00    +0.500 C 
ATOM     24  O   LIG    1        1.129   0.051   1.913  0.00  0.00    -0.490 OA
BRANCH  23  25
ATOM     25  O   LIG    1        0.002  -0.004   0.002  0.00  0.00    -0.350 OA
ATOM     26  C   LIG    1       -0.018   1.448   0.010  0.00  0.00    +0.290 C 
ENDBRANCH  23  25
ENDBRANCH  20  23
ENDBRANCH  14  17
ENDBRANCH   5  14
TORSDOF 7
