REMARK  Name = ZINCrD00000hQ4M4.1
REMARK                            x       y       z     vdW  Elec       q    Type
REMARK                         _______ _______ _______ _____ _____    ______ ____
ROOT
ATOM      1  N   LIG    1        1.147   4.078   1.397  0.00  0.00    -0.530 NA
ATOM      2  C   LIG    1        2.150   3.365   2.199  0.00  0.00    +0.170 C 
ATOM      3  C   LIG    1        2.027   3.788   3.665  0.00  0.00    +0.020 C 
ATOM      4  C   LIG    1        2.240   5.301   3.774  0.00  0.00    +0.230 C 
ATOM      5  C   LIG    1        1.214   6.018   2.892  0.00  0.00    +0.040 C 
ATOM      6  C   LIG    1        1.360   5.530   1.449  0.00  0.00    +0.180 C 
ENDROOT
BRANCH   4   7
ATOM      7  N   LIG    1        2.068   5.721   5.167  0.00  0.00    -0.720 N 
ATOM      8  H   LIG    1        1.207   6.051   5.471  0.00  0.00    +0.400 HD
ATOM      9  C   LIG    1        3.104   5.651   6.026  0.00  0.00    +0.570 C 
ATOM     10  O   LIG    1        4.182   5.238   5.645  0.00  0.00    -0.530 OA
BRANCH   9  11
ATOM     11  C   LIG    1        2.930   6.075   7.431  0.00  0.00    -0.180 A 
ATOM     12  C   LIG    1        1.699   6.556   7.879  0.00  0.00    +0.320 A 
ATOM     13  N   LIG    1        1.541   6.928   9.133  0.00  0.00    -0.470 NA
ATOM     14  C   LIG    1        2.530   6.876  10.005  0.00  0.00    +0.330 A 
ATOM     15  C   LIG    1        3.783   6.416   9.638  0.00  0.00    -0.160 A 
ATOM     16 BR   LIG    1        5.185   6.349  10.905  0.00  0.00    -0.020 Br
ATOM     17  C   LIG    1        3.998   6.006   8.333  0.00  0.00    +0.170 A 
ENDBRANCH   9  11
ENDBRANCH   4   7
BRANCH   1  18
ATOM     18  C   LIG    1        1.143   3.596   0.010  0.00  0.00    +0.230 C 
BRANCH  18  21
ATOM     19  C   LIG    1        2.405   0.035  -0.021  0.00  0.00    +0.110 A 
ATOM     20  C   LIG    1        2.379   1.420  -0.013  0.00  0.00    -0.060 A 
ATOM     21  C   LIG    1        1.169   2.089   0.002  0.00  0.00    -0.050 A 
ATOM     22  C   LIG    1       -0.017   1.379   0.010  0.00  0.00    +0.010 A 
ATOM     23  C   LIG    1        0.002  -0.004   0.002  0.00  0.00    +0.030 A 
ATOM     24  C   LIG    1        1.211  -0.680  -0.013  0.00  0.00    +0.080 A 
BRANCH  24  25
ATOM     25  O   LIG    1        1.231  -2.040  -0.021  0.00  0.00    -0.490 OA
ATOM     26  H   LIG    1        1.229  -2.428  -0.907  0.00  0.00    +0.390 HD
ENDBRANCH  24  25
BRANCH  19  27
ATOM     27  O   LIG    1        3.594  -0.624  -0.035  0.00  0.00    -0.310 OA
BRANCH  27  29
ATOM     28  C   LIG    1        6.008  -0.736  -0.059  0.00  0.00    +0.070 C 
ATOM     29  C   LIG    1        4.779   0.175  -0.042  0.00  0.00    +0.170 C 
ENDBRANCH  27  29
ENDBRANCH  19  27
ENDBRANCH  18  21
ENDBRANCH   1  18
TORSDOF 7
