REMARK  Name = ZINCrH000004jGNy.0
REMARK                            x       y       z     vdW  Elec       q    Type
REMARK                         _______ _______ _______ _____ _____    ______ ____
ROOT
ATOM      1  C   LIG    1       -4.868   1.256   1.415  0.00  0.00    -0.700 A 
ATOM      2  C   LIG    1       -4.135   1.528   2.555  0.00  0.00    +0.140 A 
ATOM      3  C   LIG    1       -2.759   1.625   2.481  0.00  0.00    +0.000 A 
ATOM      4  C   LIG    1       -2.114   1.449   1.263  0.00  0.00    +0.210 A 
ATOM      5  C   LIG    1       -2.849   1.173   0.121  0.00  0.00    -0.140 A 
ATOM      6  C   LIG    1       -2.183   0.970  -1.214  0.00  0.00    +0.090 C 
ATOM      7  C   LIG    1       -0.789   1.597  -1.217  0.00  0.00    +0.030 C 
ATOM      8  C   LIG    1       -0.015   1.090   0.006  0.00  0.00    +0.280 C 
ATOM      9  N   LIG    1       -0.716   1.559   1.209  0.00  0.00    -0.560 N 
ATOM     10  C   LIG    1       -0.028   2.086   2.241  0.00  0.00    +0.520 C 
ATOM     11  O   LIG    1       -0.622   2.571   3.181  0.00  0.00    -0.490 OA
ATOM     12  C   LIG    1       -4.228   1.079   0.203  0.00  0.00    +0.140 A 
ENDROOT
BRANCH   1  13
ATOM     13  S   LIG    1       -6.624   1.135   1.508  0.00  0.00    +2.700 S 
ATOM     14  O   LIG    1       -7.114   1.406   0.202  0.00  0.00    -0.950 OA
ATOM     15  O   LIG    1       -7.017   1.875   2.655  0.00  0.00    -0.950 OA
BRANCH  13  17
ATOM     16  C   LIG    1       -7.102  -0.911   3.211  0.00  0.00    +0.290 C 
ATOM     17  N   LIG    1       -6.990  -0.449   1.826  0.00  0.00    -1.010 NA
ATOM     18  C   LIG    1       -7.201  -1.388   0.721  0.00  0.00    +0.300 C 
ENDBRANCH  13  17
ENDBRANCH   1  13
BRANCH  10  19
ATOM     19  C   LIG    1        1.479   2.073   2.228  0.00  0.00    +0.130 C 
BRANCH  19  20
ATOM     20  C   LIG    1        1.998   2.595   3.543  0.00  0.00    -0.060 A 
ATOM     21  C   LIG    1        2.246   3.945   3.701  0.00  0.00    +0.060 A 
ATOM     22  C   LIG    1        2.717   4.425   4.909  0.00  0.00    +0.060 A 
ATOM     23  C   LIG    1        2.950   3.553   5.956  0.00  0.00    -0.030 A 
ATOM     24  C   LIG    1        2.706   2.199   5.796  0.00  0.00    -0.030 A 
ATOM     25 CL   LIG    1        2.999   1.102   7.110  0.00  0.00    -0.040 Cl
ATOM     26 CL   LIG    1        3.549   4.154   7.471  0.00  0.00    -0.040 Cl
ATOM     27  C   LIG    1        2.230   1.721   4.589  0.00  0.00    +0.060 A 
ENDBRANCH  19  20
ENDBRANCH  10  19
TORSDOF 4
