REMARK  Name = ZINCb80000001CJW.0
REMARK                            x       y       z     vdW  Elec       q    Type
REMARK                         _______ _______ _______ _____ _____    ______ ____
ROOT
ATOM      1  N   LIG    1        0.002  -0.004   0.002  0.00  0.00    -0.710 N 
ATOM      2  H   LIG    1        0.849  -0.478  -0.009  0.00  0.00    +0.410 HD
ATOM      3  C   LIG    1       -1.156  -0.694   0.009  0.00  0.00    +0.580 C 
ATOM      4  O   LIG    1       -2.216  -0.101   0.023  0.00  0.00    -0.530 OA
ENDROOT
BRANCH   3   5
ATOM      5  C   LIG    1       -1.136  -2.175   0.001  0.00  0.00    +0.020 A 
ATOM      6  C   LIG    1       -2.333  -2.894   0.015  0.00  0.00    +0.100 A 
ATOM      7  C   LIG    1       -2.259  -4.280   0.002  0.00  0.00    +0.040 A 
ATOM      8  C   LIG    1       -1.004  -4.866  -0.014  0.00  0.00    +0.240 A 
ATOM      9  N   LIG    1        0.080  -4.109  -0.020  0.00  0.00    -0.240 NA
ATOM     10  N   LIG    1        0.021  -2.827  -0.013  0.00  0.00    -0.210 NA
ENDBRANCH   3   5
BRANCH   1  12
ATOM     11  C   LIG    1        1.418   1.990  -0.001  0.00  0.00    +0.030 C 
ATOM     12  C   LIG    1       -0.018   1.461   0.010  0.00  0.00    +0.250 C 
ENDBRANCH   1  12
TORSDOF 2
