REMARK  Name = ZINCrH000004uBeC.0
REMARK                            x       y       z     vdW  Elec       q    Type
REMARK                         _______ _______ _______ _____ _____    ______ ____
ROOT
ATOM      1  O   LIG    1       -4.747  -0.356   0.726  0.00  0.00    -0.530 OA
ATOM      2  C   LIG    1       -4.064   0.043   1.649  0.00  0.00    +0.560 C 
ATOM      3  N   LIG    1       -2.927   0.722   1.401  0.00  0.00    -0.720 N 
ATOM      4  H   LIG    1       -2.382   1.041   2.138  0.00  0.00    +0.400 HD
ENDROOT
BRANCH   2   5
ATOM      5  C   LIG    1       -4.481  -0.217   3.044  0.00  0.00    -0.130 A 
ATOM      6  C   LIG    1       -3.696   0.235   4.106  0.00  0.00    +0.040 A 
ATOM      7  C   LIG    1       -4.093  -0.007   5.404  0.00  0.00    +0.030 A 
ATOM      8  C   LIG    1       -5.261  -0.705   5.656  0.00  0.00    -0.080 A 
ATOM      9  C   LIG    1       -6.041  -1.160   4.607  0.00  0.00    +0.020 A 
ATOM     10  C   LIG    1       -5.658  -0.920   3.304  0.00  0.00    +0.080 A 
BRANCH   8  11
ATOM     11  C   LIG    1       -5.685  -0.970   7.077  0.00  0.00    +0.340 C 
BRANCH  11  12
ATOM     12  N   LIG    1       -5.117  -2.243   7.527  0.00  0.00    -0.620 N 
ATOM     13  C   LIG    1       -5.781  -3.543   7.384  0.00  0.00    +0.260 C 
ATOM     14  C   LIG    1       -4.666  -4.598   7.577  0.00  0.00    +0.040 C 
ATOM     15  C   LIG    1       -3.650  -3.823   8.447  0.00  0.00    +0.050 C 
ATOM     16  C   LIG    1       -3.921  -2.369   8.129  0.00  0.00    +0.520 C 
ATOM     17  O   LIG    1       -3.170  -1.451   8.381  0.00  0.00    -0.530 OA
ENDBRANCH  11  12
ENDBRANCH   8  11
ENDBRANCH   2   5
BRANCH   3  18
ATOM     18  C   LIG    1       -2.514   0.980   0.019  0.00  0.00    +0.320 C 
BRANCH  18  19
ATOM     19  C   LIG    1       -1.219   1.751   0.017  0.00  0.00    -0.080 A 
ATOM     20  C   LIG    1       -0.013   1.076   0.008  0.00  0.00    +0.040 A 
ATOM     21  C   LIG    1        1.175   1.783   0.000  0.00  0.00    +0.070 A 
ATOM     22  C   LIG    1        1.156   3.165   0.008  0.00  0.00    -0.170 A 
ATOM     23  C   LIG    1       -0.050   3.840   0.023  0.00  0.00    +0.070 A 
ATOM     24  C   LIG    1       -1.238   3.133   0.030  0.00  0.00    +0.040 A 
BRANCH  22  25
ATOM     25  C   LIG    1        2.451   3.937  -0.001  0.00  0.00    +0.510 C 
ATOM     26  F   LIG    1        3.442   3.191   0.646  0.00  0.00    -0.180 F 
ATOM     27  F   LIG    1        2.273   5.153   0.667  0.00  0.00    -0.180 F 
ATOM     28  F   LIG    1        2.839   4.182  -1.322  0.00  0.00    -0.170 F 
ENDBRANCH  22  25
ENDBRANCH  18  19
ENDBRANCH   3  18
TORSDOF 6
