REMARK  Name = ZINCqH0000033JfV.0
REMARK                            x       y       z     vdW  Elec       q    Type
REMARK                         _______ _______ _______ _____ _____    ______ ____
ROOT
ATOM      1  C   LIG    1        7.341   3.993   0.173  0.00  0.00    +0.320 C 
ENDROOT
BRANCH   1   4
ATOM      2  N   LIG    1        4.875   4.002  -0.020  0.00  0.00    -0.660 N 
ATOM      3  H   LIG    1        4.913   4.968  -0.092  0.00  0.00    +0.410 HD
ATOM      4  C   LIG    1        6.014   3.287   0.067  0.00  0.00    +0.510 C 
ATOM      5  O   LIG    1        5.971   2.075   0.060  0.00  0.00    -0.520 OA
BRANCH   2   9
ATOM      6  C   LIG    1        1.185   2.059   0.017  0.00  0.00    +0.120 A 
ATOM      7  C   LIG    1        1.353   3.215  -0.732  0.00  0.00    -0.060 A 
ATOM      8  C   LIG    1        2.573   3.862  -0.740  0.00  0.00    +0.030 A 
ATOM      9  C   LIG    1        3.635   3.349  -0.007  0.00  0.00    +0.100 A 
ATOM     10  C   LIG    1        3.468   2.189   0.737  0.00  0.00    +0.060 A 
ATOM     11  C   LIG    1        2.246   1.546   0.749  0.00  0.00    +0.010 A 
BRANCH   6  12
ATOM     12  O   LIG    1       -0.017   1.425   0.028  0.00  0.00    -0.320 OA
BRANCH  12  14
ATOM     13  C   LIG    1       -2.332   1.161  -0.613  0.00  0.00    +0.070 C 
ATOM     14  C   LIG    1       -1.065   2.008  -0.749  0.00  0.00    +0.170 C 
ENDBRANCH  12  14
ENDBRANCH   6  12
ENDBRANCH   2   9
ENDBRANCH   1   4
BRANCH   1  15
ATOM     15  N   LIG    1        8.416   3.002   0.255  0.00  0.00    -0.720 N 
ATOM     16  H   LIG    1        8.206   2.055   0.236  0.00  0.00    +0.410 HD
ATOM     17  C   LIG    1        9.698   3.405   0.357  0.00  0.00    +0.570 C 
ATOM     18  O   LIG    1        9.962   4.591   0.381  0.00  0.00    -0.540 OA
BRANCH  17  19
ATOM     19  C   LIG    1       10.784   2.405   0.439  0.00  0.00    -0.140 A 
ATOM     20  C   LIG    1       10.484   1.042   0.418  0.00  0.00    +0.050 A 
ATOM     21  C   LIG    1       11.502   0.113   0.490  0.00  0.00    +0.000 A 
ATOM     22  C   LIG    1       12.817   0.531   0.594  0.00  0.00    -0.040 A 
ATOM     23  C   LIG    1       13.120   1.881   0.622  0.00  0.00    +0.000 A 
ATOM     24  C   LIG    1       12.112   2.819   0.545  0.00  0.00    +0.090 A 
BRANCH  22  25
ATOM     25  C   LIG    1       13.923  -0.489   0.678  0.00  0.00    +0.020 C 
ATOM     26  C   LIG    1       13.689  -1.726  -0.204  0.00  0.00    +0.030 C 
ATOM     27  C   LIG    1       14.255  -2.563   0.955  0.00  0.00    +0.010 C 
ATOM     28  C   LIG    1       13.805  -1.428   1.890  0.00  0.00    +0.020 C 
ENDBRANCH  22  25
ENDBRANCH  17  19
ENDBRANCH   1  15
TORSDOF 7
