REMARK  Name = ZINCah0000001hPF.0
REMARK                            x       y       z     vdW  Elec       q    Type
REMARK                         _______ _______ _______ _____ _____    ______ ____
ROOT
ATOM      1  C   LIG    1        2.380   1.409  -0.014  0.00  0.00    +0.130 A 
ATOM      2  C   LIG    1        1.170   2.086   0.002  0.00  0.00    -0.080 A 
ATOM      3  C   LIG    1       -0.017   1.378   0.010  0.00  0.00    +0.050 A 
ATOM      4  C   LIG    1        0.002  -0.004   0.002  0.00  0.00    -0.030 A 
ATOM      5  C   LIG    1        1.208  -0.681  -0.013  0.00  0.00    +0.080 A 
ATOM      6  C   LIG    1        2.396   0.022  -0.021  0.00  0.00    -0.130 A 
ENDROOT
BRANCH   1   8
ATOM      7  C   LIG    1        3.456   3.530  -0.013  0.00  0.00    +0.250 C 
ATOM      8  O   LIG    1        3.548   2.104  -0.021  0.00  0.00    -0.320 OA
ENDBRANCH   1   8
BRANCH   6   9
ATOM      9  C   LIG    1        3.710  -0.717  -0.038  0.00  0.00    +0.250 C 
BRANCH   9  10
ATOM     10  O   LIG    1        3.464  -2.125  -0.043  0.00  0.00    -0.570 OA
ATOM     11  H   LIG    1        4.267  -2.664  -0.054  0.00  0.00    +0.380 HD
ENDBRANCH   9  10
ENDBRANCH   6   9
TORSDOF 3
