REMARK  Name = ZINCrD0000075rQa.0
REMARK                            x       y       z     vdW  Elec       q    Type
REMARK                         _______ _______ _______ _____ _____    ______ ____
ROOT
ATOM      1  C   LIG    1        2.641   5.376   0.006  0.00  0.00    +0.500 C 
ATOM      2  O   LIG    1        1.673   6.098   0.019  0.00  0.00    -0.500 OA
ENDROOT
BRANCH   1   3
ATOM      3  C   LIG    1        4.026   5.971  -0.004  0.00  0.00    -0.010 C 
ATOM      4  C   LIG    1        4.492   6.697   1.259  0.00  0.00    +0.100 C 
ATOM      5  C   LIG    1        4.139   7.496   0.003  0.00  0.00    +0.040 C 
BRANCH   5   6
ATOM      6  C   LIG    1        5.276   8.113  -0.771  0.00  0.00    -0.010 A 
ATOM      7  C   LIG    1        6.582   7.802  -0.446  0.00  0.00    +0.020 A 
ATOM      8  C   LIG    1        7.625   8.368  -1.156  0.00  0.00    +0.060 A 
ATOM      9  C   LIG    1        7.361   9.244  -2.192  0.00  0.00    +0.020 A 
ATOM     10  C   LIG    1        6.054   9.555  -2.517  0.00  0.00    +0.070 A 
ATOM     11  C   LIG    1        5.011   8.986  -1.811  0.00  0.00    -0.170 A 
BRANCH  11  12
ATOM     12  C   LIG    1        3.586   9.320  -2.170  0.00  0.00    +0.510 C 
ATOM     13  F   LIG    1        2.953   9.905  -1.068  0.00  0.00    -0.170 F 
ATOM     14  F   LIG    1        2.909   8.150  -2.530  0.00  0.00    -0.170 F 
ATOM     15  F   LIG    1        3.574  10.215  -3.244  0.00  0.00    -0.180 F 
ENDBRANCH  11  12
ENDBRANCH   5   6
ENDBRANCH   1   3
BRANCH   1  16
ATOM     16  O   LIG    1        2.483   4.043   0.000  0.00  0.00    -0.330 OA
BRANCH  16  17
ATOM     17  C   LIG    1        1.121   3.540   0.010  0.00  0.00    +0.270 C 
BRANCH  17  19
ATOM     18  O   LIG    1        2.200   1.441  -0.011  0.00  0.00    -0.440 OA
ATOM     19  C   LIG    1        1.142   2.033   0.002  0.00  0.00    +0.510 C 
ATOM     20  N   LIG    1       -0.016   1.344   0.009  0.00  0.00    -0.680 N 
ATOM     21  H   LIG    1       -0.863   1.817   0.016  0.00  0.00    +0.410 HD
ATOM     22  C   LIG    1        0.002  -0.004   0.002  0.00  0.00    +0.590 C 
ATOM     23  O   LIG    1        1.064  -0.598  -0.011  0.00  0.00    -0.450 OA
BRANCH  22  24
ATOM     24  C   LIG    1       -1.256  -0.753   0.010  0.00  0.00    -0.290 A 
ATOM     25  C   LIG    1       -1.368  -2.116  -0.002  0.00  0.00    +0.120 A 
ATOM     26  C   LIG    1       -2.670  -2.555   0.013  0.00  0.00    +0.000 A 
ATOM     27  C   LIG    1       -3.595  -1.587   0.027  0.00  0.00    -0.040 A 
ATOM     28  S   LIG    1       -2.865  -0.045   0.029  0.00  0.00    +0.210 S 
ENDBRANCH  22  24
ENDBRANCH  17  19
ENDBRANCH  16  17
ENDBRANCH   1  16
TORSDOF 7
