REMARK  Name = ZINCpe000000X6WH.0
REMARK                            x       y       z     vdW  Elec       q    Type
REMARK                         _______ _______ _______ _____ _____    ______ ____
ROOT
ATOM      1  C   LIG    1        8.370  -0.843  -0.081  0.00  0.00    +0.500 C 
ATOM      2  N   LIG    1        7.202  -0.171  -0.067  0.00  0.00    -0.730 N 
ATOM      3  H   LIG    1        7.201   0.799  -0.062  0.00  0.00    +0.410 HD
ATOM      4  O   LIG    1        8.371  -2.056  -0.087  0.00  0.00    -0.520 OA
ENDROOT
BRANCH   1   5
ATOM      5  C   LIG    1        9.674  -0.088  -0.089  0.00  0.00    +0.340 C 
BRANCH   5  15
ATOM      6  C   LIG    1       13.796  -1.637   0.991  0.00  0.00    +0.060 C 
ATOM      7  C   LIG    1       12.493  -2.438   1.016  0.00  0.00    +0.230 C 
ATOM      8  O   LIG    1       12.414  -3.256  -0.154  0.00  0.00    -0.300 OA
ATOM      9  C   LIG    1       12.140  -2.622  -1.325  0.00  0.00    +0.090 A 
ATOM     10  C   LIG    1       12.669  -3.083  -2.518  0.00  0.00    +0.030 A 
ATOM     11  C   LIG    1       12.381  -2.424  -3.700  0.00  0.00    +0.030 A 
ATOM     12  C   LIG    1       11.568  -1.307  -3.694  0.00  0.00    +0.020 A 
ATOM     13  C   LIG    1       11.034  -0.840  -2.506  0.00  0.00    +0.000 A 
ATOM     14  C   LIG    1       11.319  -1.495  -1.320  0.00  0.00    +0.100 A 
ATOM     15  N   LIG    1       10.788  -1.039  -0.104  0.00  0.00    -0.530 N 
ATOM     16  C   LIG    1       11.325  -1.486   1.052  0.00  0.00    +0.500 C 
ATOM     17  O   LIG    1       10.866  -1.125   2.115  0.00  0.00    -0.500 OA
ENDBRANCH   5  15
ENDBRANCH   1   5
BRANCH   2  18
ATOM     18  C   LIG    1        5.934  -0.904  -0.058  0.00  0.00    +0.270 C 
BRANCH  18  19
ATOM     19  C   LIG    1        4.770   0.089  -0.043  0.00  0.00    +0.290 C 
BRANCH  19  20
ATOM     20  N   LIG    1        3.502  -0.645  -0.034  0.00  0.00    -0.700 N 
ATOM     21  H   LIG    1        3.503  -1.615  -0.039  0.00  0.00    +0.420 HD
BRANCH  20  22
ATOM     22  C   LIG    1        2.303   0.046  -0.020  0.00  0.00    +0.560 A 
ATOM     23  N   LIG    1        1.165  -0.633  -0.013  0.00  0.00    -0.570 NA
ATOM     24  C   LIG    1        0.002  -0.004   0.002  0.00  0.00    +0.360 A 
ATOM     25  C   LIG    1       -0.017   1.382   0.010  0.00  0.00    -0.140 A 
ATOM     26  C   LIG    1        1.192   2.061   0.002  0.00  0.00    +0.360 A 
ATOM     27  N   LIG    1        2.320   1.371  -0.013  0.00  0.00    -0.570 NA
ENDBRANCH  20  22
ENDBRANCH  19  20
ENDBRANCH  18  19
ENDBRANCH   2  18
TORSDOF 6
