REMARK  Name = ZINCqH0000007f9F.0
REMARK                            x       y       z     vdW  Elec       q    Type
REMARK                         _______ _______ _______ _____ _____    ______ ____
ROOT
ATOM      1  S   LIG    1        0.095  -3.966   1.342  0.00  0.00    +2.440 S 
ATOM      2  O   LIG    1       -0.589  -5.211   1.361  0.00  0.00    -0.910 OA
ATOM      3  O   LIG    1       -0.131  -3.034   2.391  0.00  0.00    -0.900 OA
ENDROOT
BRANCH   1   4
ATOM      4  C   LIG    1       -0.239  -3.147  -0.241  0.00  0.00    -0.260 C 
BRANCH   4  11
ATOM      5  C   LIG    1       -2.152  -1.570   0.138  0.00  0.00    +0.150 A 
ATOM      6  C   LIG    1       -3.501  -1.254   0.063  0.00  0.00    -0.050 A 
ATOM      7  C   LIG    1       -4.392  -2.157  -0.485  0.00  0.00    +0.090 A 
ATOM      8  C   LIG    1       -3.942  -3.380  -0.947  0.00  0.00    -0.070 A 
ATOM      9  C   LIG    1       -2.598  -3.700  -0.869  0.00  0.00    +0.100 A 
ATOM     10 CL   LIG    1       -5.064  -4.516  -1.628  0.00  0.00    -0.060 Cl
ATOM     11  C   LIG    1       -1.703  -2.798  -0.327  0.00  0.00    -0.120 A 
BRANCH   5  13
ATOM     12  C   LIG    1       -1.807   0.562   1.130  0.00  0.00    +0.250 C 
ATOM     13  O   LIG    1       -1.273  -0.681   0.671  0.00  0.00    -0.300 OA
ENDBRANCH   5  13
ENDBRANCH   4  11
ENDBRANCH   1   4
BRANCH   1  14
ATOM     14  C   LIG    1        1.877  -4.288   1.229  0.00  0.00    -0.350 C 
BRANCH  14  15
ATOM     15  C   LIG    1        2.343  -4.979   2.484  0.00  0.00    +0.550 C 
ATOM     16  N   LIG    1        3.640  -5.319   2.624  0.00  0.00    -0.560 N 
ATOM     17  O   LIG    1        1.552  -5.231   3.368  0.00  0.00    -0.510 OA
BRANCH  16  18
ATOM     18  C   LIG    1        4.095  -5.862   3.831  0.00  0.00    +0.140 A 
ATOM     19  C   LIG    1        4.412  -5.027   4.894  0.00  0.00    +0.010 A 
ATOM     20  C   LIG    1        4.857  -5.567   6.085  0.00  0.00    +0.020 A 
ATOM     21  C   LIG    1        4.995  -6.936   6.216  0.00  0.00    +0.020 A 
ATOM     22  C   LIG    1        4.683  -7.770   5.158  0.00  0.00    +0.020 A 
ATOM     23  C   LIG    1        4.234  -7.237   3.966  0.00  0.00    +0.020 A 
ENDBRANCH  16  18
BRANCH  16  24
ATOM     24  C   LIG    1        4.574  -5.119   1.513  0.00  0.00    +0.220 C 
ATOM     25  C   LIG    1        5.139  -6.471   1.072  0.00  0.00    +0.030 C 
ATOM     26  C   LIG    1        5.719  -4.210   1.966  0.00  0.00    +0.030 C 
ENDBRANCH  16  24
ENDBRANCH  14  15
ENDBRANCH   1  14
TORSDOF 7
