REMARK  Name = ZINCrH000004sK9G.0
REMARK                            x       y       z     vdW  Elec       q    Type
REMARK                         _______ _______ _______ _____ _____    ______ ____
ROOT
ATOM      1  C   LIG    1       -3.900   8.325   1.222  0.00  0.00    +0.510 C 
ATOM      2  N   LIG    1       -4.824   8.855   2.049  0.00  0.00    -0.620 N 
ATOM      3  C   LIG    1       -5.068   8.249   3.360  0.00  0.00    +0.280 C 
ATOM      4  O   LIG    1       -3.698   8.827   0.137  0.00  0.00    -0.530 OA
ENDROOT
BRANCH   1   5
ATOM      5  C   LIG    1       -3.119   7.109   1.648  0.00  0.00    +0.050 C 
BRANCH   5   6
ATOM      6  C   LIG    1       -2.144   6.715   0.536  0.00  0.00    +0.130 C 
BRANCH   6  13
ATOM      7  C   LIG    1        0.615   6.725   2.095  0.00  0.00    +0.150 C 
ATOM      8  C   LIG    1       -0.145   5.502   1.649  0.00  0.00    +0.090 A 
ATOM      9  N   LIG    1        0.218   4.260   1.844  0.00  0.00    -0.290 NA
ATOM     10  N   LIG    1       -0.754   3.426   1.277  0.00  0.00    -0.380 N 
ATOM     11  C   LIG    1       -1.715   4.210   0.745  0.00  0.00    +0.090 A 
ATOM     12  C   LIG    1       -2.957   3.735   0.036  0.00  0.00    +0.140 C 
ATOM     13  C   LIG    1       -1.363   5.498   0.961  0.00  0.00    -0.230 A 
BRANCH  10  14
ATOM     14  C   LIG    1       -0.734   1.961   1.269  0.00  0.00    +0.350 C 
BRANCH  14  15
ATOM     15  C   LIG    1       -0.018   1.468   0.010  0.00  0.00    +0.190 C 
BRANCH  15  16
ATOM     16  C   LIG    1        0.002  -0.004   0.002  0.00  0.00    +0.200 C 
ATOM     17  N   LIG    1        0.018  -1.140  -0.004  0.00  0.00    -0.420 NA
ENDBRANCH  15  16
ENDBRANCH  14  15
ENDBRANCH  10  14
ENDBRANCH   6  13
ENDBRANCH   5   6
ENDBRANCH   1   5
BRANCH   2  18
ATOM     18  C   LIG    1       -5.584  10.038   1.635  0.00  0.00    +0.400 C 
BRANCH  18  19
ATOM     19  C   LIG    1       -6.838   9.604   0.921  0.00  0.00    -0.030 A 
ATOM     20  C   LIG    1       -8.030   9.366   1.498  0.00  0.00    -0.040 A 
ATOM     21  C   LIG    1       -8.916   8.986   0.464  0.00  0.00    -0.060 A 
ATOM     22  C   LIG    1       -8.214   9.015  -0.683  0.00  0.00    +0.030 A 
ATOM     23  O   LIG    1       -6.957   9.396  -0.401  0.00  0.00    -0.160 OA
BRANCH  22  24
ATOM     24  C   LIG    1       -8.748   8.685  -2.052  0.00  0.00    +0.040 C 
ATOM     25  C   LIG    1       -7.740   8.580  -3.198  0.00  0.00    +0.030 C 
ATOM     26  C   LIG    1       -8.687   9.780  -3.118  0.00  0.00    -0.030 C 
ATOM     27  C   LIG    1       -8.087  11.128  -2.712  0.00  0.00    +0.050 C 
ENDBRANCH  22  24
ENDBRANCH  18  19
ENDBRANCH   2  18
TORSDOF 9
