REMARK  Name = ZINCrg000000q99T.0
REMARK                            x       y       z     vdW  Elec       q    Type
REMARK                         _______ _______ _______ _____ _____    ______ ____
ROOT
ATOM      1  C   LIG    1        2.751   4.157   0.011  0.00  0.00    +0.690 C 
ATOM      2  N   LIG    1        3.530   5.257   0.002  0.00  0.00    -0.600 N 
ATOM      3  C   LIG    1        2.930   6.598   0.005  0.00  0.00    +0.280 C 
ATOM      4  C   LIG    1        3.504   7.397  -1.169  0.00  0.00    +0.020 C 
ATOM      5  C   LIG    1        5.032   7.392  -1.086  0.00  0.00    +0.030 C 
ATOM      6  C   LIG    1        5.545   5.953  -1.185  0.00  0.00    -0.020 C 
ATOM      7  C   LIG    1        4.994   5.138  -0.005  0.00  0.00    +0.320 C 
ATOM      8  O   LIG    1        3.260   3.050   0.009  0.00  0.00    -0.620 OA
ENDROOT
BRANCH   6   9
ATOM      9  C   LIG    1        7.051   5.951  -1.136  0.00  0.00    +0.530 C 
ATOM     10  N   LIG    1        7.762   5.947  -2.280  0.00  0.00    -0.620 N 
ATOM     11  C   LIG    1        7.095   6.055  -3.588  0.00  0.00    +0.250 C 
ATOM     12  C   LIG    1        7.787   7.169  -4.388  0.00  0.00    +0.220 C 
ATOM     13  O   LIG    1        9.195   6.923  -4.413  0.00  0.00    -0.380 OA
ATOM     14  C   LIG    1        9.817   6.948  -3.126  0.00  0.00    +0.220 C 
ATOM     15  C   LIG    1        9.229   5.828  -2.260  0.00  0.00    +0.250 C 
ATOM     16  O   LIG    1        7.623   5.954  -0.066  0.00  0.00    -0.530 OA
ENDBRANCH   6   9
BRANCH   1  21
ATOM     17  N   LIG    1       -1.114   1.823   0.047  0.00  0.00    -0.390 N 
ATOM     18  C   LIG    1        0.011   1.050   0.044  0.00  0.00    +0.340 A 
ATOM     19  C   LIG    1        1.095   1.855   0.032  0.00  0.00    -0.110 A 
ATOM     20  C   LIG    1        0.650   3.195   0.033  0.00  0.00    +0.500 A 
ATOM     21  N   LIG    1        1.418   4.280   0.024  0.00  0.00    -0.680 NA
ATOM     22  N   LIG    1       -0.723   3.169   0.046  0.00  0.00    -0.480 N 
ATOM     23  H   LIG    1       -1.313   3.939   0.050  0.00  0.00    +0.450 HD
BRANCH  17  24
ATOM     24  C   LIG    1       -2.493   1.329   0.054  0.00  0.00    +0.350 C 
BRANCH  24  25
ATOM     25  C   LIG    1       -2.937   1.036  -1.381  0.00  0.00    +0.010 C 
BRANCH  25  26
ATOM     26  C   LIG    1       -4.378   0.521  -1.374  0.00  0.00    +0.170 C 
BRANCH  26  28
ATOM     27  C   LIG    1       -6.131  -0.242  -2.819  0.00  0.00    +0.200 C 
ATOM     28  O   LIG    1       -4.792   0.247  -2.713  0.00  0.00    -0.390 OA
ENDBRANCH  26  28
ENDBRANCH  25  26
ENDBRANCH  24  25
ENDBRANCH  17  24
ENDBRANCH   1  21
TORSDOF 6
