REMARK  Name = ZINCtV00000waPsX.0
REMARK                            x       y       z     vdW  Elec       q    Type
REMARK                         _______ _______ _______ _____ _____    ______ ____
ROOT
ATOM      1  C   LIG    1       -0.640   6.195  -1.133  0.00  0.00    +0.250 C 
ATOM      2  C   LIG    1       -1.784   6.889  -0.367  0.00  0.00    +0.030 C 
ATOM      3  C   LIG    1       -1.157   7.258   1.000  0.00  0.00    +0.020 C 
ATOM      4  C   LIG    1       -0.250   6.038   1.302  0.00  0.00    +0.040 C 
ATOM      5  C   LIG    1        0.335   5.654  -0.073  0.00  0.00    +0.030 C 
ENDROOT
BRANCH   5   6
ATOM      6  C   LIG    1        0.443   4.155  -0.187  0.00  0.00    -0.040 A 
ATOM      7  C   LIG    1        1.669   3.567  -0.437  0.00  0.00    +0.020 A 
ATOM      8  C   LIG    1        1.767   2.192  -0.542  0.00  0.00    +0.080 A 
ATOM      9  C   LIG    1        0.640   1.405  -0.396  0.00  0.00    -0.180 A 
ATOM     10  C   LIG    1       -0.587   1.993  -0.151  0.00  0.00    +0.080 A 
ATOM     11  C   LIG    1       -0.684   3.368  -0.041  0.00  0.00    +0.020 A 
BRANCH   9  12
ATOM     12  C   LIG    1        0.748  -0.094  -0.510  0.00  0.00    +0.510 C 
ATOM     13  F   LIG    1        1.790  -0.421  -1.383  0.00  0.00    -0.180 F 
ATOM     14  F   LIG    1       -0.455  -0.611  -1.004  0.00  0.00    -0.180 F 
ATOM     15  F   LIG    1        1.007  -0.640   0.751  0.00  0.00    -0.180 F 
ENDBRANCH   9  12
ENDBRANCH   5   6
BRANCH   1  17
ATOM     16  C   LIG    1        0.528   8.426  -1.441  0.00  0.00    +0.330 C 
ATOM     17  N   LIG    1        0.044   7.160  -1.997  0.00  0.00    -0.550 N 
BRANCH  17  18
ATOM     18  C   LIG    1        0.231   6.879  -3.329  0.00  0.00    +0.430 A 
ATOM     19  N   LIG    1        0.826   7.650  -4.219  0.00  0.00    -0.530 NA
ATOM     20  C   LIG    1        0.775   6.965  -5.382  0.00  0.00    +0.240 A 
ATOM     21  N   LIG    1        0.163   5.834  -5.141  0.00  0.00    -0.390 NA
ATOM     22  O   LIG    1       -0.150   5.766  -3.971  0.00  0.00    +0.040 OA
BRANCH  20  23
ATOM     23  C   LIG    1        1.313   7.412  -6.691  0.00  0.00    -0.020 A 
ATOM     24  C   LIG    1        1.939   8.651  -6.803  0.00  0.00    +0.090 A 
ATOM     25  C   LIG    1        2.443   9.060  -8.021  0.00  0.00    +0.030 A 
ATOM     26  C   LIG    1        2.316   8.245  -9.133  0.00  0.00    -0.020 A 
ATOM     27  C   LIG    1        1.689   7.015  -9.028  0.00  0.00    +0.030 A 
ATOM     28 CL   LIG    1        2.945   8.768 -10.665  0.00  0.00    -0.060 Cl
ATOM     29  C   LIG    1        1.188   6.595  -7.813  0.00  0.00    +0.070 A 
ENDBRANCH  20  23
ENDBRANCH  17  18
ENDBRANCH   1  17
TORSDOF 5
