REMARK  Name = ZINCkj000005kb2V.0
REMARK                            x       y       z     vdW  Elec       q    Type
REMARK                         _______ _______ _______ _____ _____    ______ ____
ROOT
ATOM      1  C   LIG    1        3.501   0.987  -0.027  0.00  0.00    +0.610 C 
ATOM      2  N   LIG    1        4.019   2.227   0.077  0.00  0.00    -0.610 N 
ATOM      3  C   LIG    1        3.144   3.403   0.198  0.00  0.00    +0.320 C 
ATOM      4  C   LIG    1        3.611   4.228   1.408  0.00  0.00    +0.230 C 
ATOM      5  N   LIG    1        5.041   4.531   1.265  0.00  0.00    -0.470 NA
ATOM      6  C   LIG    1        5.849   3.304   1.274  0.00  0.00    +0.210 C 
ATOM      7  C   LIG    1        5.474   2.441   0.065  0.00  0.00    +0.320 C 
ATOM      8  O   LIG    1        2.297   0.835  -0.091  0.00  0.00    -0.500 OA
ENDROOT
BRANCH   5   9
ATOM      9  C   LIG    1        5.465   5.415   2.253  0.00  0.00    +0.240 C 
ATOM     10  C   LIG    1        6.524   5.088   3.099  0.00  0.00    -0.010 C 
ATOM     11  C   LIG    1        6.917   5.994   4.062  0.00  0.00    +0.370 C 
ATOM     12  N   LIG    1        6.298   7.152   4.194  0.00  0.00    -0.470 NA
ATOM     13  C   LIG    1        5.288   7.495   3.417  0.00  0.00    +0.370 C 
ATOM     14  H   LIG    1        6.593   7.768   4.883  0.00  0.00    +0.450 HD
ATOM     15  C   LIG    1        4.837   6.648   2.427  0.00  0.00    +0.020 C 
ENDBRANCH   5   9
BRANCH   1  20
ATOM     16  C   LIG    1        5.442  -3.694  -0.092  0.00  0.00    +0.180 C 
ATOM     17  C   LIG    1        5.254  -2.199  -0.090  0.00  0.00    +0.020 A 
ATOM     18  N   LIG    1        6.191  -1.297  -0.137  0.00  0.00    -0.340 NA
ATOM     19  O   LIG    1        5.741  -0.175  -0.123  0.00  0.00    +0.110 OA
ATOM     20  C   LIG    1        4.396  -0.185  -0.062  0.00  0.00    -0.100 A 
ATOM     21  C   LIG    1        4.027  -1.502  -0.039  0.00  0.00    +0.060 A 
ENDBRANCH   1  20
TORSDOF 2
