REMARK  Name = ZINCpe00000VVGtF.0
REMARK                            x       y       z     vdW  Elec       q    Type
REMARK                         _______ _______ _______ _____ _____    ______ ____
ROOT
ATOM      1  C   LIG    1        2.759  11.230  -0.144  0.00  0.00    +0.340 A 
ATOM      2  C   LIG    1        3.278   9.970   0.150  0.00  0.00    -0.030 A 
ATOM      3  C   LIG    1        3.277   9.013  -0.856  0.00  0.00    -0.060 A 
ATOM      4  C   LIG    1        2.756   9.354  -2.088  0.00  0.00    +0.030 A 
ATOM      5  N   LIG    1        2.287  10.579  -2.278  0.00  0.00    -0.190 NA
ATOM      6  C   LIG    1        2.695   8.384  -3.239  0.00  0.00    +0.120 C 
ATOM      7  C   LIG    1        3.684   7.238  -3.035  0.00  0.00    +0.300 C 
ATOM      8  N   LIG    1        3.526   6.736  -1.660  0.00  0.00    -0.610 N 
ATOM      9  C   LIG    1        3.094   5.482  -1.417  0.00  0.00    +0.510 C 
ATOM     10  O   LIG    1        2.828   4.743  -2.341  0.00  0.00    -0.510 OA
ATOM     11  C   LIG    1        3.850   7.657  -0.564  0.00  0.00    +0.350 C 
ATOM     12  N   LIG    1        2.287  11.470  -1.359  0.00  0.00    -0.300 NA
ENDROOT
BRANCH   1  14
ATOM     13  C   LIG    1        3.357  11.987   2.133  0.00  0.00    +0.300 C 
ATOM     14  N   LIG    1        2.736  12.224   0.828  0.00  0.00    -0.610 N 
ATOM     15  C   LIG    1        2.090  13.508   0.547  0.00  0.00    +0.300 C 
ENDBRANCH   1  14
BRANCH   9  16
ATOM     16  C   LIG    1        2.942   5.000   0.002  0.00  0.00    +0.390 C 
BRANCH  16  17
ATOM     17  N   LIG    1        2.463   3.615  -0.001  0.00  0.00    -0.390 N 
ATOM     18  N   LIG    1        3.250   2.454  -0.015  0.00  0.00    +0.000 NA
ATOM     19  N   LIG    1        2.486   1.419  -0.013  0.00  0.00    -0.210 NA
ATOM     20  C   LIG    1        1.190   1.793   0.000  0.00  0.00    -0.020 A 
ATOM     21  C   LIG    1       -0.013   1.076   0.008  0.00  0.00    +0.110 A 
ATOM     22  C   LIG    1       -1.203   1.742   0.017  0.00  0.00    +0.010 A 
ATOM     23  C   LIG    1       -1.239   3.131   0.029  0.00  0.00    +0.080 A 
ATOM     24  C   LIG    1       -0.071   3.859   0.023  0.00  0.00    +0.000 A 
ATOM     25  C   LIG    1        1.153   3.199   0.008  0.00  0.00    +0.100 A 
ENDBRANCH  16  17
ENDBRANCH   9  16
TORSDOF 3
