REMARK  Name = ZINCtV000002O6mK.0
REMARK                            x       y       z     vdW  Elec       q    Type
REMARK                         _______ _______ _______ _____ _____    ______ ____
ROOT
ATOM      1  O   LIG    1        2.510   4.066  -0.102  0.00  0.00    -0.560 OA
ATOM      2  C   LIG    1        3.569   3.468  -0.115  0.00  0.00    +0.710 C 
ATOM      3  N   LIG    1        4.727   4.149  -0.223  0.00  0.00    -0.740 N 
ATOM      4  H   LIG    1        5.571   3.672  -0.234  0.00  0.00    +0.400 HD
ATOM      5  N   LIG    1        3.584   2.124  -0.020  0.00  0.00    -0.680 N 
ATOM      6  H   LIG    1        4.429   1.652   0.047  0.00  0.00    +0.410 HD
ENDROOT
BRANCH   5   7
ATOM      7  C   LIG    1        2.381   1.409  -0.020  0.00  0.00    +0.160 A 
ATOM      8  C   LIG    1        2.268   0.238   0.718  0.00  0.00    -0.020 A 
ATOM      9  C   LIG    1        1.080  -0.466   0.716  0.00  0.00    +0.020 A 
ATOM     10  C   LIG    1        0.003  -0.006  -0.019  0.00  0.00    -0.090 A 
ATOM     11  C   LIG    1        0.113   1.160  -0.756  0.00  0.00    +0.030 A 
ATOM     12  C   LIG    1        1.298   1.868  -0.758  0.00  0.00    +0.010 A 
BRANCH  10  13
ATOM     13  C   LIG    1       -1.292  -0.777  -0.020  0.00  0.00    +0.040 C 
ATOM     14  C   LIG    1       -1.629  -1.207  -1.449  0.00  0.00    +0.010 C 
ATOM     15  C   LIG    1       -2.944  -1.990  -1.449  0.00  0.00    +0.000 C 
ATOM     16  C   LIG    1       -4.066  -1.102  -0.906  0.00  0.00    +0.000 C 
ATOM     17  C   LIG    1       -3.728  -0.671   0.523  0.00  0.00    +0.000 C 
ATOM     18  C   LIG    1       -2.414   0.111   0.523  0.00  0.00    +0.010 C 
ENDBRANCH  10  13
ENDBRANCH   5   7
BRANCH   3  19
ATOM     19  C   LIG    1        4.710   5.610  -0.326  0.00  0.00    +0.360 C 
BRANCH  19  20
ATOM     20  C   LIG    1        4.507   6.011  -1.765  0.00  0.00    -0.140 A 
ATOM     21  C   LIG    1        3.684   7.079  -2.087  0.00  0.00    +0.080 A 
ATOM     22  C   LIG    1        3.528   7.412  -3.424  0.00  0.00    -0.030 A 
ATOM     23  C   LIG    1        4.192   6.673  -4.384  0.00  0.00    +0.260 A 
ATOM     24  N   LIG    1        4.967   5.662  -4.041  0.00  0.00    -0.480 NA
ATOM     25  C   LIG    1        5.144   5.321  -2.779  0.00  0.00    +0.270 A 
ENDBRANCH  19  20
BRANCH  19  26
ATOM     26  C   LIG    1        6.021   6.164   0.169  0.00  0.00    -0.090 A 
ATOM     27  C   LIG    1        7.204   5.516  -0.136  0.00  0.00    +0.010 A 
ATOM     28  C   LIG    1        8.407   6.026   0.315  0.00  0.00    +0.020 A 
ATOM     29  C   LIG    1        8.427   7.178   1.079  0.00  0.00    +0.020 A 
ATOM     30  C   LIG    1        7.244   7.823   1.388  0.00  0.00    +0.020 A 
ATOM     31  C   LIG    1        6.041   7.315   0.934  0.00  0.00    +0.030 A 
ENDBRANCH  19  26
ENDBRANCH   3  19
TORSDOF 5
