REMARK  Name = ZINCrH000004tG90.0
REMARK                            x       y       z     vdW  Elec       q    Type
REMARK                         _______ _______ _______ _____ _____    ______ ____
ROOT
ATOM      1  O   LIG    1        4.820   4.873   1.965  0.00  0.00    -0.520 OA
ATOM      2  C   LIG    1        4.415   3.842   2.460  0.00  0.00    +0.510 C 
ATOM      3  N   LIG    1        3.826   2.909   1.687  0.00  0.00    -0.720 N 
ATOM      4  H   LIG    1        3.503   2.085   2.083  0.00  0.00    +0.410 HD
ENDROOT
BRANCH   3   5
ATOM      5  C   LIG    1        3.674   3.140   0.248  0.00  0.00    +0.200 C 
ATOM      6  C   LIG    1        3.524   1.798  -0.484  0.00  0.00    +0.280 C 
ATOM      7  O   LIG    1        2.361   1.124  -0.003  0.00  0.00    -0.310 OA
ATOM      8  C   LIG    1        1.180   1.785   0.000  0.00  0.00    +0.170 A 
ATOM      9  C   LIG    1       -0.013   1.076   0.008  0.00  0.00    -0.020 A 
ATOM     10  C   LIG    1       -1.218   1.749   0.017  0.00  0.00    +0.090 A 
ATOM     11  C   LIG    1       -1.255   3.134   0.031  0.00  0.00    -0.030 A 
ATOM     12  C   LIG    1       -0.082   3.859   0.021  0.00  0.00    +0.110 A 
ATOM     13  C   LIG    1        1.142   3.189   0.003  0.00  0.00    -0.240 A 
ATOM     14  C   LIG    1        2.411   3.939  -0.017  0.00  0.00    +0.390 C 
ATOM     15  O   LIG    1        2.444   5.132  -0.234  0.00  0.00    -0.420 OA
ENDBRANCH   3   5
BRANCH   2  16
ATOM     16  C   LIG    1        4.572   3.605   3.940  0.00  0.00    +0.060 C 
BRANCH  16  17
ATOM     17  C   LIG    1        5.266   4.810   4.579  0.00  0.00    +0.050 C 
BRANCH  17  18
ATOM     18  C   LIG    1        5.425   4.569   6.081  0.00  0.00    +0.080 C 
BRANCH  18  19
ATOM     19  C   LIG    1        6.109   5.755   6.711  0.00  0.00    -0.080 A 
ATOM     20  C   LIG    1        7.487   5.786   6.810  0.00  0.00    +0.050 A 
ATOM     21  C   LIG    1        8.115   6.876   7.384  0.00  0.00    +0.020 A 
ATOM     22  C   LIG    1        7.364   7.931   7.865  0.00  0.00    +0.070 A 
ATOM     23  C   LIG    1        5.985   7.898   7.771  0.00  0.00    -0.180 A 
ATOM     24  C   LIG    1        5.358   6.810   7.194  0.00  0.00    +0.070 A 
BRANCH  23  25
ATOM     25  C   LIG    1        5.166   9.049   8.297  0.00  0.00    +0.510 C 
ATOM     26  F   LIG    1        3.989   9.164   7.549  0.00  0.00    -0.180 F 
ATOM     27  F   LIG    1        5.903  10.233   8.190  0.00  0.00    -0.180 F 
ATOM     28  F   LIG    1        4.845   8.818   9.639  0.00  0.00    -0.180 F 
ENDBRANCH  23  25
ENDBRANCH  18  19
ENDBRANCH  17  18
ENDBRANCH  16  17
ENDBRANCH   2  16
TORSDOF 6
