REMARK  Name = ZINCpk00000e9AVg.0
REMARK                            x       y       z     vdW  Elec       q    Type
REMARK                         _______ _______ _______ _____ _____    ______ ____
ROOT
ATOM      1  N   LIG    1        0.088   0.945  -0.372  0.00  0.00    -0.710 N 
ATOM      2  H   LIG    1       -0.686   1.517  -0.493  0.00  0.00    +0.410 HD
ATOM      3  C   LIG    1        1.328   1.450  -0.520  0.00  0.00    +0.560 C 
ATOM      4  O   LIG    1        2.298   0.732  -0.374  0.00  0.00    -0.540 OA
ENDROOT
BRANCH   3   5
ATOM      5  C   LIG    1        1.510   2.876  -0.859  0.00  0.00    -0.140 A 
ATOM      6  C   LIG    1        0.396   3.701  -1.033  0.00  0.00    +0.080 A 
ATOM      7  C   LIG    1        0.569   5.032  -1.343  0.00  0.00    +0.000 A 
ATOM      8  C   LIG    1        1.850   5.551  -1.496  0.00  0.00    +0.180 A 
ATOM      9  C   LIG    1        2.961   4.731  -1.329  0.00  0.00    +0.030 A 
ATOM     10  C   LIG    1        2.795   3.401  -1.012  0.00  0.00    +0.120 A 
BRANCH   8  11
ATOM     11  N   LIG    1        2.022   6.901  -1.817  0.00  0.00    -0.340 N 
ATOM     12  C   LIG    1        1.051   7.815  -2.015  0.00  0.00    +0.500 A 
ATOM     13  N   LIG    1        1.622   8.959  -2.291  0.00  0.00    -0.530 NA
ATOM     14  C   LIG    1        2.947   8.816  -2.289  0.00  0.00    +0.440 A 
ATOM     15  N   LIG    1        3.240   7.574  -2.004  0.00  0.00    -0.310 NA
ENDBRANCH   8  11
ENDBRANCH   3   5
BRANCH   1  16
ATOM     16  C   LIG    1       -0.092  -0.470  -0.036  0.00  0.00    +0.280 C 
BRANCH  16  17
ATOM     17  C   LIG    1       -1.578  -0.754   0.195  0.00  0.00    +0.100 C 
ATOM     18  C   LIG    1       -1.774  -2.245   0.476  0.00  0.00    +0.020 C 
BRANCH  17  19
ATOM     19  N   LIG    1       -2.340  -0.378  -1.004  0.00  0.00    -0.530 NA
ATOM     20  C   LIG    1       -3.783  -0.557  -0.788  0.00  0.00    +0.150 C 
ATOM     21  C   LIG    1       -4.541  -0.098  -2.036  0.00  0.00    +0.220 C 
ATOM     22  O   LIG    1       -4.069  -0.829  -3.171  0.00  0.00    -0.380 OA
ATOM     23  C   LIG    1       -2.667  -0.677  -3.411  0.00  0.00    +0.220 C 
ATOM     24  C   LIG    1       -1.890  -1.142  -2.176  0.00  0.00    +0.150 C 
ENDBRANCH  17  19
BRANCH  17  26
ATOM     25  C   LIG    1       -1.195  -0.235   2.608  0.00  0.00    +0.020 C 
ATOM     26  C   LIG    1       -2.074   0.060   1.391  0.00  0.00    +0.030 C 
ENDBRANCH  17  26
ENDBRANCH  16  17
ENDBRANCH   1  16
TORSDOF 6
