REMARK  Name = ZINCkj000005lCnX.0
REMARK                            x       y       z     vdW  Elec       q    Type
REMARK                         _______ _______ _______ _____ _____    ______ ____
ROOT
ATOM      1  O   LIG    1        1.333   3.656   1.375  0.00  0.00    -0.510 OA
ATOM      2  C   LIG    1        1.999   2.933   0.664  0.00  0.00    +0.540 C 
ATOM      3  N   LIG    1        1.413   1.918  -0.001  0.00  0.00    -0.630 N 
ATOM      4  C   LIG    1        2.056   0.938  -0.909  0.00  0.00    +0.270 C 
ATOM      5  C   LIG    1        1.357  -0.405  -0.593  0.00  0.00    +0.050 C 
ATOM      6  C   LIG    1        0.002  -0.004   0.002  0.00  0.00    -0.100 C 
ATOM      7  C   LIG    1       -0.164  -0.564   1.423  0.00  0.00    +0.090 C 
ATOM      8  C   LIG    1       -1.667  -0.945   1.465  0.00  0.00    +0.270 C 
ATOM      9  N   LIG    1       -1.932  -1.449   0.092  0.00  0.00    -0.520 N 
ATOM     10  H   LIG    1       -1.618  -2.404   0.005  0.00  0.00    +0.430 HD
ATOM     11  H   LIG    1       -2.917  -1.385  -0.118  0.00  0.00    +0.440 HD
ATOM     12  C   LIG    1       -1.158  -0.572  -0.818  0.00  0.00    +0.290 C 
ATOM     13  C   LIG    1       -0.019   1.530   0.011  0.00  0.00    +0.290 C 
ENDROOT
BRANCH   2  14
ATOM     14  C   LIG    1        3.480   3.171   0.524  0.00  0.00    +0.040 C 
BRANCH  14  15
ATOM     15  C   LIG    1        3.886   4.376   1.376  0.00  0.00    +0.280 C 
BRANCH  15  16
ATOM     16  C   LIG    1        5.383   4.539   1.334  0.00  0.00    -0.130 A 
ATOM     17  C   LIG    1        5.974   5.235   0.296  0.00  0.00    +0.010 A 
ATOM     18  C   LIG    1        7.347   5.389   0.260  0.00  0.00    +0.020 A 
ATOM     19  C   LIG    1        8.131   4.838   1.256  0.00  0.00    +0.020 A 
ATOM     20  C   LIG    1        7.541   4.138   2.292  0.00  0.00    +0.010 A 
ATOM     21  C   LIG    1        6.167   3.988   2.330  0.00  0.00    +0.010 A 
ENDBRANCH  15  16
BRANCH  15  22
ATOM     22  O   LIG    1        3.264   5.555   0.862  0.00  0.00    -0.540 OA
ATOM     23  H   LIG    1        3.503   5.758  -0.053  0.00  0.00    +0.370 HD
ENDBRANCH  15  22
ENDBRANCH  14  15
ENDBRANCH   2  14
TORSDOF 4
