REMARK  Name = ZINCrH000004qrYs.0
REMARK                            x       y       z     vdW  Elec       q    Type
REMARK                         _______ _______ _______ _____ _____    ______ ____
ROOT
ATOM      1  C   LIG    1        2.799   0.794  -1.274  0.00  0.00    +0.560 C 
ATOM      2  N   LIG    1        4.052   0.609  -1.737  0.00  0.00    -0.610 N 
ATOM      3  H   LIG    1        4.620   1.374  -1.918  0.00  0.00    +0.420 HD
ATOM      4  O   LIG    1        2.087  -0.165  -1.047  0.00  0.00    -0.480 OA
ENDROOT
BRANCH   1   8
ATOM      5  C   LIG    1        3.522   5.734  -1.040  0.00  0.00    +0.160 C 
ATOM      6  C   LIG    1        2.613   4.537  -0.925  0.00  0.00    +0.210 A 
ATOM      7  C   LIG    1        3.131   3.272  -1.150  0.00  0.00    -0.010 A 
ATOM      8  C   LIG    1        2.291   2.164  -1.044  0.00  0.00    +0.000 A 
ATOM      9  C   LIG    1        0.942   2.393  -0.710  0.00  0.00    -0.200 A 
ATOM     10  C   LIG    1       -0.218   1.524  -0.510  0.00  0.00    +0.160 A 
ATOM     11  N   LIG    1       -1.227   2.288  -0.218  0.00  0.00    -0.270 NA
ATOM     12  O   LIG    1       -0.813   3.639  -0.198  0.00  0.00    -0.080 OA
ATOM     13  C   LIG    1       -0.240   0.022  -0.628  0.00  0.00    +0.210 C 
ATOM     14  C   LIG    1        0.500   3.710  -0.499  0.00  0.00    +0.300 A 
ATOM     15  N   LIG    1        1.348   4.720  -0.614  0.00  0.00    -0.460 NA
ENDBRANCH   1   8
BRANCH   2  16
ATOM     16  C   LIG    1        4.529  -0.677  -1.953  0.00  0.00    +0.230 A 
ATOM     17  N   LIG    1        5.714  -0.965  -2.394  0.00  0.00    -0.500 NA
ATOM     18  C   LIG    1        6.002  -2.244  -2.541  0.00  0.00    +0.100 A 
ATOM     19  C   LIG    1        5.014  -3.078  -2.208  0.00  0.00    -0.110 A 
ATOM     20  S   LIG    1        3.643  -2.111  -1.670  0.00  0.00    +0.250 S 
BRANCH  18  21
ATOM     21  C   LIG    1        7.339  -2.726  -3.043  0.00  0.00    +0.270 C 
BRANCH  21  22
ATOM     22  N   LIG    1        7.339  -2.725  -4.512  0.00  0.00    -0.530 NA
ATOM     23  C   LIG    1        7.239  -1.358  -5.038  0.00  0.00    +0.170 C 
ATOM     24  C   LIG    1        7.096  -1.405  -6.561  0.00  0.00    +0.020 C 
ATOM     25  C   LIG    1        8.311  -2.116  -7.162  0.00  0.00    +0.000 C 
ATOM     26  C   LIG    1        8.419  -3.520  -6.561  0.00  0.00    -0.010 C 
ATOM     27  C   LIG    1        9.666  -4.216  -7.112  0.00  0.00    +0.020 C 
ATOM     28  C   LIG    1        8.525  -3.412  -5.039  0.00  0.00    +0.170 C 
ENDBRANCH  21  22
ENDBRANCH  18  21
ENDBRANCH   2  16
TORSDOF 4
