REMARK  Name = ZINCrH00000No4UR.0
REMARK                            x       y       z     vdW  Elec       q    Type
REMARK                         _______ _______ _______ _____ _____    ______ ____
ROOT
ATOM      1  N   LIG    1       -4.128  -0.933   0.036  0.00  0.00    -1.000 NA
ATOM      2  C   LIG    1       -3.407  -1.178   1.292  0.00  0.00    +0.300 C 
ATOM      3  C   LIG    1       -2.094  -0.388   1.270  0.00  0.00    +0.040 C 
ATOM      4  C   LIG    1       -1.305  -0.754   0.011  0.00  0.00    +0.080 C 
ATOM      5  C   LIG    1       -2.118  -0.376  -1.230  0.00  0.00    +0.040 C 
ATOM      6  C   LIG    1       -3.430  -1.166  -1.236  0.00  0.00    +0.300 C 
ENDROOT
BRANCH   4   7
ATOM      7  C   LIG    1        0.002  -0.004   0.002  0.00  0.00    +0.330 A 
ATOM      8  N   LIG    1       -0.016   1.314   0.009  0.00  0.00    -0.510 NA
ATOM      9  C   LIG    1        1.109   2.013   0.002  0.00  0.00    +0.330 A 
ATOM     10  C   LIG    1        2.319   1.343  -0.013  0.00  0.00    -0.070 A 
ATOM     11  C   LIG    1        2.303  -0.055  -0.021  0.00  0.00    +0.220 A 
ATOM     12  N   LIG    1        1.129  -0.684  -0.013  0.00  0.00    -0.510 NA
BRANCH  11  13
ATOM     13  C   LIG    1        3.571  -0.824  -0.038  0.00  0.00    -0.030 A 
ATOM     14  C   LIG    1        4.792  -0.160   0.059  0.00  0.00    +0.040 A 
ATOM     15  C   LIG    1        5.970  -0.880   0.043  0.00  0.00    +0.050 A 
ATOM     16  C   LIG    1        5.941  -2.258  -0.070  0.00  0.00    +0.010 A 
ATOM     17  C   LIG    1        4.730  -2.924  -0.167  0.00  0.00    +0.100 A 
ATOM     18  F   LIG    1        4.707  -4.270  -0.276  0.00  0.00    -0.130 F 
ATOM     19  C   LIG    1        3.544  -2.213  -0.145  0.00  0.00    +0.040 A 
ENDBRANCH  11  13
ENDBRANCH   4   7
BRANCH   1  20
ATOM     20  S   LIG    1       -5.697  -0.404   0.053  0.00  0.00    +2.610 S 
ATOM     21  O   LIG    1       -6.211  -0.872   1.292  0.00  0.00    -0.950 OA
ATOM     22  O   LIG    1       -6.234  -0.860  -1.181  0.00  0.00    -0.950 OA
BRANCH  20  23
ATOM     23  C   LIG    1       -5.564   1.405   0.060  0.00  0.00    -0.370 C 
BRANCH  23  24
ATOM     24  C   LIG    1       -6.966   2.019   0.076  0.00  0.00    +0.050 C 
BRANCH  24  25
ATOM     25  C   LIG    1       -6.854   3.545   0.082  0.00  0.00    +0.060 C 
BRANCH  25  27
ATOM     26  C   LIG    1       -8.565   5.004   1.034  0.00  0.00    +0.010 C 
ATOM     27  C   LIG    1       -8.234   4.149   0.098  0.00  0.00    -0.050 C 
ENDBRANCH  25  27
ENDBRANCH  24  25
ENDBRANCH  23  24
ENDBRANCH  20  23
ENDBRANCH   1  20
TORSDOF 7
