REMARK  Name = ZINCpk00000y4sla.2
REMARK                            x       y       z     vdW  Elec       q    Type
REMARK                         _______ _______ _______ _____ _____    ______ ____
ROOT
ATOM      1  N   LIG    1       -0.838  -1.946   2.061  0.00  0.00    -0.550 NA
ATOM      2  C   LIG    1        0.565  -1.561   2.204  0.00  0.00    +0.190 C 
ATOM      3  C   LIG    1        1.306  -1.909   0.932  0.00  0.00    +0.040 C 
ATOM      4  C   LIG    1        1.306  -0.696  -0.020  0.00  0.00    +0.260 C 
ATOM      5  N   LIG    1        0.002  -0.004   0.002  0.00  0.00    -0.600 N 
ATOM      6  C   LIG    1       -1.259  -0.718   0.010  0.00  0.00    +0.300 C 
ATOM      7  C   LIG    1       -0.016   1.344   0.009  0.00  0.00    +0.510 C 
ATOM      8  O   LIG    1       -1.075   1.936   0.018  0.00  0.00    -0.520 OA
ATOM      9  C   LIG    1       -1.695  -0.989   1.470  0.00  0.00    +0.170 C 
ENDROOT
BRANCH   7  10
ATOM     10  C   LIG    1        1.278   2.115   0.001  0.00  0.00    +0.060 C 
ATOM     11  C   LIG    1        2.073   1.763  -1.257  0.00  0.00    +0.100 C 
ATOM     12  C   LIG    1        1.411   2.365  -2.467  0.00  0.00    +0.520 C 
ATOM     13  N   LIG    1        0.799   3.562  -2.393  0.00  0.00    -0.660 N 
ATOM     14  H   LIG    1        0.387   3.942  -3.184  0.00  0.00    +0.420 HD
ATOM     15  C   LIG    1        0.754   4.261  -1.183  0.00  0.00    +0.210 A 
ATOM     16  C   LIG    1        0.481   5.621  -1.173  0.00  0.00    -0.050 A 
ATOM     17  C   LIG    1        0.438   6.307   0.028  0.00  0.00    +0.140 A 
ATOM     18  C   LIG    1        0.668   5.637   1.218  0.00  0.00    -0.030 A 
ATOM     19  C   LIG    1        0.940   4.281   1.209  0.00  0.00    +0.100 A 
ATOM     20  F   LIG    1        0.172   7.632   0.040  0.00  0.00    -0.130 F 
ATOM     21  O   LIG    1        1.428   1.765  -3.520  0.00  0.00    -0.510 OA
ATOM     22  C   LIG    1        0.983   3.592   0.013  0.00  0.00    -0.120 A 
ENDBRANCH   7  10
BRANCH   1  23
ATOM     23  C   LIG    1       -1.385  -2.426   3.338  0.00  0.00    +0.190 C 
BRANCH  23  24
ATOM     24  C   LIG    1       -2.676  -3.204   3.079  0.00  0.00    +0.160 C 
BRANCH  24  26
ATOM     25  C   LIG    1       -3.524  -5.186   2.031  0.00  0.00    +0.200 C 
ATOM     26  O   LIG    1       -2.380  -4.383   2.328  0.00  0.00    -0.370 OA
ENDBRANCH  24  26
ENDBRANCH  23  24
ENDBRANCH   1  23
TORSDOF 4
