REMARK  Name = ZINCrH00000No4Ne.0
REMARK                            x       y       z     vdW  Elec       q    Type
REMARK                         _______ _______ _______ _____ _____    ______ ____
ROOT
ATOM      1  C   LIG    1        4.921   1.098  -0.045  0.00  0.00    +0.550 C 
ATOM      2  N   LIG    1        6.081   1.784  -0.059  0.00  0.00    -0.670 N 
ATOM      3  H   LIG    1        6.071   2.751  -0.133  0.00  0.00    +0.410 HD
ATOM      4  O   LIG    1        4.935  -0.120  -0.037  0.00  0.00    -0.530 OA
ENDROOT
BRANCH   2   5
ATOM      5  C   LIG    1        7.300   1.102   0.035  0.00  0.00    +0.130 A 
ATOM      6  C   LIG    1        8.366   1.674   0.717  0.00  0.00    +0.000 A 
ATOM      7  C   LIG    1        9.566   1.000   0.812  0.00  0.00    +0.040 A 
ATOM      8  C   LIG    1        9.711  -0.248   0.218  0.00  0.00    +0.130 A 
ATOM      9  C   LIG    1        8.646  -0.818  -0.467  0.00  0.00    +0.000 A 
ATOM     10  C   LIG    1        7.444  -0.145  -0.559  0.00  0.00    +0.040 A 
BRANCH   8  11
ATOM     11  N   LIG    1       10.930  -0.930   0.311  0.00  0.00    -0.670 N 
ATOM     12  H   LIG    1       11.239  -1.474  -0.430  0.00  0.00    +0.410 HD
ATOM     13  C   LIG    1       11.675  -0.831   1.430  0.00  0.00    +0.540 C 
ATOM     14  O   LIG    1       11.331  -0.085   2.323  0.00  0.00    -0.520 OA
BRANCH  13  15
ATOM     15  C   LIG    1       12.934  -1.646   1.572  0.00  0.00    -0.070 C 
ATOM     16  C   LIG    1       12.935  -2.770   2.610  0.00  0.00    +0.060 C 
ATOM     17  C   LIG    1       13.735  -1.490   2.867  0.00  0.00    +0.070 C 
ENDBRANCH  13  15
ENDBRANCH   8  11
ENDBRANCH   2   5
BRANCH   1  19
ATOM     18  C   LIG    1        2.486   1.127  -0.028  0.00  0.00    +0.140 C 
ATOM     19  C   LIG    1        3.647   1.815  -0.041  0.00  0.00    -0.090 C 
BRANCH  18  23
ATOM     20  C   LIG    1       -1.211   3.214  -0.017  0.00  0.00    +0.120 A 
ATOM     21  C   LIG    1       -0.016   3.920  -0.030  0.00  0.00    -0.040 A 
ATOM     22  C   LIG    1        1.187   3.247  -0.034  0.00  0.00    +0.040 A 
ATOM     23  C   LIG    1        1.204   1.848  -0.024  0.00  0.00    -0.080 A 
ATOM     24  C   LIG    1       -0.001   1.137  -0.010  0.00  0.00    -0.010 A 
ATOM     25  C   LIG    1       -1.201   1.819  -0.012  0.00  0.00    +0.100 A 
BRANCH  20  27
ATOM     26  C   LIG    1       -2.330   5.311  -0.025  0.00  0.00    +0.240 C 
ATOM     27  O   LIG    1       -2.393   3.883  -0.014  0.00  0.00    -0.300 OA
ENDBRANCH  20  27
BRANCH  25  28
ATOM     28  O   LIG    1       -2.375   1.132  -0.004  0.00  0.00    -0.310 OA
ATOM     29  C   LIG    1       -2.291  -0.295   0.006  0.00  0.00    +0.240 C 
ENDBRANCH  25  28
ENDBRANCH  18  23
ENDBRANCH   1  19
TORSDOF 7
