REMARK  Name = ZINCqH00000073Wj.0
REMARK                            x       y       z     vdW  Elec       q    Type
REMARK                         _______ _______ _______ _____ _____    ______ ____
ROOT
ATOM      1  C   LIG    1        1.088   2.153  -0.566  0.00  0.00    +0.250 C 
ENDROOT
BRANCH   1   3
ATOM      2  C   LIG    1        3.275   1.157  -0.969  0.00  0.00    +0.570 C 
ATOM      3  N   LIG    1        1.948   1.151  -1.200  0.00  0.00    -0.710 N 
ATOM      4  H   LIG    1        1.561   0.481  -1.786  0.00  0.00    +0.410 HD
ATOM      5  O   LIG    1        3.760   1.996  -0.233  0.00  0.00    -0.530 OA
BRANCH   2   9
ATOM      6  C   LIG    1        5.766  -1.750  -2.806  0.00  0.00    +0.160 A 
ATOM      7  C   LIG    1        6.322  -0.792  -1.966  0.00  0.00    -0.020 A 
ATOM      8  C   LIG    1        5.518   0.152  -1.368  0.00  0.00    +0.130 A 
ATOM      9  C   LIG    1        4.141   0.147  -1.607  0.00  0.00    -0.180 A 
ATOM     10  C   LIG    1        3.585  -0.821  -2.448  0.00  0.00    +0.090 A 
ATOM     11  C   LIG    1        4.397  -1.759  -3.046  0.00  0.00    -0.080 A 
BRANCH   6  13
ATOM     12  C   LIG    1        5.926  -3.634  -4.244  0.00  0.00    +0.240 C 
ATOM     13  O   LIG    1        6.562  -2.679  -3.393  0.00  0.00    -0.310 OA
ENDBRANCH   6  13
ENDBRANCH   2   9
ENDBRANCH   1   3
BRANCH   1  14
ATOM     14  C   LIG    1       -0.315   1.615  -0.456  0.00  0.00    +0.520 C 
ATOM     15  N   LIG    1       -1.231   2.267   0.287  0.00  0.00    -0.670 N 
ATOM     16  H   LIG    1       -1.016   3.131   0.673  0.00  0.00    +0.410 HD
ATOM     17  O   LIG    1       -0.622   0.598  -1.041  0.00  0.00    -0.510 OA
BRANCH  15  18
ATOM     18  C   LIG    1       -2.491   1.698   0.503  0.00  0.00    +0.150 A 
ATOM     19  C   LIG    1       -2.627   0.319   0.580  0.00  0.00    +0.000 A 
ATOM     20  C   LIG    1       -3.872  -0.240   0.798  0.00  0.00    -0.060 A 
ATOM     21  C   LIG    1       -4.982   0.573   0.930  0.00  0.00    -0.010 A 
ATOM     22  C   LIG    1       -4.851   1.947   0.848  0.00  0.00    -0.060 A 
ATOM     23  C   LIG    1       -6.064   2.830   0.991  0.00  0.00    +0.090 C 
ATOM     24  C   LIG    1       -4.020  -1.737   0.888  0.00  0.00    +0.090 C 
ATOM     25  C   LIG    1       -3.608   2.512   0.635  0.00  0.00    -0.020 A 
ENDBRANCH  15  18
ENDBRANCH   1  14
BRANCH   1  26
ATOM     26  C   LIG    1        1.081   3.428  -1.413  0.00  0.00    -0.020 C 
ATOM     27  C   LIG    1        0.667   3.085  -2.846  0.00  0.00    +0.020 C 
ATOM     28  C   LIG    1        2.481   4.043  -1.420  0.00  0.00    +0.030 C 
ENDBRANCH   1  26
TORSDOF 6
