REMARK  Name = ZINCnE000001MZh0.1
REMARK                            x       y       z     vdW  Elec       q    Type
REMARK                         _______ _______ _______ _____ _____    ______ ____
ROOT
ATOM      1  N   LIG    1       -0.016   1.344   0.009  0.00  0.00    -0.750 N 
ATOM      2  H   LIG    1        0.817   1.840   0.004  0.00  0.00    +0.390 HD
ATOM      3  C   LIG    1        0.002  -0.004   0.002  0.00  0.00    +0.560 C 
ATOM      4  O   LIG    1       -1.042  -0.626   0.009  0.00  0.00    -0.510 OA
ENDROOT
BRANCH   3   5
ATOM      5  C   LIG    1        1.290  -0.725  -0.014  0.00  0.00    -0.220 A 
ATOM      6  C   LIG    1        2.477  -0.011  -0.022  0.00  0.00    +0.070 A 
ATOM      7  C   LIG    1        3.698  -0.701  -0.037  0.00  0.00    -0.160 A 
ATOM      8  C   LIG    1        4.923  -0.009  -0.045  0.00  0.00    +0.040 A 
ATOM      9  C   LIG    1        6.091  -0.707  -0.060  0.00  0.00    -0.090 A 
ATOM     10  C   LIG    1        6.094  -2.101  -0.067  0.00  0.00    -0.010 A 
ATOM     11  C   LIG    1        4.929  -2.805  -0.059  0.00  0.00    -0.040 A 
ATOM     12  C   LIG    1        3.701  -2.120  -0.044  0.00  0.00    +0.030 A 
ATOM     13  C   LIG    1        2.483  -2.820  -0.036  0.00  0.00    -0.200 A 
ATOM     14  C   LIG    1        1.304  -2.136  -0.016  0.00  0.00    +0.300 A 
ATOM     15  O   LIG    1        0.131  -2.819  -0.003  0.00  0.00    -0.670 OA
ENDBRANCH   3   5
BRANCH   1  16
ATOM     16  C   LIG    1       -1.295   2.059   0.019  0.00  0.00    +0.240 C 
BRANCH  16  17
ATOM     17  C   LIG    1       -1.036   3.567   0.026  0.00  0.00    +0.020 C 
BRANCH  17  21
ATOM     18  C   LIG    1       -4.346   6.150  -1.162  0.00  0.00    +0.000 C 
ATOM     19  C   LIG    1       -3.452   6.563   0.008  0.00  0.00    +0.190 C 
ATOM     20  C   LIG    1       -2.117   5.819  -0.082  0.00  0.00    +0.000 C 
ATOM     21  C   LIG    1       -2.371   4.314   0.037  0.00  0.00    -0.010 C 
ATOM     22  C   LIG    1       -3.105   4.033   1.352  0.00  0.00    -0.010 C 
ATOM     23  C   LIG    1       -4.402   4.846   1.387  0.00  0.00    +0.200 C 
ATOM     24  O   LIG    1       -4.096   6.234   1.241  0.00  0.00    -0.380 OA
ENDBRANCH  17  21
ENDBRANCH  16  17
ENDBRANCH   1  16
TORSDOF 4
