REMARK  Name = ZINCpe00000gN0Ce.0
REMARK                            x       y       z     vdW  Elec       q    Type
REMARK                         _______ _______ _______ _____ _____    ______ ____
ROOT
ATOM      1  N   LIG    1        0.462   6.462   3.262  0.00  0.00    -0.560 NA
ATOM      2  C   LIG    1        0.960   6.098   4.588  0.00  0.00    +0.180 C 
ATOM      3  C   LIG    1        1.448   7.346   5.293  0.00  0.00    +0.030 C 
ATOM      4  C   LIG    1        0.307   7.942   6.135  0.00  0.00    +0.270 C 
ATOM      5  N   LIG    1       -0.983   7.864   5.422  0.00  0.00    -0.600 N 
ATOM      6  C   LIG    1       -1.111   8.154   4.008  0.00  0.00    +0.280 C 
ATOM      7  C   LIG    1       -2.085   7.509   6.112  0.00  0.00    +0.560 C 
ATOM      8  O   LIG    1       -1.982   7.091   7.249  0.00  0.00    -0.530 OA
ATOM      9  C   LIG    1       -0.893   6.859   3.188  0.00  0.00    +0.170 C 
ENDROOT
BRANCH   7  10
ATOM     10  C   LIG    1       -3.420   7.630   5.488  0.00  0.00    -0.130 A 
ATOM     11  C   LIG    1       -3.667   7.040   4.246  0.00  0.00    +0.070 A 
ATOM     12  C   LIG    1       -4.913   7.152   3.661  0.00  0.00    +0.010 A 
ATOM     13  C   LIG    1       -5.922   7.845   4.298  0.00  0.00    +0.060 A 
ATOM     14  C   LIG    1       -5.689   8.439   5.541  0.00  0.00    -0.140 A 
ATOM     15  C   LIG    1       -4.435   8.326   6.139  0.00  0.00    +0.130 A 
BRANCH  14  16
ATOM     16  C   LIG    1       -6.771   9.181   6.223  0.00  0.00    +0.560 C 
ATOM     17  O   LIG    1       -6.566   9.698   7.304  0.00  0.00    -0.530 OA
ATOM     18  N   LIG    1       -7.984   9.286   5.645  0.00  0.00    -0.850 N 
ATOM     19  H   LIG    1       -8.694   9.772   6.092  0.00  0.00    +0.410 HD
ATOM     20  H   LIG    1       -8.147   8.873   4.782  0.00  0.00    +0.400 HD
ENDBRANCH  14  16
ENDBRANCH   7  10
BRANCH   1  21
ATOM     21  C   LIG    1        0.755   5.408   2.282  0.00  0.00    +0.260 C 
BRANCH  21  25
ATOM     22  C   LIG    1        1.801   7.572  -2.116  0.00  0.00    +0.360 C 
ATOM     23  N   LIG    1        1.083   6.909  -1.025  0.00  0.00    -0.380 N 
ATOM     24  C   LIG    1        1.606   6.544   0.164  0.00  0.00    +0.250 A 
ATOM     25  C   LIG    1        0.621   5.966   0.889  0.00  0.00    -0.240 A 
ATOM     26  C   LIG    1       -0.545   5.977   0.116  0.00  0.00    +0.230 A 
ATOM     27  N   LIG    1       -0.271   6.548  -1.029  0.00  0.00    -0.300 NA
ENDBRANCH  21  25
ENDBRANCH   1  21
TORSDOF 4
