REMARK  Name = ZINCpk00000l7YAb.0
REMARK                            x       y       z     vdW  Elec       q    Type
REMARK                         _______ _______ _______ _____ _____    ______ ____
ROOT
ATOM      1  O   LIG    1        5.843   3.067  -8.203  0.00  0.00    -0.540 OA
ATOM      2  C   LIG    1        5.400   2.730  -7.125  0.00  0.00    +0.520 C 
ATOM      3  C   LIG    1        6.372   2.368  -6.040  0.00  0.00    +0.090 C 
ATOM      4  C   LIG    1        5.659   1.575  -4.942  0.00  0.00    +0.040 C 
ATOM      5  C   LIG    1        4.374   2.321  -4.562  0.00  0.00    +0.100 C 
ATOM      6  C   LIG    1        3.408   2.273  -5.746  0.00  0.00    +0.280 C 
ATOM      7  N   LIG    1        4.076   2.701  -6.968  0.00  0.00    -0.600 N 
ENDROOT
BRANCH   5   8
ATOM      8  C   LIG    1        3.741   1.661  -3.365  0.00  0.00    +0.180 A 
ATOM      9  N   LIG    1        3.333   0.429  -3.292  0.00  0.00    -0.360 NA
ATOM     10  O   LIG    1        2.870   0.204  -2.194  0.00  0.00    +0.100 OA
ATOM     11  C   LIG    1        2.941   1.304  -1.438  0.00  0.00    +0.150 A 
ATOM     12  N   LIG    1        3.489   2.239  -2.177  0.00  0.00    -0.450 NA
BRANCH  11  13
ATOM     13  C   LIG    1        2.474   1.445  -0.013  0.00  0.00    +0.490 C 
BRANCH  13  14
ATOM     14  N   LIG    1        1.074   1.878   0.002  0.00  0.00    -0.470 N 
ATOM     15  C   LIG    1        0.623   3.170   0.012  0.00  0.00    +0.130 A 
ATOM     16  C   LIG    1       -0.722   3.114   0.024  0.00  0.00    +0.150 A 
ATOM     17  N   LIG    1       -1.083   1.822   0.017  0.00  0.00    -0.490 NA
ATOM     18  C   LIG    1       -0.013   1.076   0.008  0.00  0.00    +0.400 A 
ENDBRANCH  13  14
ENDBRANCH  11  13
ENDBRANCH   5   8
BRANCH   7  19
ATOM     19  C   LIG    1        3.241   3.127  -8.094  0.00  0.00    +0.280 C 
BRANCH  19  20
ATOM     20  C   LIG    1        2.980   4.631  -7.995  0.00  0.00    -0.020 C 
ATOM     21  C   LIG    1        2.140   4.925  -6.748  0.00  0.00    -0.010 C 
ATOM     22  C   LIG    1        1.818   6.420  -6.700  0.00  0.00    +0.200 C 
ATOM     23  O   LIG    1        1.133   6.798  -7.896  0.00  0.00    -0.380 OA
ATOM     24  C   LIG    1        1.888   6.590  -9.091  0.00  0.00    +0.210 C 
ATOM     25  C   LIG    1        2.214   5.101  -9.235  0.00  0.00    +0.000 C 
ENDBRANCH  19  20
ENDBRANCH   7  19
TORSDOF 5
