REMARK  Name = ZINCpk000000nGz4.0
REMARK                            x       y       z     vdW  Elec       q    Type
REMARK                         _______ _______ _______ _____ _____    ______ ____
ROOT
ATOM      1  N   LIG    1       -0.974   1.211  -1.219  0.00  0.00    -0.730 N 
ATOM      2  H   LIG    1       -1.769   1.757  -1.119  0.00  0.00    +0.420 HD
ENDROOT
BRANCH   1   8
ATOM      3  C   LIG    1       -0.925   1.710  -3.587  0.00  0.00    +0.100 A 
ATOM      4  C   LIG    1       -0.335   1.569  -4.835  0.00  0.00    -0.030 A 
ATOM      5  C   LIG    1        0.797   0.795  -4.983  0.00  0.00    +0.050 A 
ATOM      6  C   LIG    1        1.352   0.149  -3.876  0.00  0.00    -0.020 A 
ATOM      7  C   LIG    1        0.762   0.294  -2.617  0.00  0.00    +0.020 A 
ATOM      8  C   LIG    1       -0.376   1.067  -2.476  0.00  0.00    +0.190 A 
BRANCH   6   9
ATOM      9  C   LIG    1        2.527  -0.655  -4.029  0.00  0.00    +0.260 C 
ATOM     10  N   LIG    1        3.459  -1.293  -4.151  0.00  0.00    -0.420 NA
ENDBRANCH   6   9
BRANCH   3  11
ATOM     11  O   LIG    1       -2.039   2.474  -3.447  0.00  0.00    -0.310 OA
BRANCH  11  13
ATOM     12  C   LIG    1       -4.105   3.275  -4.411  0.00  0.00    +0.070 C 
ATOM     13  C   LIG    1       -2.617   3.004  -4.641  0.00  0.00    +0.160 C 
ATOM     14  C   LIG    1       -1.912   4.311  -5.012  0.00  0.00    +0.020 C 
ENDBRANCH  11  13
ENDBRANCH   3  11
ENDBRANCH   1   8
BRANCH   1  15
ATOM     15  C   LIG    1       -0.397   0.536  -0.053  0.00  0.00    +0.310 C 
BRANCH  15  16
ATOM     16  C   LIG    1       -1.223   0.851   1.168  0.00  0.00    +0.520 C 
ATOM     17  N   LIG    1       -0.879   0.336   2.365  0.00  0.00    -0.720 N 
ATOM     18  H   LIG    1       -0.100  -0.237   2.441  0.00  0.00    +0.420 HD
ATOM     19  O   LIG    1       -2.197   1.568   1.074  0.00  0.00    -0.530 OA
BRANCH  17  20
ATOM     20  C   LIG    1       -1.681   0.641   3.552  0.00  0.00    +0.310 C 
BRANCH  20  21
ATOM     21  C   LIG    1       -1.089  -0.052   4.752  0.00  0.00    +0.520 C 
ATOM     22  N   LIG    1       -1.664   0.086   5.963  0.00  0.00    -0.620 N 
ATOM     23  C   LIG    1       -2.863   0.885   6.255  0.00  0.00    +0.230 C 
ATOM     24  C   LIG    1       -3.135   0.765   7.770  0.00  0.00    +0.040 C 
ATOM     25  C   LIG    1       -1.746   0.375   8.340  0.00  0.00    +0.030 C 
ATOM     26  C   LIG    1       -1.192  -0.533   7.214  0.00  0.00    +0.250 C 
ATOM     27  O   LIG    1       -0.094  -0.735   4.627  0.00  0.00    -0.540 OA
ENDBRANCH  20  21
ENDBRANCH  17  20
ENDBRANCH  15  16
ENDBRANCH   1  15
TORSDOF 8
