REMARK  Name = ZINCnE000001FSZY.1
REMARK                            x       y       z     vdW  Elec       q    Type
REMARK                         _______ _______ _______ _____ _____    ______ ____
ROOT
ATOM      1  N   LIG    1       -1.495  -0.167   0.015  0.00  0.00    -0.600 N 
ATOM      2  C   LIG    1       -1.899  -0.596  -1.197  0.00  0.00    +0.600 C 
ATOM      3  O   LIG    1       -1.089  -0.741  -2.092  0.00  0.00    -0.550 OA
ENDROOT
BRANCH   2   4
ATOM      4  C   LIG    1       -3.321  -0.891  -1.437  0.00  0.00    +0.030 A 
ATOM      5  C   LIG    1       -3.764  -1.438  -2.588  0.00  0.00    -0.150 A 
ATOM      6  S   LIG    1       -5.460  -1.634  -2.501  0.00  0.00    +0.050 S 
ATOM      7  C   LIG    1       -5.479  -0.942  -0.883  0.00  0.00    +0.360 A 
ATOM      8  N   LIG    1       -4.271  -0.631  -0.533  0.00  0.00    -0.520 NA
BRANCH   7   9
ATOM      9  N   LIG    1       -6.612  -0.759  -0.102  0.00  0.00    -0.660 NA
ATOM     10  C   LIG    1       -7.821  -1.124  -0.573  0.00  0.00    +0.450 C 
ATOM     11  O   LIG    1       -7.920  -1.611  -1.679  0.00  0.00    -0.610 OA
ATOM     12  C   LIG    1       -9.051  -0.925   0.275  0.00  0.00    +0.070 C 
ENDBRANCH   7   9
ENDBRANCH   2   4
BRANCH   1  14
ATOM     13  C   LIG    1       -3.074   1.485   0.888  0.00  0.00    +0.010 C 
ATOM     14  C   LIG    1       -2.481   0.086   1.069  0.00  0.00    +0.280 C 
ENDBRANCH   1  14
BRANCH   1  15
ATOM     15  C   LIG    1       -0.070   0.048   0.279  0.00  0.00    +0.270 C 
ATOM     16  C   LIG    1        0.104   0.664   1.668  0.00  0.00    +0.060 C 
BRANCH  15  17
ATOM     17  C   LIG    1        0.656  -1.271   0.219  0.00  0.00    -0.090 A 
ATOM     18  C   LIG    1        0.045  -2.418   0.693  0.00  0.00    +0.060 A 
ATOM     19  C   LIG    1        0.708  -3.629   0.633  0.00  0.00    -0.020 A 
ATOM     20  C   LIG    1        1.988  -3.692   0.110  0.00  0.00    +0.090 A 
ATOM     21  C   LIG    1        2.601  -2.542  -0.359  0.00  0.00    -0.020 A 
ATOM     22  F   LIG    1        2.639  -4.875   0.056  0.00  0.00    -0.140 F 
ATOM     23  C   LIG    1        1.934  -1.333  -0.304  0.00  0.00    +0.050 A 
ENDBRANCH  15  17
ENDBRANCH   1  15
TORSDOF 5
