REMARK  Name = ZINCqH0000033GWR.0
REMARK                            x       y       z     vdW  Elec       q    Type
REMARK                         _______ _______ _______ _____ _____    ______ ____
ROOT
ATOM      1  N   LIG    1        5.595   0.198   2.985  0.00  0.00    -0.680 N 
ATOM      2  H   LIG    1        5.647  -0.679   3.396  0.00  0.00    +0.410 HD
ATOM      3  C   LIG    1        4.641   0.458   2.068  0.00  0.00    +0.700 C 
ATOM      4  N   LIG    1        3.832  -0.531   1.639  0.00  0.00    -0.620 N 
ATOM      5  C   LIG    1        3.989  -1.888   2.169  0.00  0.00    +0.290 C 
ATOM      6  O   LIG    1        4.511   1.584   1.628  0.00  0.00    -0.530 OA
ENDROOT
BRANCH   1  16
ATOM      7  C   LIG    1        7.139   1.148   4.586  0.00  0.00    +0.070 A 
ATOM      8  C   LIG    1        8.042   2.139   4.936  0.00  0.00    -0.010 A 
ATOM      9  C   LIG    1        8.316   3.164   4.056  0.00  0.00    -0.160 A 
ATOM     10  C   LIG    1        7.702   3.220   2.811  0.00  0.00    +0.100 A 
ATOM     11  O   LIG    1        8.126   4.302   2.100  0.00  0.00    -0.300 OA
ATOM     12  C   LIG    1        8.712   5.259   2.998  0.00  0.00    +0.170 C 
ATOM     13  C   LIG    1        9.869   6.001   2.326  0.00  0.00    +0.070 C 
ATOM     14  C   LIG    1        6.795   2.223   2.460  0.00  0.00    +0.040 A 
ATOM     15  C   LIG    1        9.228   4.372   4.155  0.00  0.00    +0.080 C 
ATOM     16  C   LIG    1        6.512   1.196   3.344  0.00  0.00    +0.180 A 
BRANCH   7  17
ATOM     17  O   LIG    1        6.867   0.134   5.452  0.00  0.00    -0.320 OA
BRANCH  17  19
ATOM     18  C   LIG    1        7.118  -1.058   7.539  0.00  0.00    +0.070 C 
ATOM     19  C   LIG    1        7.549   0.152   6.707  0.00  0.00    +0.180 C 
ENDBRANCH  17  19
ENDBRANCH   7  17
ENDBRANCH   1  16
BRANCH   4  20
ATOM     20  C   LIG    1        2.796  -0.249   0.643  0.00  0.00    +0.360 C 
BRANCH  20  21
ATOM     21  C   LIG    1        1.521   0.148   1.342  0.00  0.00    -0.140 A 
ATOM     22  C   LIG    1        0.508  -0.775   1.509  0.00  0.00    +0.030 A 
ATOM     23  C   LIG    1       -0.662  -0.411   2.151  0.00  0.00    -0.020 A 
ATOM     24  C   LIG    1       -0.820   0.877   2.628  0.00  0.00    +0.020 A 
ATOM     25  C   LIG    1        0.192   1.804   2.464  0.00  0.00    -0.020 A 
ATOM     26  C   LIG    1        1.366   1.442   1.820  0.00  0.00    +0.130 A 
BRANCH  26  27
ATOM     27  O   LIG    1        2.361   2.352   1.657  0.00  0.00    -0.460 OA
ATOM     28  H   LIG    1        2.300   2.859   0.836  0.00  0.00    +0.380 HD
ENDBRANCH  26  27
ENDBRANCH  20  21
ENDBRANCH   4  20
TORSDOF 6
