REMARK  Name = ZINCvU0000000AMl.0
REMARK                            x       y       z     vdW  Elec       q    Type
REMARK                         _______ _______ _______ _____ _____    ______ ____
ROOT
ATOM      1  C   LIG    1        0.718  -2.161  -0.835  0.00  0.00    +0.260 C 
ATOM      2  C   LIG    1        1.853  -2.469  -1.825  0.00  0.00    +0.180 C 
ATOM      3  N   LIG    1        3.140  -2.118  -1.211  0.00  0.00    -0.520 NA
ATOM      4  C   LIG    1        3.223  -0.678  -0.934  0.00  0.00    +0.170 C 
ATOM      5  C   LIG    1        2.146  -0.295   0.087  0.00  0.00    +0.280 C 
ATOM      6  N   LIG    1        0.843  -0.758  -0.413  0.00  0.00    -0.620 N 
ATOM      7  C   LIG    1       -0.211   0.080  -0.476  0.00  0.00    +0.710 C 
ATOM      8  N   LIG    1       -0.054   1.384  -0.177  0.00  0.00    -0.670 N 
ATOM      9  H   LIG    1        0.814   1.717   0.103  0.00  0.00    +0.410 HD
ATOM     10  O   LIG    1       -1.303  -0.341  -0.804  0.00  0.00    -0.560 OA
ENDROOT
BRANCH   8  11
ATOM     11  C   LIG    1       -1.136   2.257  -0.274  0.00  0.00    +0.360 A 
ATOM     12  C   LIG    1       -2.431   1.754  -0.267  0.00  0.00    -0.020 A 
ATOM     13  C   LIG    1       -3.501   2.633  -0.359  0.00  0.00    -0.020 A 
ATOM     14  C   LIG    1       -3.239   3.985  -0.461  0.00  0.00    -0.150 A 
ATOM     15  C   LIG    1       -4.331   5.015  -0.556  0.00  0.00    +0.090 C 
ATOM     16  C   LIG    1       -5.651   4.359  -0.962  0.00  0.00    +0.020 C 
ATOM     17  C   LIG    1       -5.910   3.170  -0.029  0.00  0.00    +0.020 C 
ATOM     18  C   LIG    1       -1.921   4.416  -0.470  0.00  0.00    +0.290 A 
ATOM     19  C   LIG    1       -4.896   2.073  -0.351  0.00  0.00    +0.080 C 
ATOM     20  N   LIG    1       -0.924   3.560  -0.378  0.00  0.00    -0.520 NA
ENDBRANCH   8  11
BRANCH   1  21
ATOM     21  C   LIG    1       -0.634  -2.374  -1.518  0.00  0.00    +0.060 C 
BRANCH  21  23
ATOM     22  C   LIG    1       -0.629  -4.781  -0.848  0.00  0.00    +0.020 C 
ATOM     23  C   LIG    1       -0.727  -3.813  -2.029  0.00  0.00    -0.040 C 
ATOM     24  C   LIG    1       -2.064  -4.016  -2.745  0.00  0.00    +0.020 C 
ENDBRANCH  21  23
ENDBRANCH   1  21
BRANCH   3  25
ATOM     25  C   LIG    1        4.262  -2.557  -2.052  0.00  0.00    +0.270 C 
BRANCH  25  26
ATOM     26  C   LIG    1        4.147  -1.922  -3.414  0.00  0.00    -0.120 A 
ATOM     27  C   LIG    1        3.450  -2.565  -4.420  0.00  0.00    +0.040 A 
ATOM     28  C   LIG    1        3.340  -1.981  -5.667  0.00  0.00    +0.020 A 
ATOM     29  C   LIG    1        3.938  -0.757  -5.913  0.00  0.00    -0.030 A 
ATOM     30  C   LIG    1        4.640  -0.117  -4.908  0.00  0.00    +0.020 A 
ATOM     31 CL   LIG    1        3.805  -0.026  -7.482  0.00  0.00    -0.070 Cl
ATOM     32  C   LIG    1        4.745  -0.700  -3.659  0.00  0.00    +0.030 A 
ENDBRANCH  25  26
ENDBRANCH   3  25
TORSDOF 5
