REMARK  Name = ZINCAx0000000bqo.0
REMARK                            x       y       z     vdW  Elec       q    Type
REMARK                         _______ _______ _______ _____ _____    ______ ____
ROOT
ATOM      1  N   LIG    1        4.621   5.675  -2.164  0.00  0.00    -0.510 N 
ATOM      2  C   LIG    1        4.149   4.740  -1.313  0.00  0.00    +0.510 C 
ATOM      3  O   LIG    1        4.870   4.289  -0.448  0.00  0.00    -0.510 OA
ENDROOT
BRANCH   1   9
ATOM      4  N   LIG    1        7.521   7.396  -0.703  0.00  0.00    -0.540 N 
ATOM      5  C   LIG    1        8.439   7.200  -1.667  0.00  0.00    +0.710 A 
ATOM      6  N   LIG    1        8.139   6.519  -2.787  0.00  0.00    -0.660 N 
ATOM      7  H   LIG    1        8.819   6.392  -3.467  0.00  0.00    +0.430 HD
ATOM      8  C   LIG    1        6.907   6.007  -2.974  0.00  0.00    +0.570 A 
ATOM      9  C   LIG    1        5.920   6.198  -1.988  0.00  0.00    -0.130 A 
ATOM     10  O   LIG    1        6.647   5.387  -3.991  0.00  0.00    -0.520 OA
ATOM     11  O   LIG    1        9.560   7.647  -1.522  0.00  0.00    -0.540 OA
ATOM     12  C   LIG    1        6.246   6.899  -0.846  0.00  0.00    +0.500 A 
BRANCH  12  13
ATOM     13  N   LIG    1        5.308   7.099   0.139  0.00  0.00    -0.820 N 
ATOM     14  H   LIG    1        5.529   7.633   0.918  0.00  0.00    +0.410 HD
ATOM     15  H   LIG    1        4.425   6.706   0.054  0.00  0.00    +0.420 HD
ENDBRANCH  12  13
BRANCH   4  16
ATOM     16  C   LIG    1        7.881   8.142   0.504  0.00  0.00    +0.310 C 
BRANCH  16  17
ATOM     17  C   LIG    1        8.413   7.174   1.563  0.00  0.00    +0.010 C 
BRANCH  17  19
ATOM     18  C   LIG    1        9.321   6.986   3.883  0.00  0.00    +0.030 C 
ATOM     19  C   LIG    1        8.789   7.954   2.824  0.00  0.00    +0.010 C 
ENDBRANCH  17  19
ENDBRANCH  16  17
ENDBRANCH   4  16
ENDBRANCH   1   9
BRANCH   2  20
ATOM     20  C   LIG    1        2.728   4.255  -1.438  0.00  0.00    +0.080 C 
BRANCH  20  21
ATOM     21  C   LIG    1        2.450   3.205  -0.362  0.00  0.00    +0.270 C 
ATOM     22  O   LIG    1        3.219   2.000  -0.630  0.00  0.00    -0.300 OA
ATOM     23  C   LIG    1        2.373   0.972  -0.810  0.00  0.00    +0.520 C 
ATOM     24  C   LIG    1        0.979   1.430  -0.672  0.00  0.00    -0.190 A 
ATOM     25  C   LIG    1       -0.246   0.767  -0.766  0.00  0.00    +0.110 A 
ATOM     26  C   LIG    1       -1.421   1.469  -0.592  0.00  0.00    +0.020 A 
ATOM     27  C   LIG    1       -1.390   2.824  -0.312  0.00  0.00    +0.060 A 
ATOM     28  C   LIG    1       -0.179   3.489  -0.218  0.00  0.00    +0.040 A 
ATOM     29  O   LIG    1        2.709  -0.170  -1.052  0.00  0.00    -0.450 OA
ATOM     30  C   LIG    1        0.998   2.800  -0.396  0.00  0.00    -0.100 A 
ENDBRANCH  20  21
ENDBRANCH   2  20
BRANCH   1  31
ATOM     31  C   LIG    1        3.784   6.149  -3.269  0.00  0.00    +0.350 C 
BRANCH  31  32
ATOM     32  C   LIG    1        3.044   7.390  -2.843  0.00  0.00    -0.140 A 
ATOM     33  C   LIG    1        1.716   7.310  -2.470  0.00  0.00    +0.050 A 
ATOM     34  C   LIG    1        1.037   8.449  -2.079  0.00  0.00    -0.030 A 
ATOM     35  C   LIG    1        1.684   9.670  -2.060  0.00  0.00    +0.050 A 
ATOM     36  C   LIG    1        3.011   9.756  -2.433  0.00  0.00    -0.080 A 
ATOM     37  C   LIG    1        3.697   8.614  -2.820  0.00  0.00    +0.150 A 
BRANCH  37  38
ATOM     38  O   LIG    1        5.005   8.695  -3.182  0.00  0.00    -0.300 OA
ATOM     39  C   LIG    1        5.612   9.988  -3.134  0.00  0.00    +0.240 C 
ENDBRANCH  37  38
ENDBRANCH  31  32
ENDBRANCH   1  31
TORSDOF 10
