REMARK  Name = ZINCpe00000yvs1c.0
REMARK                            x       y       z     vdW  Elec       q    Type
REMARK                         _______ _______ _______ _____ _____    ______ ____
ROOT
ATOM      1  C   LIG    1       -2.855   0.747   2.031  0.00  0.00    +0.520 C 
ATOM      2  N   LIG    1       -2.530   1.361   0.877  0.00  0.00    -0.610 N 
ATOM      3  C   LIG    1       -3.413   1.270  -0.294  0.00  0.00    +0.270 C 
ATOM      4  C   LIG    1       -2.597   0.768  -1.489  0.00  0.00    +0.030 C 
ATOM      5  C   LIG    1       -1.380   1.675  -1.689  0.00  0.00    +0.030 C 
ATOM      6  C   LIG    1       -0.493   1.623  -0.442  0.00  0.00    +0.050 C 
ATOM      7  C   LIG    1       -1.286   2.135   0.765  0.00  0.00    +0.300 C 
ATOM      8  O   LIG    1       -2.077   0.753   2.962  0.00  0.00    -0.510 OA
ENDROOT
BRANCH   6   9
ATOM      9  C   LIG    1        0.721   2.491  -0.651  0.00  0.00    +0.230 A 
ATOM     10  C   LIG    1        0.628   3.662  -1.387  0.00  0.00    -0.140 A 
ATOM     11  C   LIG    1        1.767   4.434  -1.551  0.00  0.00    +0.370 A 
ATOM     12  N   LIG    1        2.905   4.027  -1.013  0.00  0.00    -0.570 NA
ATOM     13  C   LIG    1        2.961   2.899  -0.320  0.00  0.00    +0.570 A 
ATOM     14  N   LIG    1        1.890   2.141  -0.140  0.00  0.00    -0.570 NA
BRANCH  13  15
ATOM     15  N   LIG    1        4.168   2.503   0.229  0.00  0.00    -0.820 N 
ATOM     16  H   LIG    1        4.960   3.049   0.105  0.00  0.00    +0.420 HD
ATOM     17  H   LIG    1        4.223   1.679   0.739  0.00  0.00    +0.420 HD
ENDBRANCH  13  15
ENDBRANCH   6   9
BRANCH   1  18
ATOM     18  C   LIG    1       -4.185   0.051   2.166  0.00  0.00    +0.230 C 
BRANCH  18  24
ATOM     19  C   LIG    1       -4.330   2.116   4.523  0.00  0.00    +0.320 C 
ATOM     20  N   LIG    1       -5.315   1.970   3.448  0.00  0.00    -0.440 N 
ATOM     21  C   LIG    1       -6.444   2.695   3.292  0.00  0.00    +0.400 A 
ATOM     22  N   LIG    1       -7.064   2.278   2.222  0.00  0.00    -0.490 NA
ATOM     23  C   LIG    1       -6.359   1.285   1.660  0.00  0.00    +0.160 A 
ATOM     24  C   LIG    1       -5.263   1.074   2.415  0.00  0.00    -0.020 A 
ENDBRANCH  18  24
BRANCH  18  25
ATOM     25  N   LIG    1       -4.133  -0.890   3.293  0.00  0.00    -0.530 NA
ATOM     26  C   LIG    1       -3.188  -1.982   3.024  0.00  0.00    +0.210 C 
ATOM     27  C   LIG    1       -5.470  -1.416   3.601  0.00  0.00    +0.200 C 
ENDBRANCH  18  25
ENDBRANCH   1  18
TORSDOF 5
