REMARK  Name = ZINCkj000005ku4o.0
REMARK                            x       y       z     vdW  Elec       q    Type
REMARK                         _______ _______ _______ _____ _____    ______ ____
ROOT
ATOM      1  N   LIG    1       -3.559   2.567   1.246  0.00  0.00    -0.490 N 
ATOM      2  H   LIG    1       -2.704   2.042   1.354  0.00  0.00    +0.430 HD
ATOM      3  H   LIG    1       -4.110   2.164   0.504  0.00  0.00    +0.430 HD
ENDROOT
BRANCH   1   4
ATOM      4  C   LIG    1       -3.239   3.962   0.917  0.00  0.00    +0.170 C 
ATOM      5  C   LIG    1       -4.531   4.726   0.621  0.00  0.00    +0.100 C 
BRANCH   4   6
ATOM      6  C   LIG    1       -2.331   4.000  -0.315  0.00  0.00    +0.120 C 
BRANCH   6  13
ATOM      7  C   LIG    1       -0.247   5.586   0.907  0.00  0.00    +0.090 C 
ATOM      8  C   LIG    1       -0.006   4.130   0.605  0.00  0.00    -0.070 A 
ATOM      9  C   LIG    1        1.213   3.554   0.907  0.00  0.00    +0.020 A 
ATOM     10  C   LIG    1        1.432   2.216   0.634  0.00  0.00    +0.030 A 
ATOM     11  C   LIG    1        0.434   1.456   0.055  0.00  0.00    +0.020 A 
ATOM     12  C   LIG    1       -0.784   2.034  -0.252  0.00  0.00    -0.010 A 
ATOM     13  C   LIG    1       -1.004   3.371   0.021  0.00  0.00    -0.140 A 
ENDBRANCH   6  13
ENDBRANCH   4   6
ENDBRANCH   1   4
BRANCH   1  14
ATOM     14  C   LIG    1       -4.322   2.523   2.501  0.00  0.00    +0.290 C 
BRANCH  14  15
ATOM     15  C   LIG    1       -4.650   1.092   2.840  0.00  0.00    +0.500 C 
ATOM     16  N   LIG    1       -5.349   0.807   3.955  0.00  0.00    -0.590 N 
ATOM     17  C   LIG    1       -5.798   1.875   4.862  0.00  0.00    +0.250 C 
ATOM     18  C   LIG    1       -7.299   1.678   5.129  0.00  0.00    +0.220 C 
ATOM     19  O   LIG    1       -7.525   0.337   5.569  0.00  0.00    -0.370 OA
ATOM     20  C   LIG    1       -7.184  -0.661   4.604  0.00  0.00    +0.230 C 
ATOM     21  C   LIG    1       -5.682  -0.583   4.307  0.00  0.00    +0.270 C 
ATOM     22  O   LIG    1       -4.284   0.197   2.107  0.00  0.00    -0.530 OA
ENDBRANCH  14  15
ENDBRANCH   1  14
TORSDOF 5
