REMARK  Name = ZINCqH0000002CDT.0
REMARK                            x       y       z     vdW  Elec       q    Type
REMARK                         _______ _______ _______ _____ _____    ______ ____
ROOT
ATOM      1  N   LIG    1        1.339   2.002   0.000  0.00  0.00    -0.600 N 
ATOM      2  C   LIG    1        2.352   1.346   0.603  0.00  0.00    +0.580 C 
ATOM      3  C   LIG    1        2.123  -0.011   1.129  0.00  0.00    -0.200 A 
ATOM      4  C   LIG    1        3.067  -0.650   1.930  0.00  0.00    +0.150 A 
ATOM      5  C   LIG    1        2.800  -1.909   2.426  0.00  0.00    -0.020 A 
ATOM      6  C   LIG    1        1.601  -2.541   2.132  0.00  0.00    +0.030 A 
ATOM      7  C   LIG    1        0.658  -1.921   1.331  0.00  0.00    -0.030 A 
ATOM      8 CL   LIG    1        1.282  -4.122   2.773  0.00  0.00    -0.050 Cl
ATOM      9  C   LIG    1        0.914  -0.661   0.823  0.00  0.00    +0.250 A 
ATOM     10  N   LIG    1        0.002  -0.004   0.002  0.00  0.00    -0.730 N 
ATOM     11  H   LIG    1       -0.607  -0.505  -0.562  0.00  0.00    +0.420 HD
ATOM     12  O   LIG    1        3.444   1.870   0.710  0.00  0.00    -0.510 OA
ATOM     13  C   LIG    1       -0.018   1.461   0.010  0.00  0.00    +0.430 C 
ATOM     14  C   LIG    1       -0.788   1.970  -1.190  0.00  0.00    +0.520 C 
ATOM     15  N   LIG    1       -1.843   2.667  -0.718  0.00  0.00    -0.550 N 
ATOM     16  C   LIG    1       -1.874   2.688   0.665  0.00  0.00    +0.150 A 
ATOM     17  C   LIG    1       -2.793   3.294   1.523  0.00  0.00    +0.010 A 
ATOM     18  C   LIG    1       -2.579   3.151   2.885  0.00  0.00    +0.060 A 
ATOM     19  C   LIG    1       -1.506   2.442   3.386  0.00  0.00    -0.110 A 
ATOM     20  C   LIG    1       -0.583   1.833   2.542  0.00  0.00    +0.100 A 
ATOM     21  C   LIG    1       -1.332   2.325   4.878  0.00  0.00    +0.090 C 
ATOM     22  C   LIG    1       -2.837   3.325  -1.569  0.00  0.00    +0.330 C 
ATOM     23  O   LIG    1       -0.510   1.786  -2.356  0.00  0.00    -0.460 OA
ATOM     24  C   LIG    1       -0.790   1.971   1.187  0.00  0.00    -0.170 A 
ENDROOT
BRANCH   1  25
ATOM     25  C   LIG    1        1.603   3.275  -0.674  0.00  0.00    +0.280 C 
BRANCH  25  27
ATOM     26  C   LIG    1        1.698   5.755  -0.386  0.00  0.00    +0.020 C 
ATOM     27  C   LIG    1        1.422   4.425   0.318  0.00  0.00    -0.010 C 
ENDBRANCH  25  27
ENDBRANCH   1  25
TORSDOF 2
