REMARK  Name = ZINCkj000005h8yK.0
REMARK                            x       y       z     vdW  Elec       q    Type
REMARK                         _______ _______ _______ _____ _____    ______ ____
ROOT
ATOM      1  N   LIG    1       -2.350  -0.189   1.003  0.00  0.00    -0.670 N 
ATOM      2  H   LIG    1       -1.756  -0.716   0.445  0.00  0.00    +0.420 HD
ATOM      3  C   LIG    1       -3.652  -0.521   1.102  0.00  0.00    +0.590 C 
ATOM      4  O   LIG    1       -4.417   0.196   1.718  0.00  0.00    -0.500 OA
ENDROOT
BRANCH   1  10
ATOM      5  C   LIG    1       -0.719   1.574   1.250  0.00  0.00    -0.190 A 
ATOM      6  C   LIG    1       -0.229   2.661   1.947  0.00  0.00    +0.070 A 
ATOM      7  C   LIG    1       -0.873   3.099   3.090  0.00  0.00    +0.010 A 
ATOM      8  C   LIG    1       -2.003   2.445   3.544  0.00  0.00    +0.080 A 
ATOM      9  C   LIG    1       -2.496   1.354   2.854  0.00  0.00    +0.030 A 
ATOM     10  C   LIG    1       -1.854   0.915   1.703  0.00  0.00    +0.170 A 
BRANCH   5  11
ATOM     11  C   LIG    1       -0.019   1.101   0.002  0.00  0.00    +0.310 C 
BRANCH  11  13
ATOM     12  C   LIG    1       -0.653   3.065  -1.220  0.00  0.00    +0.310 C 
ATOM     13  N   LIG    1       -0.736   1.599  -1.180  0.00  0.00    -0.390 N 
ATOM     14  C   LIG    1       -0.125   1.040  -2.394  0.00  0.00    +0.330 C 
ATOM     15  H   LIG    1       -1.703   1.318  -1.130  0.00  0.00    +0.420 HD
ENDBRANCH  11  13
ENDBRANCH   5  11
ENDBRANCH   1  10
BRANCH   3  16
ATOM     16  C   LIG    1       -4.151  -1.756   0.463  0.00  0.00    -0.070 A 
ATOM     17  N   LIG    1       -3.301  -2.596  -0.121  0.00  0.00    -0.380 NA
ATOM     18  C   LIG    1       -3.749  -3.697  -0.690  0.00  0.00    +0.170 A 
ATOM     19  C   LIG    1       -5.106  -3.987  -0.684  0.00  0.00    +0.340 A 
ATOM     20  N   LIG    1       -5.962  -3.162  -0.108  0.00  0.00    -0.500 NA
ATOM     21  C   LIG    1       -5.524  -2.052   0.475  0.00  0.00    +0.420 A 
BRANCH  21  22
ATOM     22  N   LIG    1       -6.416  -1.189   1.084  0.00  0.00    -0.820 N 
ATOM     23  H   LIG    1       -7.264  -1.522   1.415  0.00  0.00    +0.410 HD
ATOM     24  H   LIG    1       -6.193  -0.250   1.180  0.00  0.00    +0.420 HD
ENDBRANCH  21  22
ENDBRANCH   3  16
TORSDOF 5
