REMARK  Name = ZINCpk00000jEaBp.0
REMARK                            x       y       z     vdW  Elec       q    Type
REMARK                         _______ _______ _______ _____ _____    ______ ____
ROOT
ATOM      1  N   LIG    1       -1.774  -2.644  -3.220  0.00  0.00    -1.120 NA
ATOM      2  S   LIG    1       -2.066  -1.912  -1.951  0.00  0.00    +2.250 S 
ATOM      3  C   LIG    1       -0.909  -2.514  -0.680  0.00  0.00    -0.170 C 
ATOM      4  C   LIG    1        0.509  -2.098  -1.090  0.00  0.00    +0.120 C 
ATOM      5  C   LIG    1        0.595  -0.575  -1.171  0.00  0.00    +0.080 C 
ATOM      6  C   LIG    1        2.070  -0.155  -1.234  0.00  0.00    +0.300 C 
ATOM      7  N   LIG    1        2.140   1.310  -1.116  0.00  0.00    -0.630 N 
ATOM      8  C   LIG    1        1.420   1.950  -0.003  0.00  0.00    +0.240 C 
ATOM      9  C   LIG    1       -0.020   1.425   0.006  0.00  0.00    +0.220 C 
ATOM     10  C   LIG    1        2.843   2.044  -2.001  0.00  0.00    +0.710 C 
ATOM     11  N   LIG    1        2.812   3.390  -1.934  0.00  0.00    -0.750 N 
ATOM     12  H   LIG    1        2.345   3.829  -1.207  0.00  0.00    +0.390 HD
ATOM     13  O   LIG    1        3.505   1.493  -2.859  0.00  0.00    -0.580 OA
ATOM     14  C   LIG    1       -0.129  -0.057  -2.412  0.00  0.00    +0.060 C 
ATOM     15  O   LIG    1       -0.001  -0.004  -0.002  0.00  0.00    -0.370 OA
ATOM     16  O   LIG    1       -3.434  -2.134  -1.634  0.00  0.00    -0.960 OA
ATOM     17  C   LIG    1       -1.645  -0.160  -2.208  0.00  0.00    -0.360 C 
ENDROOT
BRANCH   1  19
ATOM     18  C   LIG    1       -2.058  -3.240  -5.575  0.00  0.00    +0.050 C 
ATOM     19  C   LIG    1       -2.557  -2.362  -4.426  0.00  0.00    +0.200 C 
ENDBRANCH   1  19
BRANCH  11  20
ATOM     20  C   LIG    1        3.485   4.190  -2.961  0.00  0.00    +0.300 C 
BRANCH  20  21
ATOM     21  C   LIG    1        3.299   5.677  -2.653  0.00  0.00    -0.140 C 
ATOM     22  C   LIG    1        3.607   6.052  -1.191  0.00  0.00    +0.220 C 
ATOM     23  O   LIG    1        2.410   6.858  -1.268  0.00  0.00    -0.370 OA
ATOM     24  C   LIG    1        1.844   6.068  -2.333  0.00  0.00    +0.220 C 
BRANCH  21  25
ATOM     25  C   LIG    1        3.973   6.589  -3.680  0.00  0.00    +0.040 C 
ATOM     26  C   LIG    1        3.737   8.051  -3.296  0.00  0.00    +0.030 C 
ENDBRANCH  21  25
ENDBRANCH  20  21
ENDBRANCH  11  20
TORSDOF 4
