REMARK  Name = ZINCpk00000KfKkC.0
REMARK                            x       y       z     vdW  Elec       q    Type
REMARK                         _______ _______ _______ _____ _____    ______ ____
ROOT
ATOM      1  O   LIG    1       -0.778   5.657   1.906  0.00  0.00    -0.530 OA
ATOM      2  C   LIG    1       -1.335   4.920   2.695  0.00  0.00    +0.560 C 
ATOM      3  N   LIG    1       -1.502   3.616   2.397  0.00  0.00    -0.720 N 
ATOM      4  H   LIG    1       -1.947   3.027   3.027  0.00  0.00    +0.400 HD
ENDROOT
BRANCH   3   5
ATOM      5  C   LIG    1       -1.012   3.088   1.121  0.00  0.00    +0.240 C 
ATOM      6  C   LIG    1       -0.743   1.587   1.261  0.00  0.00    +0.040 C 
ATOM      7  C   LIG    1       -0.013   1.086   0.008  0.00  0.00    +0.160 C 
ATOM      8  C   LIG    1       -0.755   1.592  -1.206  0.00  0.00    +0.200 A 
ATOM      9  N   LIG    1       -0.644   1.171  -2.432  0.00  0.00    -0.490 NA
ATOM     10  C   LIG    1       -1.474   1.876  -3.218  0.00  0.00    +0.140 A 
ATOM     11  C   LIG    1       -2.124   2.769  -2.445  0.00  0.00    +0.130 A 
ATOM     12  N   LIG    1       -1.669   2.591  -1.173  0.00  0.00    -0.450 N 
ATOM     13  C   LIG    1       -2.067   3.321   0.034  0.00  0.00    +0.280 C 
ENDBRANCH   3   5
BRANCH   2  14
ATOM     14  C   LIG    1       -1.830   5.453   3.983  0.00  0.00    -0.140 A 
ATOM     15  C   LIG    1       -2.470   4.609   4.891  0.00  0.00    +0.050 A 
ATOM     16  C   LIG    1       -2.929   5.112   6.091  0.00  0.00    +0.010 A 
ATOM     17  C   LIG    1       -2.756   6.451   6.394  0.00  0.00    +0.040 A 
ATOM     18  C   LIG    1       -2.122   7.293   5.498  0.00  0.00    -0.090 A 
ATOM     19  C   LIG    1       -1.653   6.801   4.297  0.00  0.00    +0.110 A 
BRANCH  18  20
ATOM     20  C   LIG    1       -1.938   8.750   5.836  0.00  0.00    +0.230 C 
BRANCH  20  21
ATOM     21  N   LIG    1       -0.659   8.933   6.535  0.00  0.00    -0.530 NA
ATOM     22  C   LIG    1       -0.679   8.275   7.850  0.00  0.00    +0.140 C 
ATOM     23  C   LIG    1        0.690   8.439   8.517  0.00  0.00    +0.220 C 
ATOM     24  O   LIG    1        1.004   9.831   8.612  0.00  0.00    -0.380 OA
ATOM     25  C   LIG    1        1.032  10.503   7.350  0.00  0.00    +0.220 C 
ATOM     26  C   LIG    1       -0.333  10.360   6.671  0.00  0.00    +0.160 C 
ENDBRANCH  20  21
ENDBRANCH  18  20
ENDBRANCH   2  14
TORSDOF 4
