REMARK  Name = ZINCqH0000050uLs.0
REMARK                            x       y       z     vdW  Elec       q    Type
REMARK                         _______ _______ _______ _____ _____    ______ ____
ROOT
ATOM      1  N   LIG    1        4.032   7.170  -1.058  0.00  0.00    -0.680 N 
ATOM      2  H   LIG    1        4.430   6.319  -0.813  0.00  0.00    +0.420 HD
ATOM      3  C   LIG    1        2.784   7.472  -0.651  0.00  0.00    +0.520 C 
ATOM      4  O   LIG    1        2.319   8.568  -0.884  0.00  0.00    -0.490 OA
ENDROOT
BRANCH   1  10
ATOM      5  C   LIG    1        4.300  10.098  -4.997  0.00  0.00    +0.120 C 
ATOM      6  C   LIG    1        4.910   9.517  -3.748  0.00  0.00    -0.020 A 
ATOM      7  C   LIG    1        6.187   9.886  -3.367  0.00  0.00    +0.020 A 
ATOM      8  C   LIG    1        6.751   9.355  -2.221  0.00  0.00    +0.120 A 
ATOM      9  C   LIG    1        6.039   8.455  -1.453  0.00  0.00    -0.070 A 
ATOM     10  C   LIG    1        4.756   8.082  -1.833  0.00  0.00    +0.220 A 
ATOM     11  C   LIG    1        4.195   8.613  -2.987  0.00  0.00    -0.080 A 
ATOM     12  C   LIG    1        2.806   8.207  -3.406  0.00  0.00    +0.110 C 
BRANCH   9  13
ATOM     13  N   LIG    1        6.643   7.888  -0.227  0.00  0.00    +0.040 N 
ATOM     14  O   LIG    1        6.051   7.027   0.401  0.00  0.00    -0.170 OA
ATOM     15  O   LIG    1        7.731   8.281   0.155  0.00  0.00    -0.160 OA
ENDBRANCH   9  13
ENDBRANCH   1  10
BRANCH   3  16
ATOM     16  C   LIG    1        1.965   6.449   0.093  0.00  0.00    +0.220 C 
BRANCH  16  17
ATOM     17  N   LIG    1        0.651   7.018   0.422  0.00  0.00    -0.510 NA
ATOM     18  C   LIG    1       -0.190   7.128  -0.777  0.00  0.00    +0.200 C 
BRANCH  17  19
ATOM     19  C   LIG    1       -0.018   6.229   1.465  0.00  0.00    +0.230 C 
ATOM     20  C   LIG    1       -0.041   4.736   1.075  0.00  0.00    +0.000 C 
ATOM     21  C   LIG    1        0.112   4.034   2.441  0.00  0.00    +0.080 C 
ATOM     22  C   LIG    1        0.844   5.028   3.317  0.00  0.00    -0.100 A 
ATOM     23  C   LIG    1        1.527   4.842   4.507  0.00  0.00    +0.010 A 
ATOM     24  C   LIG    1        2.123   5.915   5.141  0.00  0.00    +0.010 A 
ATOM     25  C   LIG    1        2.048   7.176   4.581  0.00  0.00    +0.000 A 
ATOM     26  C   LIG    1        1.373   7.362   3.390  0.00  0.00    +0.040 A 
ATOM     27  C   LIG    1        0.769   6.289   2.756  0.00  0.00    -0.100 A 
ENDBRANCH  17  19
ENDBRANCH  16  17
ENDBRANCH   3  16
TORSDOF 5
