REMARK  Name = ZINCqH0000051sLF.0
REMARK                            x       y       z     vdW  Elec       q    Type
REMARK                         _______ _______ _______ _____ _____    ______ ____
ROOT
ATOM      1  O   LIG    1        0.619   5.628  -3.212  0.00  0.00    -0.500 OA
ATOM      2  C   LIG    1        0.635   5.538  -2.002  0.00  0.00    +0.530 C 
ATOM      3  N   LIG    1        1.775   5.777  -1.324  0.00  0.00    -0.680 N 
ATOM      4  H   LIG    1        1.818   5.600  -0.371  0.00  0.00    +0.410 HD
ENDROOT
BRANCH   2   5
ATOM      5  C   LIG    1       -0.619   5.159  -1.258  0.00  0.00    +0.050 C 
ATOM      6  C   LIG    1       -1.832   5.785  -1.952  0.00  0.00    +0.040 C 
ATOM      7  C   LIG    1       -3.101   5.155  -1.365  0.00  0.00    +0.250 C 
ATOM      8  O   LIG    1       -3.111   3.767  -1.700  0.00  0.00    -0.310 OA
ATOM      9  C   LIG    1       -1.985   3.047  -1.460  0.00  0.00    +0.150 A 
ATOM     10  C   LIG    1       -2.075   1.659  -1.439  0.00  0.00    -0.020 A 
ATOM     11  C   LIG    1       -0.953   0.894  -1.198  0.00  0.00    +0.050 A 
ATOM     12  C   LIG    1        0.269   1.506  -0.987  0.00  0.00    -0.020 A 
ATOM     13  C   LIG    1        0.363   2.885  -1.010  0.00  0.00    +0.040 A 
ATOM     14  C   LIG    1       -0.761   3.658  -1.245  0.00  0.00    -0.160 A 
ENDBRANCH   2   5
BRANCH   3  15
ATOM     15  C   LIG    1        2.897   6.280  -1.994  0.00  0.00    +0.150 A 
ATOM     16  C   LIG    1        2.735   7.157  -3.058  0.00  0.00    +0.030 A 
ATOM     17  C   LIG    1        3.842   7.657  -3.715  0.00  0.00    +0.050 A 
ATOM     18  C   LIG    1        5.115   7.274  -3.321  0.00  0.00    +0.080 A 
ATOM     19  C   LIG    1        5.278   6.392  -2.261  0.00  0.00    +0.050 A 
ATOM     20  C   LIG    1        4.172   5.896  -1.600  0.00  0.00    +0.000 A 
BRANCH  18  21
ATOM     21  O   LIG    1        6.205   7.762  -3.972  0.00  0.00    -0.230 OA
BRANCH  21  22
ATOM     22  C   LIG    1        6.881   6.926  -4.795  0.00  0.00    +0.490 A 
ATOM     23  N   LIG    1        6.527   5.651  -4.854  0.00  0.00    -0.560 NA
ATOM     24  C   LIG    1        7.163   4.809  -5.652  0.00  0.00    +0.360 A 
ATOM     25  C   LIG    1        8.216   5.273  -6.423  0.00  0.00    -0.110 A 
ATOM     26  C   LIG    1        8.563   6.612  -6.333  0.00  0.00    +0.370 A 
ATOM     27  N   LIG    1        7.882   7.401  -5.519  0.00  0.00    -0.520 NA
ENDBRANCH  21  22
ENDBRANCH  18  21
ENDBRANCH   3  15
TORSDOF 4
