REMARK  Name = ZINCpe000000WYUQ.0
REMARK                            x       y       z     vdW  Elec       q    Type
REMARK                         _______ _______ _______ _____ _____    ______ ____
ROOT
ATOM      1  N   LIG    1        2.841   3.830  -0.166  0.00  0.00    -0.740 N 
ATOM      2  H   LIG    1        3.576   3.216  -0.315  0.00  0.00    +0.400 HD
ATOM      3  C   LIG    1        1.584   3.361  -0.041  0.00  0.00    +0.700 C 
ATOM      4  N   LIG    1        1.348   2.036  -0.125  0.00  0.00    -0.750 N 
ATOM      5  H   LIG    1        2.083   1.421  -0.274  0.00  0.00    +0.400 HD
ATOM      6  O   LIG    1        0.662   4.132   0.146  0.00  0.00    -0.580 OA
ENDROOT
BRANCH   1  11
ATOM      7  C   LIG    1        5.105   9.236   0.230  0.00  0.00    +0.090 C 
ATOM      8  C   LIG    1        4.857   7.735   0.395  0.00  0.00    -0.430 C 
ATOM      9  C   LIG    1        4.544   7.115  -0.969  0.00  0.00    +0.090 C 
ATOM     10  C   LIG    1        4.380   5.605  -0.830  0.00  0.00    +0.030 C 
ATOM     11  C   LIG    1        3.097   5.270  -0.075  0.00  0.00    +0.290 C 
ATOM     12  C   LIG    1        3.237   5.669   1.396  0.00  0.00    -0.350 C 
ATOM     13  S   LIG    1        3.441   7.471   1.503  0.00  0.00    +2.420 S 
ATOM     14  O   LIG    1        2.297   8.095   0.936  0.00  0.00    -0.920 OA
ATOM     15  O   LIG    1        3.832   7.807   2.827  0.00  0.00    -0.940 OA
ENDBRANCH   1  11
BRANCH   4  16
ATOM     16  C   LIG    1       -0.019   1.526   0.010  0.00  0.00    +0.310 C 
BRANCH  16  17
ATOM     17  C   LIG    1        0.006  -0.004   0.005  0.00  0.00    +0.050 C 
ATOM     18  C   LIG    1        0.753  -0.504   1.258  0.00  0.00    -0.280 C 
ATOM     19  S   LIG    1       -0.144  -2.072   1.582  0.00  0.00    +2.470 S 
ATOM     20  C   LIG    1       -1.659  -1.633   0.766  0.00  0.00    -0.630 A 
ATOM     21  C   LIG    1       -2.911  -2.211   0.823  0.00  0.00    +0.140 A 
ATOM     22  C   LIG    1       -3.956  -1.680   0.091  0.00  0.00    +0.010 A 
ATOM     23  C   LIG    1       -3.730  -0.566  -0.695  0.00  0.00    +0.070 A 
ATOM     24  C   LIG    1       -2.479   0.005  -0.751  0.00  0.00    +0.020 A 
ATOM     25  O   LIG    1       -0.474  -2.209   2.958  0.00  0.00    -0.930 OA
ATOM     26  O   LIG    1        0.397  -3.147   0.828  0.00  0.00    -0.920 OA
ATOM     27  C   LIG    1       -1.411  -0.523  -0.020  0.00  0.00    -0.040 A 
ENDBRANCH  16  17
ENDBRANCH   4  16
TORSDOF 3
