REMARK  Name = ZINCtV00000L6jar.0
REMARK                            x       y       z     vdW  Elec       q    Type
REMARK                         _______ _______ _______ _____ _____    ______ ____
ROOT
ATOM      1  N   LIG    1       -1.358  -2.119   0.194  0.00  0.00    -0.440 N 
ATOM      2  C   LIG    1       -1.285  -0.750   0.164  0.00  0.00    +0.410 A 
ATOM      3  N   LIG    1       -2.464  -0.222  -0.059  0.00  0.00    -0.460 NA
ATOM      4  C   LIG    1       -3.389  -1.193  -0.185  0.00  0.00    +0.260 A 
ATOM      5  N   LIG    1       -4.693  -1.199  -0.410  0.00  0.00    -0.390 NA
ATOM      6  C   LIG    1       -5.346  -2.363  -0.482  0.00  0.00    +0.100 A 
ATOM      7  C   LIG    1       -6.734  -2.384  -0.723  0.00  0.00    +0.060 A 
ATOM      8  C   LIG    1       -7.389  -3.574  -0.794  0.00  0.00    +0.040 A 
ATOM      9  C   LIG    1       -6.708  -4.779  -0.633  0.00  0.00    +0.050 A 
ATOM     10  C   LIG    1       -5.368  -4.799  -0.400  0.00  0.00    +0.050 A 
ATOM     11  C   LIG    1       -4.653  -3.590  -0.319  0.00  0.00    +0.110 A 
ATOM     12  N   LIG    1       -3.334  -3.599  -0.090  0.00  0.00    -0.420 NA
ATOM     13  C   LIG    1       -2.678  -2.465  -0.017  0.00  0.00    +0.240 A 
ENDROOT
BRANCH   2  14
ATOM     14  C   LIG    1       -0.041   0.026   0.351  0.00  0.00    -0.040 A 
ATOM     15  C   LIG    1        1.066  -0.562   0.964  0.00  0.00    +0.050 A 
ATOM     16  C   LIG    1        2.224   0.168   1.136  0.00  0.00    +0.030 A 
ATOM     17  C   LIG    1        2.290   1.480   0.703  0.00  0.00    +0.060 A 
ATOM     18  C   LIG    1        1.195   2.070   0.094  0.00  0.00    -0.040 A 
ATOM     19 CL   LIG    1        1.287   3.717  -0.447  0.00  0.00    -0.050 Cl
ATOM     20  C   LIG    1        0.030   1.351  -0.085  0.00  0.00    +0.100 A 
ENDBRANCH   2  14
BRANCH   1  24
ATOM     21  C   LIG    1        1.814  -4.750   0.816  0.00  0.00    -0.060 A 
ATOM     22  C   LIG    1        0.823  -4.626   1.772  0.00  0.00    +0.040 A 
ATOM     23  C   LIG    1       -0.230  -3.755   1.569  0.00  0.00    +0.040 A 
ATOM     24  C   LIG    1       -0.291  -3.003   0.403  0.00  0.00    +0.110 A 
ATOM     25  C   LIG    1        0.703  -3.133  -0.557  0.00  0.00    +0.030 A 
ATOM     26  C   LIG    1        1.756  -4.002  -0.345  0.00  0.00    +0.040 A 
BRANCH  21  28
ATOM     27  C   LIG    1        2.981  -6.748  -0.075  0.00  0.00    +0.030 C 
ATOM     28  C   LIG    1        2.961  -5.701   1.041  0.00  0.00    +0.020 C 
ATOM     29  C   LIG    1        4.278  -4.923   1.035  0.00  0.00    +0.030 C 
ENDBRANCH  21  28
ENDBRANCH   1  24
TORSDOF 3
