REMARK  Name = ZINCrH00000No4UU.0
REMARK                            x       y       z     vdW  Elec       q    Type
REMARK                         _______ _______ _______ _____ _____    ______ ____
ROOT
ATOM      1  C   LIG    1        7.186  -0.021  -0.066  0.00  0.00    +0.590 C 
ATOM      2  N   LIG    1        6.029  -0.711  -0.058  0.00  0.00    -0.580 N 
ATOM      3  H   LIG    1        6.042  -1.680  -0.063  0.00  0.00    +0.380 HD
ATOM      4  O   LIG    1        7.170   1.196  -0.059  0.00  0.00    -0.500 OA
ENDROOT
BRANCH   1   9
ATOM      5  N   LIG    1       12.204  -2.503  -0.124  0.00  0.00    -0.490 N 
ATOM      6  C   LIG    1       10.879  -2.122  -0.110  0.00  0.00    +0.070 A 
ATOM      7  C   LIG    1        9.677  -2.819  -0.102  0.00  0.00    +0.020 A 
ATOM      8  C   LIG    1        8.492  -2.142  -0.083  0.00  0.00    +0.050 A 
ATOM      9  C   LIG    1        8.475  -0.741  -0.081  0.00  0.00    -0.150 A 
ATOM     10  C   LIG    1        9.669  -0.026  -0.089  0.00  0.00    +0.160 A 
ATOM     11  C   LIG    1       10.881  -0.715  -0.103  0.00  0.00    +0.040 A 
ATOM     12  N   LIG    1       12.181  -0.321  -0.114  0.00  0.00    -0.480 NA
ATOM     13  C   LIG    1       12.954  -1.367  -0.126  0.00  0.00    +0.290 A 
ATOM     14  C   LIG    1       14.460  -1.327  -0.141  0.00  0.00    +0.190 C 
BRANCH   5  16
ATOM     15  C   LIG    1       12.902  -4.362   1.303  0.00  0.00    +0.030 C 
ATOM     16  C   LIG    1       12.711  -3.877  -0.135  0.00  0.00    +0.290 C 
ENDBRANCH   5  16
ENDBRANCH   1   9
BRANCH   2  17
ATOM     17  N   LIG    1        4.806  -0.027  -0.043  0.00  0.00    -0.200 NA
ATOM     18  C   LIG    1        3.691  -0.691  -0.036  0.00  0.00    +0.220 C 
BRANCH  18  19
ATOM     19  C   LIG    1        2.404   0.028  -0.021  0.00  0.00    -0.070 A 
ATOM     20  C   LIG    1        1.203  -0.683  -0.013  0.00  0.00    +0.080 A 
ATOM     21  C   LIG    1        0.002  -0.004   0.002  0.00  0.00    -0.020 A 
ATOM     22  C   LIG    1       -0.017   1.380   0.010  0.00  0.00    +0.070 A 
ATOM     23  C   LIG    1        1.166   2.095   0.002  0.00  0.00    -0.060 A 
ATOM     24  C   LIG    1        2.381   1.429  -0.013  0.00  0.00    +0.140 A 
BRANCH  24  25
ATOM     25  O   LIG    1        3.543   2.131  -0.020  0.00  0.00    -0.280 OA
BRANCH  25  26
ATOM     26  C   LIG    1        3.441   3.557  -0.011  0.00  0.00    +0.590 C 
ATOM     27  F   LIG    1        2.760   3.968   1.140  0.00  0.00    -0.200 F 
ATOM     28  F   LIG    1        2.739   3.981  -1.145  0.00  0.00    -0.200 F 
ENDBRANCH  25  26
ENDBRANCH  24  25
ENDBRANCH  18  19
ENDBRANCH   2  17
TORSDOF 6
