REMARK  Name = ZINCpe00000MG8GS.0
REMARK                            x       y       z     vdW  Elec       q    Type
REMARK                         _______ _______ _______ _____ _____    ______ ____
ROOT
ATOM      1  O   LIG    1       -1.257  -1.975   0.006  0.00  0.00    -0.520 OA
ATOM      2  C   LIG    1       -1.271  -0.760   0.012  0.00  0.00    +0.560 C 
ATOM      3  N   LIG    1       -2.446  -0.100   0.029  0.00  0.00    -0.710 N 
ATOM      4  H   LIG    1       -2.458   0.870   0.035  0.00  0.00    +0.400 HD
ENDROOT
BRANCH   2   5
ATOM      5  C   LIG    1        0.002  -0.004   0.002  0.00  0.00    -0.100 A 
ATOM      6  C   LIG    1       -0.017   1.392   0.010  0.00  0.00    +0.040 A 
ATOM      7  C   LIG    1        1.165   2.102   0.002  0.00  0.00    +0.080 A 
ATOM      8  C   LIG    1        2.381   1.423  -0.014  0.00  0.00    -0.140 A 
ATOM      9  C   LIG    1        3.663   2.160  -0.016  0.00  0.00    +0.570 C 
ATOM     10  N   LIG    1        4.620   1.802  -0.905  0.00  0.00    -0.720 N 
ATOM     11  H   LIG    1        5.493   2.223  -0.878  0.00  0.00    +0.410 HD
ATOM     12  C   LIG    1        4.326   0.777  -1.908  0.00  0.00    +0.260 C 
ATOM     13  C   LIG    1        4.319  -0.609  -1.277  0.00  0.00    +0.230 C 
ATOM     14  O   LIG    1        3.599  -0.624  -0.051  0.00  0.00    -0.320 OA
ATOM     15  O   LIG    1        3.854   3.070   0.767  0.00  0.00    -0.520 OA
ATOM     16  C   LIG    1        2.405   0.019  -0.025  0.00  0.00    +0.120 A 
ATOM     17  C   LIG    1        1.216  -0.689  -0.015  0.00  0.00    +0.080 A 
ENDBRANCH   2   5
BRANCH   3  18
ATOM     18  C   LIG    1       -3.706  -0.847   0.040  0.00  0.00    +0.250 C 
ATOM     19  C   LIG    1       -4.479  -0.776  -1.289  0.00  0.00    +0.190 C 
ATOM     20  N   LIG    1       -5.694  -0.612  -0.460  0.00  0.00    -0.430 N 
ATOM     21  C   LIG    1       -4.884  -0.069   0.653  0.00  0.00    +0.220 C 
BRANCH  20  22
ATOM     22  C   LIG    1       -6.530   0.364  -0.990  0.00  0.00    +0.270 A 
ATOM     23  C   LIG    1       -7.374   0.046  -2.049  0.00  0.00    -0.020 A 
ATOM     24  C   LIG    1       -8.202   1.027  -2.566  0.00  0.00    +0.080 A 
ATOM     25  C   LIG    1       -8.158   2.296  -2.004  0.00  0.00    -0.050 A 
ATOM     26  C   LIG    1       -7.295   2.541  -0.954  0.00  0.00    +0.280 A 
ATOM     27  N   LIG    1       -6.521   1.585  -0.478  0.00  0.00    -0.510 NA
ENDBRANCH  20  22
ENDBRANCH   3  18
TORSDOF 3
