REMARK  Name = ZINCbu0000000Gx8.0
REMARK                            x       y       z     vdW  Elec       q    Type
REMARK                         _______ _______ _______ _____ _____    ______ ____
ROOT
ATOM      1  C   LIG    1       -0.013   1.086   0.008  0.00  0.00    -0.020 C 
ATOM      2  C   LIG    1       -0.748   1.594  -1.235  0.00  0.00    +0.040 C 
ATOM      3  C   LIG    1        0.022   1.159  -2.485  0.00  0.00    +0.050 C 
ATOM      4  C   LIG    1        1.456   1.687  -2.404  0.00  0.00    +0.250 C 
ATOM      5  N   LIG    1        2.113   1.145  -1.209  0.00  0.00    -0.500 N 
ATOM      6  H   LIG    1        2.085   0.137  -1.239  0.00  0.00    +0.430 HD
ATOM      7  H   LIG    1        3.074   1.452  -1.187  0.00  0.00    +0.430 HD
ATOM      8  C   LIG    1        1.423   1.616  -0.003  0.00  0.00    +0.250 C 
ENDROOT
BRANCH   1   9
ATOM      9  C   LIG    1       -0.731   1.580   1.265  0.00  0.00    +0.030 C 
BRANCH   9  10
ATOM     10  C   LIG    1       -2.123   0.951   1.338  0.00  0.00    +0.020 C 
BRANCH  10  12
ATOM     11  C   LIG    1       -3.083   2.952   2.486  0.00  0.00    +0.020 C 
ATOM     12  C   LIG    1       -2.841   1.446   2.595  0.00  0.00    -0.030 C 
ATOM     13  C   LIG    1       -4.183   0.723   2.734  0.00  0.00    +0.030 C 
ENDBRANCH  10  12
ENDBRANCH   9  10
ENDBRANCH   1   9
TORSDOF 3
