REMARK  Name = ZINCkj00000GePWs.1
REMARK                            x       y       z     vdW  Elec       q    Type
REMARK                         _______ _______ _______ _____ _____    ______ ____
ROOT
ATOM      1  N   LIG    1       -0.296   5.607   2.486  0.00  0.00    -0.750 N 
ATOM      2  H   LIG    1       -0.259   5.047   3.277  0.00  0.00    +0.400 HD
ATOM      3  C   LIG    1        0.236   5.172   1.327  0.00  0.00    +0.710 C 
ATOM      4  N   LIG    1        0.819   3.958   1.267  0.00  0.00    -0.730 N 
ATOM      5  H   LIG    1        0.855   3.398   2.058  0.00  0.00    +0.400 HD
ATOM      6  O   LIG    1        0.191   5.874   0.336  0.00  0.00    -0.570 OA
ENDROOT
BRANCH   1   7
ATOM      7  C   LIG    1       -0.929   6.927   2.551  0.00  0.00    +0.300 C 
BRANCH   7   8
ATOM      8  C   LIG    1       -1.447   7.175   3.970  0.00  0.00    +0.250 C 
BRANCH   8  15
ATOM      9  C   LIG    1       -1.590   8.664   6.427  0.00  0.00    +0.090 C 
ATOM     10  C   LIG    1       -2.686   8.684   5.359  0.00  0.00    +0.170 C 
ATOM     11  C   LIG    1       -3.418  10.027   5.406  0.00  0.00    +0.060 C 
ATOM     12  C   LIG    1       -2.420  11.156   5.135  0.00  0.00    +0.040 C 
ATOM     13  C   LIG    1       -1.742  10.911   3.784  0.00  0.00    +0.060 C 
ATOM     14  C   LIG    1       -1.071   9.536   3.800  0.00  0.00    +0.240 C 
ATOM     15  N   LIG    1       -2.082   8.498   4.035  0.00  0.00    -0.370 N 
ATOM     16  H   LIG    1       -2.799   8.561   3.327  0.00  0.00    +0.430 HD
ENDBRANCH   8  15
ENDBRANCH   7   8
ENDBRANCH   1   7
BRANCH   4  17
ATOM     17  C   LIG    1        1.397   3.484   0.007  0.00  0.00    +0.300 C 
BRANCH  17  18
ATOM     18  C   LIG    1        2.826   4.014  -0.129  0.00  0.00    -0.050 C 
ATOM     19  C   LIG    1        3.438   4.715   1.085  0.00  0.00    +0.010 C 
ATOM     20  C   LIG    1        3.018   5.532  -0.139  0.00  0.00    +0.030 C 
ENDBRANCH  17  18
BRANCH  17  21
ATOM     21  C   LIG    1        1.418   1.954  -0.001  0.00  0.00    +0.040 C 
BRANCH  21  22
ATOM     22  C   LIG    1       -0.017   1.425   0.010  0.00  0.00    +0.170 C 
BRANCH  22  23
ATOM     23  O   LIG    1        0.002  -0.004   0.002  0.00  0.00    -0.570 OA
ATOM     24  H   LIG    1       -0.876  -0.409   0.008  0.00  0.00    +0.380 HD
ENDBRANCH  22  23
ENDBRANCH  21  22
ENDBRANCH  17  21
ENDBRANCH   4  17
TORSDOF 8
