REMARK  Name = ZINCkj00000GePWs.0
REMARK                            x       y       z     vdW  Elec       q    Type
REMARK                         _______ _______ _______ _____ _____    ______ ____
ROOT
ATOM      1  N   LIG    1       -0.319  -1.869  -3.003  0.00  0.00    -0.750 N 
ATOM      2  H   LIG    1       -0.281  -1.579  -3.928  0.00  0.00    +0.400 HD
ATOM      3  C   LIG    1       -0.939  -1.105  -2.082  0.00  0.00    +0.710 C 
ATOM      4  N   LIG    1       -1.506   0.062  -2.446  0.00  0.00    -0.730 N 
ATOM      5  H   LIG    1       -1.468   0.352  -3.371  0.00  0.00    +0.400 HD
ATOM      6  O   LIG    1       -0.986  -1.468  -0.923  0.00  0.00    -0.580 OA
ENDROOT
BRANCH   1   7
ATOM      7  C   LIG    1        0.297  -3.138  -2.607  0.00  0.00    +0.300 C 
BRANCH   7   8
ATOM      8  C   LIG    1        0.927  -3.803  -3.833  0.00  0.00    +0.250 C 
BRANCH   8  15
ATOM      9  C   LIG    1        3.290  -4.642  -5.097  0.00  0.00    +0.080 C 
ATOM     10  C   LIG    1        2.259  -5.649  -4.582  0.00  0.00    +0.170 C 
ATOM     11  C   LIG    1        2.972  -6.934  -4.153  0.00  0.00    +0.060 C 
ATOM     12  C   LIG    1        1.937  -7.938  -3.639  0.00  0.00    +0.040 C 
ATOM     13  C   LIG    1        1.148  -7.301  -2.492  0.00  0.00    +0.050 C 
ATOM     14  C   LIG    1        0.503  -6.003  -2.982  0.00  0.00    +0.250 C 
ATOM     15  N   LIG    1        1.545  -5.075  -3.436  0.00  0.00    -0.380 N 
ATOM     16  H   LIG    1        2.198  -4.911  -2.684  0.00  0.00    +0.420 HD
ENDBRANCH   8  15
ENDBRANCH   7   8
ENDBRANCH   1   7
BRANCH   4  17
ATOM     17  C   LIG    1       -2.179   0.893  -1.445  0.00  0.00    +0.290 C 
BRANCH  17  18
ATOM     18  C   LIG    1       -1.150   1.781  -0.743  0.00  0.00    -0.070 C 
ATOM     19  C   LIG    1       -0.013   1.086   0.008  0.00  0.00    +0.030 C 
ATOM     20  C   LIG    1       -1.136   1.773   0.788  0.00  0.00    +0.030 C 
ENDBRANCH  17  18
BRANCH  17  21
ATOM     21  C   LIG    1       -3.227   1.772  -2.132  0.00  0.00    +0.050 C 
BRANCH  21  22
ATOM     22  C   LIG    1       -4.323   0.887  -2.728  0.00  0.00    +0.170 C 
BRANCH  22  23
ATOM     23  O   LIG    1       -5.301   1.708  -3.371  0.00  0.00    -0.570 OA
ATOM     24  H   LIG    1       -6.028   1.212  -3.772  0.00  0.00    +0.380 HD
ENDBRANCH  22  23
ENDBRANCH  21  22
ENDBRANCH  17  21
ENDBRANCH   4  17
TORSDOF 8
