REMARK  Name = ZINCvU0000000JMd.0
REMARK                            x       y       z     vdW  Elec       q    Type
REMARK                         _______ _______ _______ _____ _____    ______ ____
ROOT
ATOM      1  C   LIG    1        4.243  -4.151   1.779  0.00  0.00    +0.100 C 
ENDROOT
BRANCH   1   5
ATOM      2  C   LIG    1        7.841  -5.513   3.641  0.00  0.00    +0.130 A 
ATOM      3  C   LIG    1        6.913  -4.784   4.371  0.00  0.00    -0.020 A 
ATOM      4  C   LIG    1        5.751  -4.345   3.767  0.00  0.00    +0.070 A 
ATOM      5  C   LIG    1        5.512  -4.631   2.436  0.00  0.00    -0.110 A 
ATOM      6  C   LIG    1        6.432  -5.362   1.707  0.00  0.00    +0.060 A 
ATOM      7  C   LIG    1        7.599  -5.798   2.305  0.00  0.00    -0.080 A 
BRANCH   2   8
ATOM      8  O   LIG    1        8.985  -5.946   4.233  0.00  0.00    -0.310 OA
BRANCH   8   9
ATOM      9  C   LIG    1        9.894  -6.691   3.420  0.00  0.00    +0.300 C 
BRANCH   9  16
ATOM     10  C   LIG    1       12.657  -5.036   3.811  0.00  0.00    +0.160 C 
ATOM     11  C   LIG    1       12.302  -6.369   4.416  0.00  0.00    +0.040 A 
ATOM     12  N   LIG    1       13.045  -7.090   5.206  0.00  0.00    -0.360 NA
ATOM     13  O   LIG    1       12.490  -8.116   5.526  0.00  0.00    +0.100 OA
ATOM     14  C   LIG    1       11.270  -8.208   4.978  0.00  0.00    +0.000 A 
ATOM     15  C   LIG    1       10.288  -9.338   5.147  0.00  0.00    +0.190 C 
ATOM     16  C   LIG    1       11.095  -7.084   4.241  0.00  0.00    -0.220 A 
ENDBRANCH   9  16
ENDBRANCH   8   9
ENDBRANCH   2   8
ENDBRANCH   1   5
BRANCH   1  17
ATOM     17  C   LIG    1        4.471  -2.785   1.184  0.00  0.00    +0.510 C 
ATOM     18  N   LIG    1        3.469  -2.155   0.541  0.00  0.00    -0.730 N 
ATOM     19  H   LIG    1        2.600  -2.579   0.462  0.00  0.00    +0.400 HD
ATOM     20  O   LIG    1        5.557  -2.254   1.283  0.00  0.00    -0.530 OA
BRANCH  18  21
ATOM     21  C   LIG    1        3.690  -0.827  -0.037  0.00  0.00    +0.280 C 
ATOM     22  C   LIG    1        4.244  -0.975  -1.456  0.00  0.00    +0.040 C 
BRANCH  21  23
ATOM     23  C   LIG    1        2.385  -0.075  -0.083  0.00  0.00    -0.080 A 
ATOM     24  C   LIG    1        1.208  -0.752  -0.167  0.00  0.00    +0.010 A 
ATOM     25  C   LIG    1       -0.009  -0.074  -0.210  0.00  0.00    +0.020 A 
ATOM     26  C   LIG    1       -0.055   1.286  -0.170  0.00  0.00    +0.030 A 
ATOM     27  C   LIG    1        1.140   2.020  -0.084  0.00  0.00    -0.050 A 
ATOM     28  C   LIG    1        1.132   3.424  -0.039  0.00  0.00    +0.020 A 
ATOM     29  C   LIG    1        2.310   4.102   0.046  0.00  0.00    +0.010 A 
ATOM     30  C   LIG    1        3.526   3.424   0.089  0.00  0.00    +0.020 A 
ATOM     31  C   LIG    1        3.572   2.064   0.048  0.00  0.00    +0.020 A 
ATOM     32  C   LIG    1        2.378   1.330  -0.039  0.00  0.00    -0.040 A 
ENDBRANCH  21  23
ENDBRANCH  18  21
ENDBRANCH   1  17
TORSDOF 7
