REMARK  Name = ZINCrD0000072pZr.0
REMARK                            x       y       z     vdW  Elec       q    Type
REMARK                         _______ _______ _______ _____ _____    ______ ____
ROOT
ATOM      1  C   LIG    1       -2.130  -5.326   1.438  0.00  0.00    +0.050 C 
ENDROOT
BRANCH   1   2
ATOM      2  C   LIG    1       -2.364  -5.778   2.881  0.00  0.00    +0.210 C 
BRANCH   2   3
ATOM      3  O   LIG    1       -3.069  -7.048   2.881  0.00  0.00    -0.350 OA
BRANCH   3   4
ATOM      4  C   LIG    1       -3.354  -7.588   4.083  0.00  0.00    +0.540 C 
ATOM      5  O   LIG    1       -3.023  -7.014   5.102  0.00  0.00    -0.520 OA
BRANCH   4   9
ATOM      6  N   LIG    1       -5.063 -10.683   4.937  0.00  0.00    -0.430 N 
ATOM      7  C   LIG    1       -5.128 -10.772   3.577  0.00  0.00    +0.010 A 
ATOM      8  C   LIG    1       -4.535  -9.693   3.037  0.00  0.00    +0.010 A 
ATOM      9  C   LIG    1       -4.067  -8.873   4.160  0.00  0.00    -0.230 A 
ATOM     10  C   LIG    1       -5.763 -11.899   2.804  0.00  0.00    +0.130 C 
ATOM     11  C   LIG    1       -4.426  -9.555   5.303  0.00  0.00    +0.120 A 
ATOM     12  C   LIG    1       -4.154  -9.114   6.718  0.00  0.00    +0.150 C 
BRANCH   6  14
ATOM     13  C   LIG    1       -4.532 -12.724   6.175  0.00  0.00    +0.040 C 
ATOM     14  C   LIG    1       -5.605 -11.677   5.867  0.00  0.00    +0.280 C 
ENDBRANCH   6  14
ENDBRANCH   4   9
ENDBRANCH   3   4
ENDBRANCH   2   3
ENDBRANCH   1   2
BRANCH   1  15
ATOM     15  C   LIG    1       -1.387  -3.988   1.438  0.00  0.00    +0.000 C 
BRANCH  15  16
ATOM     16  C   LIG    1       -1.153  -3.535  -0.005  0.00  0.00    +0.310 C 
BRANCH  16  17
ATOM     17  N   LIG    1       -0.442  -2.255  -0.006  0.00  0.00    -0.580 N 
ATOM     18  C   LIG    1       -1.042  -1.051   0.006  0.00  0.00    +0.570 C 
ATOM     19  C   LIG    1        0.002  -0.004   0.002  0.00  0.00    -0.140 A 
ATOM     20  C   LIG    1       -0.017   1.381   0.010  0.00  0.00    +0.100 A 
ATOM     21  C   LIG    1        1.178   2.085   0.002  0.00  0.00    +0.050 A 
ATOM     22  C   LIG    1        2.386   1.414  -0.012  0.00  0.00    +0.050 A 
ATOM     23  C   LIG    1        2.420   0.028  -0.020  0.00  0.00    +0.100 A 
ATOM     24  C   LIG    1        1.234  -0.689  -0.013  0.00  0.00    -0.140 A 
ATOM     25  O   LIG    1       -2.240  -0.856   0.020  0.00  0.00    -0.460 OA
ATOM     26  C   LIG    1        0.898  -2.128  -0.018  0.00  0.00    +0.570 C 
ATOM     27  O   LIG    1        1.696  -3.043  -0.031  0.00  0.00    -0.460 OA
ENDBRANCH  16  17
ENDBRANCH  15  16
ENDBRANCH   1  15
TORSDOF 8
