REMARK  Name = ZINCrH000004qXUa.0
REMARK                            x       y       z     vdW  Elec       q    Type
REMARK                         _______ _______ _______ _____ _____    ______ ____
ROOT
ATOM      1  N   LIG    1        4.773   0.103   1.301  0.00  0.00    -0.620 N 
ATOM      2  H   LIG    1        4.675   1.066   1.362  0.00  0.00    +0.420 HD
ATOM      3  C   LIG    1        3.696  -0.671   1.060  0.00  0.00    +0.570 C 
ATOM      4  O   LIG    1        3.819  -1.878   0.985  0.00  0.00    -0.480 OA
ENDROOT
BRANCH   3   5
ATOM      5  C   LIG    1        2.364  -0.051   0.888  0.00  0.00    -0.170 A 
ATOM      6  C   LIG    1        2.230   1.340   0.840  0.00  0.00    +0.110 A 
ATOM      7  C   LIG    1        0.963   1.874   0.676  0.00  0.00    +0.040 A 
ATOM      8  C   LIG    1       -0.127   1.014   0.566  0.00  0.00    +0.120 A 
ATOM      9  N   LIG    1        0.036  -0.303   0.617  0.00  0.00    -0.460 NA
ATOM     10  C   LIG    1        1.221  -0.848   0.771  0.00  0.00    +0.200 A 
ATOM     11  C   LIG    1        1.351  -2.349   0.821  0.00  0.00    +0.160 C 
BRANCH   8  12
ATOM     12  C   LIG    1       -1.488   1.576   0.385  0.00  0.00    +0.560 C 
ATOM     13  N   LIG    1       -2.530   0.755   0.147  0.00  0.00    -0.600 N 
ATOM     14  C   LIG    1       -2.303  -0.679  -0.048  0.00  0.00    +0.300 C 
ATOM     15  C   LIG    1       -3.890   1.297   0.084  0.00  0.00    +0.300 C 
ATOM     16  O   LIG    1       -1.663   2.776   0.450  0.00  0.00    -0.520 OA
ENDBRANCH   8  12
ENDBRANCH   3   5
BRANCH   1  20
ATOM     17  C   LIG    1        8.229  -0.558   1.823  0.00  0.00    +0.130 A 
ATOM     18  C   LIG    1        8.066  -1.887   1.690  0.00  0.00    -0.110 A 
ATOM     19  S   LIG    1        6.361  -2.205   1.381  0.00  0.00    +0.210 S 
ATOM     20  C   LIG    1        6.023  -0.479   1.463  0.00  0.00    +0.270 A 
ATOM     21  N   LIG    1        7.125   0.165   1.693  0.00  0.00    -0.500 NA
BRANCH  17  26
ATOM     22  C   LIG    1       13.366   1.826   2.866  0.00  0.00    +0.090 C 
ATOM     23  C   LIG    1       12.022   1.202   2.593  0.00  0.00    -0.080 A 
ATOM     24  C   LIG    1       10.901   2.005   2.471  0.00  0.00    +0.010 A 
ATOM     25  C   LIG    1        9.668   1.439   2.221  0.00  0.00    +0.050 A 
ATOM     26  C   LIG    1        9.552   0.056   2.092  0.00  0.00    -0.030 A 
ATOM     27  C   LIG    1       10.683  -0.748   2.220  0.00  0.00    +0.030 A 
ATOM     28  C   LIG    1       11.912  -0.171   2.465  0.00  0.00    +0.010 A 
ENDBRANCH  17  26
ENDBRANCH   1  20
TORSDOF 4
