REMARK  Name = ZINCrD000000C98C.0
REMARK                            x       y       z     vdW  Elec       q    Type
REMARK                         _______ _______ _______ _____ _____    ______ ____
ROOT
ATOM      1  C   LIG    1       -3.571  -5.299   0.002  0.00  0.00    -0.050 A 
ATOM      2  C   LIG    1       -4.053  -3.985   0.016  0.00  0.00    +0.140 A 
ATOM      3  C   LIG    1       -3.130  -2.954   0.010  0.00  0.00    -0.030 A 
ATOM      4  C   LIG    1       -1.776  -3.288  -0.020  0.00  0.00    +0.370 A 
ATOM      5  N   LIG    1       -1.407  -4.564  -0.032  0.00  0.00    -0.300 NA
ATOM      6  N   LIG    1       -2.262  -5.522  -0.021  0.00  0.00    -0.160 NA
ENDROOT
BRANCH   1   8
ATOM      7  O   LIG    1       -5.714  -6.230   0.035  0.00  0.00    -0.520 OA
ATOM      8  C   LIG    1       -4.516  -6.436   0.014  0.00  0.00    +0.590 C 
ATOM      9  N   LIG    1       -4.050  -7.700  -0.000  0.00  0.00    -0.660 N 
ATOM     10  H   LIG    1       -3.098  -7.865  -0.085  0.00  0.00    +0.420 HD
BRANCH   9  11
ATOM     11  C   LIG    1       -4.939  -8.774   0.108  0.00  0.00    +0.140 A 
ATOM     12  C   LIG    1       -4.561  -9.924   0.789  0.00  0.00    -0.010 A 
ATOM     13  C   LIG    1       -5.443 -10.981   0.899  0.00  0.00    +0.030 A 
ATOM     14  C   LIG    1       -6.697 -10.900   0.322  0.00  0.00    -0.010 A 
ATOM     15  C   LIG    1       -7.074  -9.759  -0.362  0.00  0.00    +0.030 A 
ATOM     16  C   LIG    1       -6.199  -8.696  -0.471  0.00  0.00    +0.020 A 
ENDBRANCH   9  11
ENDBRANCH   1   8
BRANCH   4  17
ATOM     17  N   LIG    1       -0.816  -2.289  -0.033  0.00  0.00    -0.690 N 
ATOM     18  H   LIG    1        0.126  -2.522  -0.050  0.00  0.00    +0.430 HD
BRANCH  17  19
ATOM     19  C   LIG    1       -1.223  -0.882  -0.020  0.00  0.00    +0.420 C 
BRANCH  19  20
ATOM     20  C   LIG    1        0.002  -0.004  -0.038  0.00  0.00    +0.250 A 
ATOM     21  N   LIG    1        1.242  -0.445  -0.061  0.00  0.00    -0.510 NA
ATOM     22  C   LIG    1        2.066   0.619  -0.070  0.00  0.00    +0.000 A 
ATOM     23  C   LIG    1        3.451   0.784  -0.093  0.00  0.00    +0.250 A 
ATOM     24  C   LIG    1        3.972   2.073  -0.096  0.00  0.00    -0.190 A 
ATOM     25  C   LIG    1        3.140   3.152  -0.077  0.00  0.00    +0.390 A 
ATOM     26  N   LIG    1        1.805   3.010  -0.056  0.00  0.00    -0.470 N 
ATOM     27  H   LIG    1        1.238   3.797  -0.043  0.00  0.00    +0.440 HD
ATOM     28 BR   LIG    1        5.845   2.330  -0.127  0.00  0.00    +0.010 Br
ATOM     29  C   LIG    1        1.236   1.767  -0.051  0.00  0.00    +0.240 A 
ATOM     30  N   LIG    1       -0.015   1.323  -0.032  0.00  0.00    -0.540 NA
ENDBRANCH  19  20
ENDBRANCH  17  19
ENDBRANCH   4  17
TORSDOF 5
