REMARK  Name = ZINCrD0000072C7y.0
REMARK                            x       y       z     vdW  Elec       q    Type
REMARK                         _______ _______ _______ _____ _____    ______ ____
ROOT
ATOM      1  C   LIG    1       -1.642   1.888   0.402  0.00  0.00    +0.300 C 
ATOM      2  N   LIG    1       -0.365   1.186   0.249  0.00  0.00    -0.620 N 
ATOM      3  C   LIG    1        0.813   1.794   0.031  0.00  0.00    +0.520 C 
ATOM      4  C   LIG    1        1.918   0.765  -0.071  0.00  0.00    +0.060 C 
ATOM      5  C   LIG    1        1.299  -0.517   0.531  0.00  0.00    +0.260 C 
ATOM      6  O   LIG    1        0.969   2.992  -0.070  0.00  0.00    -0.510 OA
ATOM      7  C   LIG    1       -0.210  -0.272   0.310  0.00  0.00    +0.270 C 
ENDROOT
BRANCH   7   8
ATOM      8  C   LIG    1       -1.006  -0.834   1.460  0.00  0.00    -0.070 A 
ATOM      9  C   LIG    1       -1.062  -0.150   2.660  0.00  0.00    +0.040 A 
ATOM     10  C   LIG    1       -1.796  -0.661   3.715  0.00  0.00    +0.070 A 
ATOM     11  C   LIG    1       -2.464  -1.864   3.574  0.00  0.00    -0.070 A 
ATOM     12  C   LIG    1       -2.403  -2.553   2.373  0.00  0.00    +0.120 A 
ATOM     13  F   LIG    1       -3.055  -3.727   2.233  0.00  0.00    -0.120 F 
ATOM     14 CL   LIG    1       -3.380  -2.509   4.900  0.00  0.00    -0.040 Cl
ATOM     15  C   LIG    1       -1.673  -2.036   1.316  0.00  0.00    +0.020 A 
ENDBRANCH   7   8
BRANCH   5  16
ATOM     16  N   LIG    1        1.749  -1.707  -0.195  0.00  0.00    -0.710 N 
ATOM     17  H   LIG    1        1.265  -2.008  -0.980  0.00  0.00    +0.410 HD
ATOM     18  C   LIG    1        2.835  -2.384   0.227  0.00  0.00    +0.570 C 
ATOM     19  O   LIG    1        3.440  -2.008   1.209  0.00  0.00    -0.500 OA
BRANCH  18  20
ATOM     20  C   LIG    1        3.298  -3.608  -0.520  0.00  0.00    -0.080 C 
ATOM     21  C   LIG    1        3.983  -4.713   0.289  0.00  0.00    +0.150 C 
ATOM     22  C   LIG    1        2.567  -4.919  -0.245  0.00  0.00    -0.080 C 
ATOM     23  C   LIG    1        2.292  -5.921  -1.380  0.00  0.00    +0.060 C 
ATOM     24  C   LIG    1        1.281  -6.921  -0.762  0.00  0.00    +0.020 C 
ATOM     25  C   LIG    1        0.385  -6.008   0.111  0.00  0.00    +0.020 C 
ATOM     26  C   LIG    1        1.363  -4.972   0.705  0.00  0.00    +0.060 C 
BRANCH  20  27
ATOM     27  C   LIG    1        3.777  -3.372  -1.891  0.00  0.00    +0.240 C 
ATOM     28  N   LIG    1        4.148  -3.189  -2.950  0.00  0.00    -0.400 NA
ENDBRANCH  20  27
ENDBRANCH  18  20
ENDBRANCH   5  16
TORSDOF 4
