REMARK  Name = ZINCpe000000WOBp.0
REMARK                            x       y       z     vdW  Elec       q    Type
REMARK                         _______ _______ _______ _____ _____    ______ ____
ROOT
ATOM      1  N   LIG    1        0.005  -0.004  -0.003  0.00  0.00    -0.730 N 
ATOM      2  H   LIG    1        0.779  -0.481   0.336  0.00  0.00    +0.390 HD
ATOM      3  C   LIG    1       -1.052  -0.690  -0.483  0.00  0.00    +0.700 C 
ATOM      4  N   LIG    1       -1.033  -2.037  -0.492  0.00  0.00    -0.690 N 
ATOM      5  H   LIG    1       -0.234  -2.513  -0.216  0.00  0.00    +0.410 HD
ATOM      6  O   LIG    1       -2.022  -0.092  -0.908  0.00  0.00    -0.560 OA
ENDROOT
BRANCH   4   7
ATOM      7  C   LIG    1       -2.166  -2.750  -0.900  0.00  0.00    +0.220 A 
ATOM      8  C   LIG    1       -2.480  -3.961  -0.297  0.00  0.00    -0.030 A 
ATOM      9  C   LIG    1       -3.602  -4.660  -0.698  0.00  0.00    +0.140 A 
ATOM     10  C   LIG    1       -4.406  -4.160  -1.706  0.00  0.00    -0.700 A 
ATOM     11  C   LIG    1       -4.093  -2.957  -2.312  0.00  0.00    +0.140 A 
ATOM     12  C   LIG    1       -2.976  -2.251  -1.912  0.00  0.00    +0.010 A 
BRANCH  10  13
ATOM     13  S   LIG    1       -5.832  -5.058  -2.220  0.00  0.00    +2.700 S 
ATOM     14  O   LIG    1       -6.712  -4.111  -2.809  0.00  0.00    -0.950 OA
ATOM     15  O   LIG    1       -6.201  -5.887  -1.126  0.00  0.00    -0.950 OA
BRANCH  13  16
ATOM     16  N   LIG    1       -5.358  -6.076  -3.438  0.00  0.00    -1.010 NA
ATOM     17  C   LIG    1       -5.408  -5.625  -4.831  0.00  0.00    +0.300 C 
ATOM     18  C   LIG    1       -4.889  -7.427  -3.122  0.00  0.00    +0.300 C 
ENDBRANCH  13  16
ENDBRANCH  10  13
ENDBRANCH   4   7
BRANCH   1  20
ATOM     19  C   LIG    1       -0.723   1.952   1.271  0.00  0.00    +0.040 C 
ATOM     20  C   LIG    1       -0.016   1.461   0.007  0.00  0.00    +0.240 C 
BRANCH  20  21
ATOM     21  C   LIG    1        1.419   1.991  -0.014  0.00  0.00    +0.340 C 
BRANCH  21  22
ATOM     22  N   LIG    1        2.132   1.425  -1.162  0.00  0.00    -0.630 N 
ATOM     23  C   LIG    1        2.905   0.173  -1.156  0.00  0.00    +0.250 C 
ATOM     24  C   LIG    1        3.430   0.059  -2.600  0.00  0.00    +0.260 C 
ATOM     25  O   LIG    1        2.910   1.250  -3.259  0.00  0.00    -0.330 OA
ATOM     26  C   LIG    1        2.192   1.965  -2.386  0.00  0.00    +0.640 C 
ATOM     27  O   LIG    1        1.644   3.010  -2.678  0.00  0.00    -0.510 OA
ENDBRANCH  21  22
ENDBRANCH  20  21
ENDBRANCH   1  20
TORSDOF 6
