REMARK  Name = ZINCkj000005lq7K.0
REMARK                            x       y       z     vdW  Elec       q    Type
REMARK                         _______ _______ _______ _____ _____    ______ ____
ROOT
ATOM      1  C   LIG    1       -2.625   8.889   1.522  0.00  0.00    +0.160 C 
ATOM      2  C   LIG    1       -1.384   9.780   1.432  0.00  0.00    +0.050 C 
ATOM      3  C   LIG    1       -0.128   8.907   1.392  0.00  0.00    +0.050 C 
ATOM      4  C   LIG    1       -0.172   8.013   0.149  0.00  0.00    +0.280 C 
ATOM      5  N   LIG    1       -1.432   7.257   0.155  0.00  0.00    -0.610 N 
ATOM      6  C   LIG    1       -1.428   5.914   0.046  0.00  0.00    +0.580 C 
ATOM      7  O   LIG    1       -2.479   5.306  -0.025  0.00  0.00    -0.490 OA
ATOM      8  C   LIG    1       -2.697   7.994   0.275  0.00  0.00    +0.310 C 
ENDROOT
BRANCH   6   9
ATOM      9  C   LIG    1       -0.148   5.181   0.012  0.00  0.00    -0.070 A 
ATOM     10  C   LIG    1        0.826   5.515  -0.916  0.00  0.00    +0.070 A 
ATOM     11  C   LIG    1        2.036   4.827  -0.954  0.00  0.00    +0.120 A 
ATOM     12  C   LIG    1        2.295   3.809  -0.083  0.00  0.00    +0.070 A 
ATOM     13  C   LIG    1        1.334   3.437   0.875  0.00  0.00    +0.100 A 
ATOM     14  N   LIG    1        1.571   2.442   1.736  0.00  0.00    -0.420 NA
ATOM     15  C   LIG    1        0.657   2.115   2.621  0.00  0.00    +0.290 A 
ATOM     16  C   LIG    1       -0.563   2.791   2.668  0.00  0.00    +0.270 A 
ATOM     17  N   LIG    1       -0.816   3.776   1.835  0.00  0.00    -0.420 NA
ATOM     18  F   LIG    1        2.969   5.172  -1.868  0.00  0.00    -0.120 F 
ATOM     19  C   LIG    1        0.097   4.126   0.927  0.00  0.00    +0.100 A 
ENDBRANCH   6   9
BRANCH   1  20
ATOM     20  N   LIG    1       -3.828   9.728   1.592  0.00  0.00    -0.630 N 
ATOM     21  H   LIG    1       -3.779  10.319   2.408  0.00  0.00    +0.440 HD
ATOM     22  H   LIG    1       -4.646   9.140   1.651  0.00  0.00    +0.440 HD
ATOM     23  H   LIG    1       -3.886  10.302   0.764  0.00  0.00    +0.440 HD
ENDBRANCH   1  20
TORSDOF 2
