REMARK  Name = ZINCpk000005QAZh.0
REMARK                            x       y       z     vdW  Elec       q    Type
REMARK                         _______ _______ _______ _____ _____    ______ ____
ROOT
ATOM      1  C   LIG    1       -0.720  -0.701  -0.894  0.00  0.00    +0.590 C 
ATOM      2  N   LIG    1       -0.048  -0.011   0.049  0.00  0.00    -0.600 N 
ATOM      3  C   LIG    1       -0.064   1.459   0.065  0.00  0.00    +0.300 C 
ATOM      4  C   LIG    1        1.381   1.961   0.142  0.00  0.00    +0.170 C 
ATOM      5  N   LIG    1        2.053   1.335   1.289  0.00  0.00    -0.530 NA
ATOM      6  C   LIG    1        2.135  -0.122   1.128  0.00  0.00    +0.170 C 
ATOM      7  C   LIG    1        0.720  -0.710   1.091  0.00  0.00    +0.280 C 
ATOM      8  O   LIG    1       -1.424  -0.112  -1.692  0.00  0.00    -0.520 OA
ENDROOT
BRANCH   1  15
ATOM      9  C   LIG    1       -1.992  -5.304   0.634  0.00  0.00    +0.180 C 
ATOM     10  C   LIG    1       -1.193  -4.378  -0.246  0.00  0.00    +0.060 A 
ATOM     11  N   LIG    1       -0.352  -4.874  -1.113  0.00  0.00    -0.200 NA
ATOM     12  N   LIG    1        0.359  -4.145  -1.892  0.00  0.00    -0.440 N 
ATOM     13  H   LIG    1        0.966  -4.574  -2.515  0.00  0.00    +0.440 HD
ATOM     14  C   LIG    1        0.287  -2.800  -1.872  0.00  0.00    +0.500 A 
ATOM     15  C   LIG    1       -0.603  -2.169  -0.958  0.00  0.00    -0.210 A 
ATOM     16  O   LIG    1        0.976  -2.133  -2.625  0.00  0.00    -0.520 OA
ATOM     17  C   LIG    1       -1.354  -2.992  -0.123  0.00  0.00    +0.010 A 
ATOM     18  C   LIG    1       -2.317  -2.409   0.880  0.00  0.00    +0.140 C 
ENDBRANCH   1  15
BRANCH   5  19
ATOM     19  C   LIG    1        3.385   1.918   1.501  0.00  0.00    +0.240 C 
BRANCH  19  20
ATOM     20  C   LIG    1        3.243   3.363   1.904  0.00  0.00    -0.120 A 
ATOM     21  C   LIG    1        3.430   4.363   0.969  0.00  0.00    +0.040 A 
ATOM     22  C   LIG    1        3.294   5.689   1.337  0.00  0.00    +0.000 A 
ATOM     23  C   LIG    1        2.982   6.016   2.644  0.00  0.00    +0.040 A 
ATOM     24  C   LIG    1        2.799   5.017   3.582  0.00  0.00    -0.020 A 
ATOM     25  C   LIG    1        2.929   3.689   3.213  0.00  0.00    +0.120 A 
ATOM     26  F   LIG    1        2.751   2.713   4.129  0.00  0.00    -0.130 F 
ENDBRANCH  19  20
ENDBRANCH   5  19
TORSDOF 3
