REMARK  Name = ZINCpe000000Y8jC.0
REMARK                            x       y       z     vdW  Elec       q    Type
REMARK                         _______ _______ _______ _____ _____    ______ ____
ROOT
ATOM      1  C   LIG    1       -1.187   1.624   0.017  0.00  0.00    +0.610 C 
ATOM      2  N   LIG    1       -0.011   0.966   0.007  0.00  0.00    -0.620 N 
ATOM      3  H   LIG    1        0.002  -0.004   0.002  0.00  0.00    +0.420 HD
ATOM      4  O   LIG    1       -1.204   2.840   0.023  0.00  0.00    -0.520 OA
ENDROOT
BRANCH   1  10
ATOM      5  C   LIG    1       -7.885  -1.466   0.030  0.00  0.00    +0.260 C 
ATOM      6  C   LIG    1       -6.437  -1.049   0.026  0.00  0.00    +0.130 A 
ATOM      7  N   LIG    1       -5.977   0.154   0.030  0.00  0.00    -0.260 NA
ATOM      8  N   LIG    1       -4.602   0.357   0.025  0.00  0.00    -0.320 N 
ATOM      9  C   LIG    1       -3.705   1.405   0.033  0.00  0.00    +0.300 A 
ATOM     10  C   LIG    1       -2.453   0.870   0.018  0.00  0.00    -0.020 A 
ATOM     11  N   LIG    1       -2.579  -0.480   0.012  0.00  0.00    -0.410 NA
ATOM     12  C   LIG    1       -3.853  -0.782   0.016  0.00  0.00    +0.130 A 
ATOM     13  S   LIG    1       -5.020  -2.113   0.015  0.00  0.00    +0.150 S 
ENDBRANCH   1  10
BRANCH   2  14
ATOM     14  C   LIG    1        1.198   1.686  -0.000  0.00  0.00    -0.000 A 
ATOM     15  C   LIG    1        2.446   1.153  -0.010  0.00  0.00    +0.210 A 
ATOM     16  N   LIG    1        3.332   2.182  -0.018  0.00  0.00    -0.370 N 
ATOM     17  N   LIG    1        2.602   3.378  -0.004  0.00  0.00    -0.280 NA
ATOM     18  C   LIG    1        1.328   3.083   0.006  0.00  0.00    +0.260 A 
BRANCH  16  19
ATOM     19  C   LIG    1        4.792   2.064  -0.032  0.00  0.00    +0.340 C 
BRANCH  19  20
ATOM     20  C   LIG    1        5.357   2.853  -1.214  0.00  0.00    +0.170 C 
BRANCH  20  21
ATOM     21  N   LIG    1        6.821   2.735  -1.228  0.00  0.00    -0.540 NA
ATOM     22  C   LIG    1        7.415   3.397  -0.058  0.00  0.00    +0.150 C 
ATOM     23  C   LIG    1        8.932   3.198  -0.081  0.00  0.00    +0.220 C 
ATOM     24  O   LIG    1        9.456   3.703  -1.312  0.00  0.00    -0.380 OA
ATOM     25  C   LIG    1        8.900   3.079  -2.473  0.00  0.00    +0.220 C 
ATOM     26  C   LIG    1        7.382   3.277  -2.474  0.00  0.00    +0.160 C 
ENDBRANCH  20  21
ENDBRANCH  19  20
ENDBRANCH  16  19
ENDBRANCH   2  14
TORSDOF 5
