REMARK  Name = ZINCrg000000sVWC.0
REMARK                            x       y       z     vdW  Elec       q    Type
REMARK                         _______ _______ _______ _____ _____    ______ ____
ROOT
ATOM      1  C   LIG    1       -0.071   1.067  -2.441  0.00  0.00    +0.520 C 
ATOM      2  N   LIG    1       -0.510   1.488  -3.644  0.00  0.00    -0.610 N 
ATOM      3  C   LIG    1       -1.644   2.418  -3.743  0.00  0.00    +0.280 C 
ATOM      4  C   LIG    1       -1.196   3.644  -4.556  0.00  0.00    +0.310 C 
ATOM      5  N   LIG    1       -0.553   3.177  -5.792  0.00  0.00    -1.000 NA
ATOM      6  C   LIG    1        0.577   2.243  -5.694  0.00  0.00    +0.300 C 
ATOM      7  C   LIG    1        0.133   1.021  -4.880  0.00  0.00    +0.270 C 
ATOM      8  O   LIG    1       -0.672   1.376  -1.434  0.00  0.00    -0.530 OA
ENDROOT
BRANCH   1  16
ATOM      9  N   LIG    1        2.771  -4.325  -1.297  0.00  0.00    -0.870 N 
ATOM     10  H   LIG    1        3.025  -5.132  -0.823  0.00  0.00    +0.420 HD
ATOM     11  H   LIG    1        2.412  -4.383  -2.196  0.00  0.00    +0.400 HD
ATOM     12  C   LIG    1        2.918  -3.122  -0.707  0.00  0.00    +0.710 C 
ATOM     13  N   LIG    1        2.660  -1.995  -1.400  0.00  0.00    -0.630 N 
ATOM     14  C   LIG    1        2.923  -0.676  -0.809  0.00  0.00    +0.300 C 
ATOM     15  C   LIG    1        1.646   0.166  -0.895  0.00  0.00    +0.040 C 
ATOM     16  C   LIG    1        1.166   0.212  -2.348  0.00  0.00    -0.010 C 
ATOM     17  C   LIG    1        0.844  -1.206  -2.825  0.00  0.00    +0.030 C 
ATOM     18  C   LIG    1        2.112  -2.063  -2.762  0.00  0.00    +0.270 C 
ATOM     19  O   LIG    1        3.283  -3.053   0.451  0.00  0.00    -0.590 OA
ENDBRANCH   1  16
BRANCH   5  20
ATOM     20  S   LIG    1       -1.093   3.694  -7.270  0.00  0.00    +2.690 S 
ATOM     21  O   LIG    1       -0.003   3.547  -8.169  0.00  0.00    -0.950 OA
ATOM     22  O   LIG    1       -1.754   4.932  -7.045  0.00  0.00    -0.940 OA
BRANCH  20  23
ATOM     23  C   LIG    1       -2.331   2.558  -7.800  0.00  0.00    -0.680 A 
ATOM     24  C   LIG    1       -3.656   2.775  -7.469  0.00  0.00    +0.140 A 
ATOM     25  C   LIG    1       -4.628   1.883  -7.884  0.00  0.00    +0.010 A 
ATOM     26  C   LIG    1       -4.275   0.775  -8.631  0.00  0.00    +0.110 A 
ATOM     27  C   LIG    1       -2.950   0.557  -8.962  0.00  0.00    -0.110 A 
ATOM     28 BR   LIG    1       -2.467  -0.959  -9.984  0.00  0.00    -0.030 Br
ATOM     29  C   LIG    1       -1.979   1.452  -8.550  0.00  0.00    +0.160 A 
ENDBRANCH  20  23
ENDBRANCH   5  20
TORSDOF 3
