REMARK  Name = ZINCrg000000nKkC.0
REMARK                            x       y       z     vdW  Elec       q    Type
REMARK                         _______ _______ _______ _____ _____    ______ ____
ROOT
ATOM      1  N   LIG    1       -0.288   1.272  -2.443  0.00  0.00    -0.720 N 
ATOM      2  H   LIG    1        0.507   0.726  -2.543  0.00  0.00    +0.400 HD
ATOM      3  C   LIG    1       -0.742   1.585  -1.213  0.00  0.00    +0.510 C 
ATOM      4  O   LIG    1       -1.736   2.268  -1.088  0.00  0.00    -0.520 OA
ENDROOT
BRANCH   1   5
ATOM      5  C   LIG    1       -0.997   1.758  -3.630  0.00  0.00    +0.290 C 
BRANCH   5   6
ATOM      6  C   LIG    1       -0.721   0.838  -4.791  0.00  0.00    -0.090 A 
ATOM      7  C   LIG    1        0.550   0.326  -4.980  0.00  0.00    +0.010 A 
ATOM      8  C   LIG    1        0.802  -0.521  -6.043  0.00  0.00    +0.000 A 
ATOM      9  C   LIG    1       -0.213  -0.849  -6.922  0.00  0.00    +0.000 A 
ATOM     10  C   LIG    1       -1.482  -0.333  -6.736  0.00  0.00    +0.010 A 
ATOM     11  C   LIG    1       -1.736   0.510  -5.671  0.00  0.00    +0.010 A 
ENDBRANCH   5   6
BRANCH   5  12
ATOM     12  C   LIG    1       -0.514   3.169  -3.971  0.00  0.00    +0.020 C 
BRANCH  12  14
ATOM     13  C   LIG    1       -0.423   5.539  -3.186  0.00  0.00    +0.000 C 
ATOM     14  C   LIG    1       -0.906   4.128  -2.845  0.00  0.00    +0.010 C 
ENDBRANCH  12  14
ENDBRANCH   5  12
ENDBRANCH   1   5
BRANCH   3  15
ATOM     15  C   LIG    1       -0.013   1.086   0.008  0.00  0.00    +0.360 C 
BRANCH  15  16
ATOM     16  N   LIG    1       -0.698   1.558   1.213  0.00  0.00    -0.530 N 
ATOM     17  C   LIG    1       -1.674   0.805   1.761  0.00  0.00    +0.600 A 
ATOM     18  C   LIG    1       -2.331   1.265   2.923  0.00  0.00    -0.150 A 
ATOM     19  C   LIG    1       -1.956   2.484   3.474  0.00  0.00    +0.320 A 
ATOM     20  N   LIG    1       -0.946   3.211   2.864  0.00  0.00    -0.510 N 
ATOM     21  C   LIG    1       -0.532   4.500   3.425  0.00  0.00    +0.340 C 
ATOM     22  N   LIG    1       -2.721   2.684   4.550  0.00  0.00    -0.500 NA
ATOM     23  C   LIG    1       -3.541   1.676   4.704  0.00  0.00    +0.500 A 
ATOM     24  N   LIG    1       -3.341   0.773   3.725  0.00  0.00    -0.410 N 
ATOM     25  C   LIG    1       -4.058  -0.492   3.546  0.00  0.00    +0.360 C 
ATOM     26  O   LIG    1       -1.985  -0.261   1.260  0.00  0.00    -0.510 OA
ATOM     27  C   LIG    1       -0.342   2.733   1.760  0.00  0.00    +0.720 A 
ATOM     28  O   LIG    1        0.545   3.383   1.242  0.00  0.00    -0.530 OA
ENDBRANCH  15  16
ENDBRANCH   3  15
TORSDOF 6
