REMARK  Name = ZINCrH00000tj1mk.0
REMARK                            x       y       z     vdW  Elec       q    Type
REMARK                         _______ _______ _______ _____ _____    ______ ____
ROOT
ATOM      1  C   LIG    1       -0.753   1.593  -1.232  0.00  0.00    +0.190 C 
ENDROOT
BRANCH   1   5
ATOM      2  N   LIG    1        1.175   1.411  -4.986  0.00  0.00    -0.490 N 
ATOM      3  C   LIG    1       -0.158   0.804  -4.866  0.00  0.00    +0.200 C 
ATOM      4  C   LIG    1       -0.870   1.381  -3.641  0.00  0.00    +0.200 C 
ATOM      5  N   LIG    1       -0.065   1.119  -2.440  0.00  0.00    -0.540 NA
ATOM      6  C   LIG    1        1.268   1.726  -2.560  0.00  0.00    +0.190 C 
ATOM      7  C   LIG    1        1.980   1.148  -3.785  0.00  0.00    +0.210 C 
BRANCH   2  12
ATOM      8  F   LIG    1        3.758  -0.369  -9.525  0.00  0.00    -0.140 F 
ATOM      9  C   LIG    1        3.126   0.067  -8.413  0.00  0.00    +0.070 A 
ATOM     10  C   LIG    1        3.752   0.969  -7.571  0.00  0.00    +0.010 A 
ATOM     11  C   LIG    1        3.107   1.416  -6.434  0.00  0.00    +0.020 A 
ATOM     12  C   LIG    1        1.830   0.960  -6.136  0.00  0.00    +0.100 A 
ATOM     13  C   LIG    1        1.206   0.050  -6.980  0.00  0.00    +0.000 A 
ATOM     14  C   LIG    1        1.852  -0.390  -8.118  0.00  0.00    +0.010 A 
ENDBRANCH   2  12
ENDBRANCH   1   5
BRANCH   1  15
ATOM     15  C   LIG    1       -0.013   1.086   0.008  0.00  0.00    +0.200 C 
BRANCH  15  16
ATOM     16  N   LIG    1       -0.700   1.560   1.217  0.00  0.00    -0.610 N 
ATOM     17  H   LIG    1       -0.784   2.565   1.214  0.00  0.00    +0.370 HD
BRANCH  16  18
ATOM     18  C   LIG    1       -0.048   1.113   2.374  0.00  0.00    +0.100 A 
ATOM     19  C   LIG    1        0.090  -0.249   2.612  0.00  0.00    +0.100 A 
ATOM     20  C   LIG    1        0.740  -0.689   3.754  0.00  0.00    +0.090 A 
ATOM     21  C   LIG    1        1.242   0.228   4.663  0.00  0.00    +0.070 A 
ATOM     22  C   LIG    1        1.101   1.587   4.429  0.00  0.00    +0.090 A 
ATOM     23  F   LIG    1        1.592   2.480   5.317  0.00  0.00    -0.100 F 
ATOM     24  F   LIG    1        1.870  -0.202   5.779  0.00  0.00    -0.100 F 
ATOM     25  F   LIG    1        0.878  -2.013   3.984  0.00  0.00    -0.100 F 
ATOM     26  F   LIG    1       -0.404  -1.144   1.729  0.00  0.00    -0.090 F 
ATOM     27  C   LIG    1        0.457   2.031   3.286  0.00  0.00    +0.060 A 
ATOM     28  F   LIG    1        0.319   3.355   3.059  0.00  0.00    -0.100 F 
ENDBRANCH  16  18
ENDBRANCH  15  16
ENDBRANCH   1  15
TORSDOF 5
