REMARK  Name = ZINCqH0000003PZU.0
REMARK                            x       y       z     vdW  Elec       q    Type
REMARK                         _______ _______ _______ _____ _____    ______ ____
ROOT
ATOM      1  C   LIG    1        1.252  -4.947  -0.279  0.00  0.00    +0.300 C 
ENDROOT
BRANCH   1   3
ATOM      2  C   LIG    1        0.175  -2.777  -0.543  0.00  0.00    +0.560 C 
ATOM      3  N   LIG    1        0.066  -4.120  -0.515  0.00  0.00    -0.720 N 
ATOM      4  H   LIG    1       -0.798  -4.540  -0.652  0.00  0.00    +0.410 HD
ATOM      5  O   LIG    1        1.258  -2.252  -0.372  0.00  0.00    -0.520 OA
BRANCH   2  11
ATOM      6  C   LIG    1       -0.910  -0.548  -0.812  0.00  0.00    +0.190 A 
ATOM      7  C   LIG    1       -2.039   0.225  -1.042  0.00  0.00    -0.080 A 
ATOM      8  C   LIG    1       -3.265  -0.381  -1.236  0.00  0.00    +0.080 A 
ATOM      9  C   LIG    1       -3.377  -1.761  -1.201  0.00  0.00    -0.040 A 
ATOM     10  C   LIG    1       -2.266  -2.544  -0.974  0.00  0.00    +0.080 A 
ATOM     11  C   LIG    1       -1.019  -1.945  -0.782  0.00  0.00    -0.180 A 
BRANCH   6  12
ATOM     12  O   LIG    1        0.294   0.046  -0.622  0.00  0.00    -0.280 OA
BRANCH  12  14
ATOM     13  C   LIG    1        1.762   1.957  -0.437  0.00  0.00    +0.070 C 
ATOM     14  C   LIG    1        0.330   1.474  -0.672  0.00  0.00    +0.170 C 
ENDBRANCH  12  14
ENDBRANCH   6  12
ENDBRANCH   2  11
ENDBRANCH   1   3
BRANCH   1  15
ATOM     15  C   LIG    1        0.861  -6.402  -0.296  0.00  0.00    +0.510 C 
ATOM     16  N   LIG    1        1.796  -7.353  -0.099  0.00  0.00    -0.600 N 
ATOM     17  C   LIG    1        3.192  -6.972   0.132  0.00  0.00    +0.300 C 
ATOM     18  O   LIG    1       -0.294  -6.718  -0.487  0.00  0.00    -0.530 OA
BRANCH  16  19
ATOM     19  C   LIG    1        1.417  -8.768  -0.116  0.00  0.00    +0.350 C 
BRANCH  19  20
ATOM     20  C   LIG    1        1.378  -9.261  -1.540  0.00  0.00    -0.090 A 
ATOM     21  C   LIG    1        0.183  -9.271  -2.235  0.00  0.00    +0.070 A 
ATOM     22  C   LIG    1        0.148  -9.719  -3.543  0.00  0.00    +0.040 A 
ATOM     23  C   LIG    1        1.305 -10.166  -4.153  0.00  0.00    +0.050 A 
ATOM     24  C   LIG    1        2.500 -10.162  -3.456  0.00  0.00    -0.040 A 
ATOM     25 CL   LIG    1        3.953 -10.724  -4.221  0.00  0.00    -0.050 Cl
ATOM     26  C   LIG    1        2.537  -9.709  -2.148  0.00  0.00    -0.020 A 
ATOM     27 CL   LIG    1        4.036  -9.703  -1.273  0.00  0.00    -0.040 Cl
ENDBRANCH  19  20
ENDBRANCH  16  19
ENDBRANCH   1  15
TORSDOF 7
