REMARK  Name = ZINCqH0000034yRT.0
REMARK                            x       y       z     vdW  Elec       q    Type
REMARK                         _______ _______ _______ _____ _____    ______ ____
ROOT
ATOM      1  C   LIG    1        4.207   2.262  -0.076  0.00  0.00    +0.310 C 
ATOM      2  N   LIG    1        4.599   0.851  -0.113  0.00  0.00    -0.600 N 
ATOM      3  C   LIG    1        3.708  -0.105   0.214  0.00  0.00    +0.610 C 
ATOM      4  O   LIG    1        4.037  -1.276   0.196  0.00  0.00    -0.510 OA
ENDROOT
BRANCH   3   5
ATOM      5  C   LIG    1        2.340   0.266   0.592  0.00  0.00    -0.310 A 
ATOM      6  C   LIG    1        1.299  -0.586   0.767  0.00  0.00    +0.170 A 
ATOM      7  N   LIG    1        0.177  -0.001   1.104  0.00  0.00    -0.470 NA
ATOM      8  C   LIG    1        0.192   1.287   1.227  0.00  0.00    +0.220 A 
ATOM      9  S   LIG    1        1.754   1.900   0.898  0.00  0.00    +0.180 S 
BRANCH   6  10
ATOM     10  C   LIG    1        1.424  -2.077   0.590  0.00  0.00    +0.070 C 
ATOM     11  C   LIG    1        0.415  -2.570  -0.468  0.00  0.00    +0.020 C 
ATOM     12  C   LIG    1       -0.061  -3.942   0.071  0.00  0.00    +0.020 C 
ATOM     13  C   LIG    1       -0.143  -3.700   1.599  0.00  0.00    +0.010 C 
ATOM     14  C   LIG    1        1.069  -2.796   1.904  0.00  0.00    +0.020 C 
ENDBRANCH   6  10
ENDBRANCH   3   5
BRANCH   2  15
ATOM     15  C   LIG    1        5.961   0.480  -0.506  0.00  0.00    +0.350 C 
BRANCH  15  16
ATOM     16  C   LIG    1        6.015   0.273  -1.997  0.00  0.00    +0.500 C 
ATOM     17  N   LIG    1        7.175  -0.077  -2.588  0.00  0.00    -0.670 N 
ATOM     18  H   LIG    1        7.989  -0.130  -2.063  0.00  0.00    +0.420 HD
ATOM     19  O   LIG    1        5.015   0.421  -2.667  0.00  0.00    -0.500 OA
BRANCH  17  20
ATOM     20  C   LIG    1        7.205  -0.363  -3.957  0.00  0.00    +0.210 A 
ATOM     21  C   LIG    1        8.056  -1.347  -4.443  0.00  0.00    -0.040 A 
ATOM     22  C   LIG    1        8.080  -1.632  -5.797  0.00  0.00    +0.150 A 
ATOM     23  C   LIG    1        7.264  -0.930  -6.668  0.00  0.00    -0.060 A 
ATOM     24  C   LIG    1        6.419   0.055  -6.186  0.00  0.00    +0.150 A 
ATOM     25  F   LIG    1        5.624   0.739  -7.038  0.00  0.00    -0.130 F 
ATOM     26  F   LIG    1        8.904  -2.593  -6.269  0.00  0.00    -0.130 F 
ATOM     27  C   LIG    1        6.388   0.339  -4.832  0.00  0.00    -0.010 A 
ENDBRANCH  17  20
ENDBRANCH  15  16
ENDBRANCH   2  15
TORSDOF 5
