REMARK  Name = ZINCnE000001TBER.0
REMARK                            x       y       z     vdW  Elec       q    Type
REMARK                         _______ _______ _______ _____ _____    ______ ____
ROOT
ATOM      1  C   LIG    1       -2.515  -1.312  -0.217  0.00  0.00    +0.050 C 
ENDROOT
BRANCH   1   8
ATOM      2  C   LIG    1        0.047   1.532   0.016  0.00  0.00    +0.130 C 
ATOM      3  C   LIG    1        1.495   1.129   0.311  0.00  0.00    +0.010 C 
ATOM      4  C   LIG    1        2.092   0.449  -0.923  0.00  0.00    +0.000 C 
ATOM      5  C   LIG    1        1.295  -0.816  -1.247  0.00  0.00    +0.010 C 
ATOM      6  C   LIG    1       -0.155  -0.435  -1.560  0.00  0.00    +0.250 C 
ATOM      7  N   LIG    1       -0.692   0.345  -0.436  0.00  0.00    -0.600 N 
ATOM      8  C   LIG    1       -1.840  -0.020   0.167  0.00  0.00    +0.500 C 
ATOM      9  O   LIG    1       -2.330   0.690   1.020  0.00  0.00    -0.470 OA
BRANCH   2  11
ATOM     10  O   LIG    1       -0.633   1.395   2.278  0.00  0.00    -0.680 OA
ATOM     11  C   LIG    1       -0.591   2.077   1.268  0.00  0.00    +0.520 C 
ATOM     12  O   LIG    1       -1.066   3.200   1.271  0.00  0.00    -0.700 OA
ENDBRANCH   2  11
ENDBRANCH   1   8
BRANCH   1  13
ATOM     13  C   LIG    1       -3.790  -1.487   0.612  0.00  0.00    +0.170 C 
BRANCH  13  14
ATOM     14  C   LIG    1       -4.465  -2.779   0.227  0.00  0.00    +0.120 A 
ATOM     15  N   LIG    1       -4.230  -3.906   0.783  0.00  0.00    -0.470 NA
ATOM     16  C   LIG    1       -4.911  -4.980   0.340  0.00  0.00    +0.090 A 
ATOM     17  C   LIG    1       -4.854  -6.322   0.769  0.00  0.00    +0.120 A 
ATOM     18  C   LIG    1       -5.640  -7.274   0.170  0.00  0.00    -0.080 A 
ATOM     19  C   LIG    1       -6.501  -6.933  -0.864  0.00  0.00    +0.050 A 
ATOM     20  C   LIG    1       -6.574  -5.628  -1.298  0.00  0.00    +0.080 A 
ATOM     21 BR   LIG    1       -5.549  -9.069   0.759  0.00  0.00    -0.040 Br
ATOM     22  C   LIG    1       -5.784  -4.648  -0.703  0.00  0.00    -0.180 A 
ATOM     23  S   LIG    1       -5.633  -2.921  -1.009  0.00  0.00    +0.120 S 
ENDBRANCH  13  14
ENDBRANCH   1  13
TORSDOF 4
