REMARK  Name = ZINCAx0000000f6q.0
REMARK                            x       y       z     vdW  Elec       q    Type
REMARK                         _______ _______ _______ _____ _____    ______ ____
ROOT
ATOM      1  C   LIG    1        7.423   0.938  -1.659  0.00  0.00    +0.570 C 
ATOM      2  N   LIG    1        6.847   0.747  -0.456  0.00  0.00    -0.590 N 
ATOM      3  C   LIG    1        7.162   1.644   0.658  0.00  0.00    +0.300 C 
ATOM      4  O   LIG    1        7.229   0.144  -2.559  0.00  0.00    -0.530 OA
ENDROOT
BRANCH   1   7
ATOM      5  C   LIG    1        9.180   3.788  -3.361  0.00  0.00    +0.100 A 
ATOM      6  C   LIG    1        8.373   2.686  -3.156  0.00  0.00    +0.040 A 
ATOM      7  C   LIG    1        8.289   2.111  -1.885  0.00  0.00    -0.130 A 
ATOM      8  C   LIG    1        9.032   2.646  -0.830  0.00  0.00    +0.050 A 
ATOM      9  C   LIG    1        9.840   3.742  -1.042  0.00  0.00    -0.050 A 
ATOM     10  C   LIG    1        9.919   4.317  -2.303  0.00  0.00    +0.130 A 
BRANCH   5  12
ATOM     11  C   LIG    1        8.476   3.759  -5.632  0.00  0.00    +0.250 C 
ATOM     12  O   LIG    1        9.260   4.353  -4.595  0.00  0.00    -0.300 OA
ENDBRANCH   5  12
BRANCH  10  13
ATOM     13  O   LIG    1       10.717   5.397  -2.507  0.00  0.00    -0.270 OA
BRANCH  13  14
ATOM     14  C   LIG    1       11.445   5.887  -1.380  0.00  0.00    +0.240 C 
BRANCH  14  15
ATOM     15  C   LIG    1       12.269   7.079  -1.794  0.00  0.00    +0.520 C 
ATOM     16  N   LIG    1       13.043   7.711  -0.889  0.00  0.00    -0.620 N 
ATOM     17  C   LIG    1       13.095   7.259   0.510  0.00  0.00    +0.250 C 
ATOM     18  C   LIG    1       14.571   7.103   0.909  0.00  0.00    +0.220 C 
ATOM     19  O   LIG    1       15.269   8.313   0.607  0.00  0.00    -0.380 OA
ATOM     20  C   LIG    1       15.291   8.645  -0.784  0.00  0.00    +0.220 C 
ATOM     21  C   LIG    1       13.856   8.877  -1.270  0.00  0.00    +0.270 C 
ATOM     22  O   LIG    1       12.235   7.470  -2.941  0.00  0.00    -0.510 OA
ENDBRANCH  14  15
ENDBRANCH  13  14
ENDBRANCH  10  13
ENDBRANCH   1   7
BRANCH   2  23
ATOM     23  C   LIG    1        5.905  -0.359  -0.262  0.00  0.00    +0.340 C 
BRANCH  23  24
ATOM     24  C   LIG    1        4.508   0.111  -0.575  0.00  0.00    +0.490 C 
ATOM     25  N   LIG    1        3.470  -0.742  -0.465  0.00  0.00    -0.660 N 
ATOM     26  H   LIG    1        3.610  -1.632  -0.106  0.00  0.00    +0.410 HD
ATOM     27  O   LIG    1        4.317   1.256  -0.925  0.00  0.00    -0.500 OA
BRANCH  25  28
ATOM     28  C   LIG    1        2.194  -0.344  -0.867  0.00  0.00    +0.150 A 
ATOM     29  C   LIG    1        2.038   0.709  -1.742  0.00  0.00    +0.010 A 
ATOM     30  C   LIG    1        0.770   1.113  -2.151  0.00  0.00    +0.040 A 
ATOM     31  C   LIG    1       -0.348   0.483  -1.698  0.00  0.00    +0.000 A 
ATOM     32  C   LIG    1       -0.233  -0.595  -0.803  0.00  0.00    -0.030 A 
ATOM     33  C   LIG    1       -1.370  -1.264  -0.320  0.00  0.00    +0.030 A 
ATOM     34  C   LIG    1       -1.222  -2.305   0.545  0.00  0.00    +0.000 A 
ATOM     35  C   LIG    1        0.042  -2.719   0.960  0.00  0.00    +0.010 A 
ATOM     36  C   LIG    1        1.166  -2.093   0.512  0.00  0.00    +0.010 A 
ATOM     37  C   LIG    1        1.052  -1.016  -0.382  0.00  0.00    -0.070 A 
ENDBRANCH  25  28
ENDBRANCH  23  24
ENDBRANCH   2  23
TORSDOF 8
