REMARK  Name = ZINCrH000004qUt4.0
REMARK                            x       y       z     vdW  Elec       q    Type
REMARK                         _______ _______ _______ _____ _____    ______ ____
ROOT
ATOM      1  C   LIG    1        1.901   1.343   3.653  0.00  0.00    +0.590 C 
ATOM      2  N   LIG    1        1.427   1.680   2.437  0.00  0.00    -0.710 N 
ATOM      3  H   LIG    1        0.586   2.156   2.359  0.00  0.00    +0.410 HD
ATOM      4  O   LIG    1        2.905   0.663   3.748  0.00  0.00    -0.540 OA
ENDROOT
BRANCH   1  11
ATOM      5  C   LIG    1       -1.031   3.329  10.133  0.00  0.00    +0.140 C 
ATOM      6  C   LIG    1       -0.607   3.018   8.722  0.00  0.00    -0.140 A 
ATOM      7  C   LIG    1        0.506   2.374   8.390  0.00  0.00    +0.010 A 
ATOM      8  C   LIG    1        0.713   2.187   7.020  0.00  0.00    +0.080 A 
ATOM      9  C   LIG    1       -0.301   2.717   6.244  0.00  0.00    -0.220 A 
ATOM     10  C   LIG    1        0.012   2.477   4.894  0.00  0.00    +0.070 A 
ATOM     11  C   LIG    1        1.206   1.796   4.860  0.00  0.00    +0.010 A 
ATOM     12  N   LIG    1        1.642   1.618   6.157  0.00  0.00    -0.420 N 
ATOM     13  S   LIG    1       -1.515   3.455   7.284  0.00  0.00    +0.150 S 
BRANCH  12  14
ATOM     14  C   LIG    1        2.879   0.943   6.557  0.00  0.00    +0.350 C 
BRANCH  14  15
ATOM     15  C   LIG    1        4.003   1.972   6.688  0.00  0.00    +0.440 C 
ATOM     16  F   LIG    1        4.197   2.609   5.458  0.00  0.00    -0.170 F 
ATOM     17  F   LIG    1        5.184   1.326   7.071  0.00  0.00    -0.170 F 
ATOM     18  F   LIG    1        3.656   2.921   7.655  0.00  0.00    -0.180 F 
ENDBRANCH  14  15
ENDBRANCH  12  14
ENDBRANCH   1  11
BRANCH   2  19
ATOM     19  C   LIG    1        2.184   1.327   1.233  0.00  0.00    +0.250 C 
BRANCH  19  20
ATOM     20  C   LIG    1        1.432   1.821  -0.005  0.00  0.00    +0.260 C 
BRANCH  20  21
ATOM     21  C   LIG    1        2.210   1.458  -1.243  0.00  0.00    -0.130 A 
ATOM     22  C   LIG    1        2.061   0.205  -1.809  0.00  0.00    +0.040 A 
ATOM     23  C   LIG    1        2.769  -0.128  -2.948  0.00  0.00    -0.010 A 
ATOM     24  C   LIG    1        3.638   0.791  -3.517  0.00  0.00    +0.110 A 
ATOM     25  C   LIG    1        3.790   2.046  -2.944  0.00  0.00    -0.010 A 
ATOM     26  C   LIG    1        3.075   2.376  -1.808  0.00  0.00    +0.040 A 
BRANCH  24  27
ATOM     27  O   LIG    1        4.340   0.464  -4.634  0.00  0.00    -0.500 OA
ATOM     28  H   LIG    1        5.200   0.060  -4.454  0.00  0.00    +0.390 HD
ENDBRANCH  24  27
ENDBRANCH  20  21
BRANCH  20  29
ATOM     29  O   LIG    1        0.142   1.208  -0.055  0.00  0.00    -0.550 OA
ATOM     30  H   LIG    1        0.168   0.242  -0.103  0.00  0.00    +0.380 HD
ENDBRANCH  20  29
ENDBRANCH  19  20
ENDBRANCH   2  19
TORSDOF 8
