REMARK  Name = ZINCah0000002BLW.0
REMARK                            x       y       z     vdW  Elec       q    Type
REMARK                         _______ _______ _______ _____ _____    ______ ____
ROOT
ATOM      1  C   LIG    1        1.185   1.774   0.004  0.00  0.00    +0.220 A 
ATOM      2  C   LIG    1       -0.018   1.076   0.009  0.00  0.00    +0.220 A 
ATOM      3  N   LIG    1       -1.169   1.715   0.014  0.00  0.00    -0.410 NA
ATOM      4  C   LIG    1       -1.242   3.033   0.026  0.00  0.00    +0.100 A 
ATOM      5  C   LIG    1       -0.102   3.811   0.022  0.00  0.00    +0.120 A 
ATOM      6 CL   LIG    1       -2.799   3.801   0.040  0.00  0.00    -0.030 Cl
ATOM      7  C   LIG    1        1.152   3.183   0.011  0.00  0.00    -0.220 A 
ENDROOT
BRANCH   1   8
ATOM      8  N   LIG    1        2.396   1.097  -0.007  0.00  0.00    -0.850 N 
ATOM      9  H   LIG    1        3.228   1.590  -0.085  0.00  0.00    +0.410 HD
ATOM     10  H   LIG    1        2.411   0.129   0.064  0.00  0.00    +0.410 HD
ENDBRANCH   1   8
BRANCH   7  11
ATOM     11  C   LIG    1        2.393   3.970   0.006  0.00  0.00    +0.500 C 
ATOM     12  O   LIG    1        2.346   5.178   0.106  0.00  0.00    -0.450 OA
ENDBRANCH   7  11
TORSDOF 2
