REMARK  Name = ZINCrH000004uLws.0
REMARK                            x       y       z     vdW  Elec       q    Type
REMARK                         _______ _______ _______ _____ _____    ______ ____
ROOT
ATOM      1  O   LIG    1       -1.813   0.343  -1.496  0.00  0.00    -0.520 OA
ATOM      2  C   LIG    1       -0.605   0.300  -1.599  0.00  0.00    +0.520 C 
ATOM      3  N   LIG    1       -0.013   0.665  -2.753  0.00  0.00    -0.520 N 
ATOM      4  H   LIG    1        0.953   0.631  -2.835  0.00  0.00    +0.430 HD
ENDROOT
BRANCH   2   5
ATOM      5  C   LIG    1        0.234  -0.161  -0.435  0.00  0.00    +0.000 C 
ATOM      6  C   LIG    1       -0.677  -0.512   0.744  0.00  0.00    +0.060 C 
ATOM      7  C   LIG    1        0.172  -1.012   1.915  0.00  0.00    +0.030 C 
ATOM      8  C   LIG    1        1.130   0.099   2.358  0.00  0.00    +0.270 C 
ATOM      9  N   LIG    1        1.909   0.543   1.194  0.00  0.00    -0.610 N 
ATOM     10  C   LIG    1        3.256   0.568   1.238  0.00  0.00    +0.600 C 
ATOM     11  O   LIG    1        3.893   0.826   0.233  0.00  0.00    -0.520 OA
ATOM     12  C   LIG    1        1.192   0.960  -0.019  0.00  0.00    +0.300 C 
BRANCH  10  13
ATOM     13  C   LIG    1        3.953   0.284   2.495  0.00  0.00    -0.280 A 
ATOM     14  C   LIG    1        5.189  -0.289   2.605  0.00  0.00    +0.100 A 
ATOM     15  C   LIG    1        5.606  -0.439   3.906  0.00  0.00    +0.000 A 
ATOM     16  C   LIG    1        4.742  -0.005   4.832  0.00  0.00    -0.070 A 
ATOM     17  S   LIG    1        3.337   0.634   4.105  0.00  0.00    +0.220 S 
ENDBRANCH  10  13
ENDBRANCH   2   5
BRANCH   3  18
ATOM     18  N   LIG    1       -0.793   1.094  -3.835  0.00  0.00    -0.540 N 
ATOM     19  H   LIG    1       -1.759   1.128  -3.753  0.00  0.00    +0.440 HD
BRANCH  18  20
ATOM     20  C   LIG    1       -0.180   1.473  -5.032  0.00  0.00    +0.260 A 
ATOM     21  C   LIG    1        1.203   1.424  -5.150  0.00  0.00    -0.070 A 
ATOM     22  C   LIG    1        1.807   1.799  -6.335  0.00  0.00    +0.110 A 
ATOM     23  C   LIG    1        1.036   2.222  -7.402  0.00  0.00    -0.030 A 
ATOM     24  C   LIG    1       -0.342   2.272  -7.287  0.00  0.00    +0.120 A 
ATOM     25  C   LIG    1       -0.952   1.893  -6.107  0.00  0.00    -0.260 A 
BRANCH  25  26
ATOM     26  C   LIG    1       -2.453   1.941  -5.985  0.00  0.00    +0.510 C 
ATOM     27  F   LIG    1       -2.809   2.815  -4.952  0.00  0.00    -0.180 F 
ATOM     28  F   LIG    1       -2.939   0.660  -5.701  0.00  0.00    -0.180 F 
ATOM     29  F   LIG    1       -3.005   2.392  -7.189  0.00  0.00    -0.170 F 
ENDBRANCH  25  26
ENDBRANCH  18  20
ENDBRANCH   3  18
TORSDOF 5
