REMARK  Name = ZINCtV00000L6kk5.0
REMARK                            x       y       z     vdW  Elec       q    Type
REMARK                         _______ _______ _______ _____ _____    ______ ____
ROOT
ATOM      1  N   LIG    1        4.426   1.703  -0.108  0.00  0.00    -0.510 N 
ATOM      2  C   LIG    1        3.580   0.647  -0.054  0.00  0.00    +0.580 A 
ATOM      3  C   LIG    1        2.187   0.965  -0.120  0.00  0.00    -0.240 A 
ATOM      4  C   LIG    1        1.793   2.302  -0.232  0.00  0.00    +0.070 A 
ATOM      5  S   LIG    1        0.051   2.398  -0.291  0.00  0.00    +0.200 S 
ATOM      6  C   LIG    1       -0.123   0.653  -0.167  0.00  0.00    -0.200 A 
ATOM      7  C   LIG    1       -1.456  -0.074  -0.154  0.00  0.00    +0.120 C 
ATOM      8  C   LIG    1       -1.215  -1.555  -0.453  0.00  0.00    +0.020 C 
ATOM      9  C   LIG    1       -0.104  -2.072   0.467  0.00  0.00    +0.020 C 
ATOM     10  C   LIG    1        1.229  -1.463   0.032  0.00  0.00    +0.110 C 
ATOM     11  N   LIG    1        2.697   3.302  -0.279  0.00  0.00    -0.490 NA
ATOM     12  C   LIG    1        1.068   0.048  -0.086  0.00  0.00    -0.030 A 
ATOM     13  O   LIG    1        3.979  -0.501   0.043  0.00  0.00    -0.500 OA
ATOM     14  C   LIG    1        3.977   2.984  -0.217  0.00  0.00    +0.370 A 
ENDROOT
BRANCH   1  15
ATOM     15  C   LIG    1        5.870   1.460  -0.046  0.00  0.00    +0.220 C 
ATOM     16  C   LIG    1        6.210   0.736   1.258  0.00  0.00    +0.060 C 
BRANCH  15  18
ATOM     17  C   LIG    1        6.029   1.355  -2.538  0.00  0.00    +0.020 C 
ATOM     18  C   LIG    1        6.293   0.595  -1.236  0.00  0.00    +0.040 C 
ENDBRANCH  15  18
ENDBRANCH   1  15
BRANCH  14  19
ATOM     19  S   LIG    1        5.165   4.284  -0.277  0.00  0.00    +0.030 S 
BRANCH  19  20
ATOM     20  C   LIG    1        4.061   5.712  -0.417  0.00  0.00    +0.100 C 
BRANCH  20  21
ATOM     21  C   LIG    1        4.893   6.994  -0.487  0.00  0.00    +0.230 C 
BRANCH  21  22
ATOM     22  O   LIG    1        4.022   8.121  -0.597  0.00  0.00    -0.300 OA
BRANCH  22  23
ATOM     23  C   LIG    1        4.605   9.347  -0.671  0.00  0.00    +0.150 A 
ATOM     24  C   LIG    1        5.987   9.462  -0.631  0.00  0.00    -0.060 A 
ATOM     25  C   LIG    1        6.577  10.708  -0.711  0.00  0.00    +0.090 A 
ATOM     26  C   LIG    1        5.792  11.842  -0.819  0.00  0.00    -0.130 A 
ATOM     27  C   LIG    1        4.413  11.729  -0.853  0.00  0.00    +0.090 A 
ATOM     28 BR   LIG    1        6.603  13.547  -0.921  0.00  0.00    -0.050 Br
ATOM     29  C   LIG    1        3.818  10.485  -0.779  0.00  0.00    +0.000 A 
ENDBRANCH  22  23
ENDBRANCH  21  22
ENDBRANCH  20  21
ENDBRANCH  19  20
ENDBRANCH  14  19
TORSDOF 7
