REMARK  Name = ZINCrD000006BMP0.0
REMARK                            x       y       z     vdW  Elec       q    Type
REMARK                         _______ _______ _______ _____ _____    ______ ____
ROOT
ATOM      1  C   LIG    1        1.901  -7.245   1.062  0.00  0.00    +0.610 C 
ATOM      2  N   LIG    1        1.910  -5.941   0.720  0.00  0.00    -0.600 N 
ATOM      3  C   LIG    1        2.083  -4.900   1.743  0.00  0.00    +0.310 C 
ATOM      4  C   LIG    1        0.930  -3.898   1.627  0.00  0.00    +0.020 C 
ATOM      5  C   LIG    1        0.865  -3.366   0.193  0.00  0.00    +0.270 C 
ATOM      6  C   LIG    1        0.598  -4.524  -0.771  0.00  0.00    +0.030 C 
ATOM      7  C   LIG    1        1.747  -5.533  -0.682  0.00  0.00    +0.310 C 
ATOM      8  O   LIG    1        1.628  -8.090   0.229  0.00  0.00    -0.540 OA
ENDROOT
BRANCH   1  13
ATOM      9  C   LIG    1        1.358 -12.622   2.693  0.00  0.00    +0.110 C 
ATOM     10  C   LIG    1        1.768 -11.278   3.239  0.00  0.00    -0.070 A 
ATOM     11  C   LIG    1        1.745 -10.176   2.437  0.00  0.00    +0.080 A 
ATOM     12  C   LIG    1        2.129  -8.937   2.966  0.00  0.00    +0.090 A 
ATOM     13  C   LIG    1        2.219  -7.644   2.433  0.00  0.00    -0.070 A 
ATOM     14  N   LIG    1        2.649  -6.837   3.424  0.00  0.00    -0.420 NA
ATOM     15  C   LIG    1        2.832  -7.532   4.509  0.00  0.00    +0.370 A 
ATOM     16  N   LIG    1        2.526  -8.840   4.277  0.00  0.00    -0.370 N 
ATOM     17  C   LIG    1        2.549  -9.952   5.068  0.00  0.00    +0.230 A 
ATOM     18  C   LIG    1        2.175 -11.153   4.577  0.00  0.00    +0.030 A 
ENDBRANCH   1  13
BRANCH   5  19
ATOM     19  N   LIG    1       -0.216  -2.383   0.086  0.00  0.00    -0.340 N 
ATOM     20  C   LIG    1       -1.517  -2.655  -0.143  0.00  0.00    +0.250 A 
ATOM     21  C   LIG    1       -2.187  -1.480  -0.165  0.00  0.00    -0.070 A 
ATOM     22  C   LIG    1       -1.262  -0.453   0.050  0.00  0.00    -0.020 A 
ATOM     23  N   LIG    1       -0.080  -0.993   0.204  0.00  0.00    -0.240 NA
BRANCH  22  24
ATOM     24  C   LIG    1       -1.573   1.021   0.102  0.00  0.00    +0.560 C 
ATOM     25  F   LIG    1       -2.398   1.285   1.201  0.00  0.00    -0.170 F 
ATOM     26  F   LIG    1       -2.228   1.401  -1.074  0.00  0.00    -0.170 F 
ATOM     27  F   LIG    1       -0.383   1.745   0.228  0.00  0.00    -0.170 F 
ENDBRANCH  22  24
ENDBRANCH   5  19
TORSDOF 3
