REMARK  Name = ZINCrH000004rZK0.2
REMARK                            x       y       z     vdW  Elec       q    Type
REMARK                         _______ _______ _______ _____ _____    ______ ____
ROOT
ATOM      1  N   LIG    1       -4.502   6.751  -0.358  0.00  0.00    -0.530 NA
ATOM      2  C   LIG    1       -4.084   7.417   0.882  0.00  0.00    +0.150 C 
ATOM      3  C   LIG    1       -2.597   7.153   1.128  0.00  0.00    +0.020 C 
ATOM      4  C   LIG    1       -2.361   5.644   1.233  0.00  0.00    +0.020 C 
ATOM      5  C   LIG    1       -2.849   4.969  -0.052  0.00  0.00    +0.000 C 
ATOM      6  C   LIG    1       -4.329   5.296  -0.264  0.00  0.00    +0.190 C 
ENDROOT
BRANCH   1   7
ATOM      7  C   LIG    1       -5.888   7.096  -0.699  0.00  0.00    +0.260 C 
ATOM      8  C   LIG    1       -6.253   6.470  -2.047  0.00  0.00    +0.080 C 
BRANCH   7  12
ATOM      9  C   LIG    1       -6.699  10.596  -0.602  0.00  0.00    +0.220 A 
ATOM     10  N   LIG    1       -5.584  10.575  -1.286  0.00  0.00    -0.370 NA
ATOM     11  O   LIG    1       -5.185   9.435  -1.395  0.00  0.00    +0.090 OA
ATOM     12  C   LIG    1       -6.027   8.594  -0.787  0.00  0.00    +0.200 A 
ATOM     13  N   LIG    1       -6.991   9.317  -0.275  0.00  0.00    -0.480 NA
BRANCH   9  20
ATOM     14  C   LIG    1       -5.791  13.211  -1.446  0.00  0.00    +0.100 C 
ATOM     15  C   LIG    1       -7.065  13.063  -0.653  0.00  0.00    -0.050 A 
ATOM     16  C   LIG    1       -7.811  14.178  -0.329  0.00  0.00    +0.000 A 
ATOM     17  C   LIG    1       -8.976  14.044   0.404  0.00  0.00    +0.040 A 
ATOM     18  C   LIG    1       -9.404  12.793   0.810  0.00  0.00    +0.000 A 
ATOM     19  C   LIG    1       -8.668  11.670   0.486  0.00  0.00    +0.060 A 
ATOM     20  C   LIG    1       -7.494  11.799  -0.251  0.00  0.00    -0.030 A 
ENDBRANCH   9  20
ENDBRANCH   7  12
ENDBRANCH   1   7
BRANCH   5  21
ATOM     21  C   LIG    1       -2.673   3.454   0.068  0.00  0.00    +0.050 C 
BRANCH  21  22
ATOM     22  C   LIG    1       -1.181   3.115   0.101  0.00  0.00    -0.080 C 
ATOM     23  C   LIG    1       -1.001   1.598   0.022  0.00  0.00    +0.050 C 
ATOM     24  C   LIG    1       -0.482   3.775  -1.089  0.00  0.00    +0.050 C 
BRANCH  22  25
ATOM     25  C   LIG    1       -0.579   3.626   1.384  0.00  0.00    +0.530 C 
ATOM     26  O   LIG    1       -1.241   3.645   2.400  0.00  0.00    -0.540 OA
ATOM     27  N   LIG    1        0.697   4.062   1.403  0.00  0.00    -0.860 N 
ATOM     28  H   LIG    1        1.228   4.044   0.592  0.00  0.00    +0.400 HD
ATOM     29  H   LIG    1        1.085   4.392   2.229  0.00  0.00    +0.400 HD
ENDBRANCH  22  25
ENDBRANCH  21  22
ENDBRANCH   5  21
TORSDOF 6
