REMARK  Name = ZINCkj000005keS4.0
REMARK                            x       y       z     vdW  Elec       q    Type
REMARK                         _______ _______ _______ _____ _____    ______ ____
ROOT
ATOM      1  C   LIG    1        3.494   1.888  -1.304  0.00  0.00    +0.110 C 
ATOM      2  C   LIG    1        2.292   1.273  -0.635  0.00  0.00    -0.050 A 
ATOM      3  C   LIG    1        2.394   0.028  -0.042  0.00  0.00    +0.030 A 
ATOM      4  C   LIG    1        1.293  -0.540   0.573  0.00  0.00    -0.150 A 
ATOM      5  C   LIG    1        0.089   0.135   0.596  0.00  0.00    +0.010 A 
ATOM      6  C   LIG    1       -0.017   1.385   0.002  0.00  0.00    +0.160 A 
ATOM      7  C   LIG    1        1.091   1.953  -0.615  0.00  0.00    +0.060 A 
ENDROOT
BRANCH   6   8
ATOM      8  N   LIG    1       -1.237   2.069   0.019  0.00  0.00    -0.670 N 
ATOM      9  H   LIG    1       -2.070   1.577  -0.047  0.00  0.00    +0.420 HD
ATOM     10  C   LIG    1       -1.255   3.413   0.128  0.00  0.00    +0.530 C 
ATOM     11  O   LIG    1       -0.215   4.035   0.127  0.00  0.00    -0.480 OA
BRANCH  10  12
ATOM     12  C   LIG    1       -2.569   4.141   0.252  0.00  0.00    -0.440 C 
ATOM     13  C   LIG    1       -2.370   5.421   1.065  0.00  0.00    +0.100 C 
ATOM     14  C   LIG    1       -3.710   6.122   1.271  0.00  0.00    +0.040 C 
ATOM     15  C   LIG    1       -4.218   6.707  -0.044  0.00  0.00    +0.070 C 
ATOM     16  C   LIG    1       -4.638   5.580  -0.990  0.00  0.00    -0.300 C 
ATOM     17  S   LIG    1       -3.180   4.577  -1.402  0.00  0.00    +2.420 S 
ATOM     18  O   LIG    1       -3.613   3.390  -2.055  0.00  0.00    -0.930 OA
ATOM     19  O   LIG    1       -2.221   5.411  -2.037  0.00  0.00    -0.910 OA
ENDBRANCH  10  12
ENDBRANCH   6   8
BRANCH   4  20
ATOM     20  C   LIG    1        1.409  -1.897   1.218  0.00  0.00    +0.330 C 
BRANCH  20  21
ATOM     21  N   LIG    1        1.087  -2.938   0.232  0.00  0.00    -0.640 N 
ATOM     22  H   LIG    1        1.164  -3.846   0.664  0.00  0.00    +0.440 HD
ATOM     23  H   LIG    1        1.731  -2.877  -0.543  0.00  0.00    +0.440 HD
ATOM     24  H   LIG    1        0.145  -2.803  -0.103  0.00  0.00    +0.430 HD
ENDBRANCH  20  21
ENDBRANCH   4  20
TORSDOF 4
