REMARK  Name = ZINCrH000004sNBm.0
REMARK                            x       y       z     vdW  Elec       q    Type
REMARK                         _______ _______ _______ _____ _____    ______ ____
ROOT
ATOM      1  C   LIG    1        8.605   3.203   0.257  0.00  0.00    +0.560 C 
ATOM      2  N   LIG    1        7.367   3.625   0.583  0.00  0.00    -0.650 N 
ATOM      3  H   LIG    1        7.202   4.568   0.741  0.00  0.00    +0.420 HD
ATOM      4  O   LIG    1        8.792   2.038  -0.035  0.00  0.00    -0.490 OA
ENDROOT
BRANCH   1  10
ATOM      5  C   LIG    1       10.559   4.275  -0.880  0.00  0.00    +0.020 A 
ATOM      6  C   LIG    1       11.619   5.178  -0.867  0.00  0.00    +0.090 A 
ATOM      7  C   LIG    1       11.856   5.950   0.254  0.00  0.00    +0.050 A 
ATOM      8  C   LIG    1       11.045   5.833   1.369  0.00  0.00    +0.050 A 
ATOM      9  C   LIG    1        9.985   4.947   1.374  0.00  0.00    +0.050 A 
ATOM     10  C   LIG    1        9.734   4.156   0.255  0.00  0.00    -0.100 A 
BRANCH   5  15
ATOM     11  C   LIG    1       10.898   2.063  -5.334  0.00  0.00    +0.210 C 
ATOM     12  C   LIG    1       10.432   2.498  -3.968  0.00  0.00    +0.170 A 
ATOM     13  N   LIG    1        9.350   2.103  -3.364  0.00  0.00    -0.380 NA
ATOM     14  O   LIG    1        9.253   2.633  -2.277  0.00  0.00    +0.110 OA
ATOM     15  C   LIG    1       10.302   3.446  -2.076  0.00  0.00    +0.210 A 
ATOM     16  N   LIG    1       11.056   3.367  -3.158  0.00  0.00    -0.470 NA
ENDBRANCH   5  15
ENDBRANCH   1  10
BRANCH   2  17
ATOM     17  C   LIG    1        6.321   2.704   0.694  0.00  0.00    +0.040 A 
ATOM     18  C   LIG    1        6.556   1.409   1.154  0.00  0.00    +0.340 A 
ATOM     19  N   LIG    1        5.543   0.566   1.245  0.00  0.00    -0.490 NA
ATOM     20  C   LIG    1        4.316   0.939   0.905  0.00  0.00    +0.350 A 
ATOM     21  N   LIG    1        4.056   2.160   0.459  0.00  0.00    -0.490 NA
ATOM     22  C   LIG    1        5.019   3.059   0.347  0.00  0.00    +0.310 A 
BRANCH  20  23
ATOM     23  C   LIG    1        3.207  -0.038   1.022  0.00  0.00    -0.050 A 
ATOM     24  C   LIG    1        3.457  -1.329   1.483  0.00  0.00    +0.070 A 
ATOM     25  C   LIG    1        2.421  -2.235   1.589  0.00  0.00    +0.000 A 
ATOM     26  C   LIG    1        1.135  -1.862   1.239  0.00  0.00    +0.030 A 
ATOM     27  C   LIG    1        0.881  -0.582   0.782  0.00  0.00    +0.000 A 
ATOM     28  C   LIG    1        1.909   0.332   0.671  0.00  0.00    +0.070 A 
ENDBRANCH  20  23
ENDBRANCH   2  17
TORSDOF 4
