REMARK  Name = ZINCpe000000SoAj.0
REMARK                            x       y       z     vdW  Elec       q    Type
REMARK                         _______ _______ _______ _____ _____    ______ ____
ROOT
ATOM      1  N   LIG    1       -1.568   5.213   2.685  0.00  0.00    -0.560 N 
ATOM      2  C   LIG    1       -2.542   5.955   2.145  0.00  0.00    +0.710 C 
ATOM      3  N   LIG    1       -2.322   7.274   2.288  0.00  0.00    -0.720 N 
ATOM      4  H   LIG    1       -2.893   7.994   1.975  0.00  0.00    +0.440 HD
ATOM      5  C   LIG    1       -1.046   7.413   3.010  0.00  0.00    +0.170 C 
ATOM      6  C   LIG    1       -1.258   8.133   4.343  0.00  0.00    +0.100 C 
ATOM      7  O   LIG    1       -3.517   5.488   1.589  0.00  0.00    -0.530 OA
ATOM      8  C   LIG    1       -0.610   5.980   3.242  0.00  0.00    +0.540 C 
ATOM      9  O   LIG    1        0.393   5.603   3.810  0.00  0.00    -0.450 OA
ENDROOT
BRANCH   5  10
ATOM     10  C   LIG    1       -0.037   8.149   2.167  0.00  0.00    -0.120 A 
ATOM     11  C   LIG    1        1.310   7.862   2.295  0.00  0.00    +0.080 A 
ATOM     12  C   LIG    1        2.236   8.531   1.518  0.00  0.00    -0.040 A 
ATOM     13  C   LIG    1        1.816   9.499   0.618  0.00  0.00    +0.120 A 
ATOM     14  C   LIG    1        0.465   9.789   0.496  0.00  0.00    +0.010 A 
ATOM     15  C   LIG    1       -0.459   9.113   1.270  0.00  0.00    +0.070 A 
BRANCH  13  16
ATOM     16  O   LIG    1        2.726  10.162  -0.143  0.00  0.00    -0.320 OA
BRANCH  16  17
ATOM     17  C   LIG    1        4.100   9.812   0.036  0.00  0.00    +0.590 C 
ATOM     18  F   LIG    1        4.278   8.456  -0.260  0.00  0.00    -0.200 F 
ATOM     19  F   LIG    1        4.473  10.052   1.363  0.00  0.00    -0.200 F 
ENDBRANCH  16  17
ENDBRANCH  13  16
ENDBRANCH   5  10
BRANCH   1  20
ATOM     20  C   LIG    1       -1.548   3.748   2.677  0.00  0.00    +0.360 C 
BRANCH  20  23
ATOM     21  N   LIG    1       -0.704   1.940   1.215  0.00  0.00    -0.720 N 
ATOM     22  H   LIG    1       -1.058   1.302   1.854  0.00  0.00    +0.410 HD
ATOM     23  C   LIG    1       -0.843   3.262   1.437  0.00  0.00    +0.500 C 
ATOM     24  O   LIG    1       -0.400   4.061   0.639  0.00  0.00    -0.520 OA
BRANCH  21  25
ATOM     25  C   LIG    1       -0.018   1.468   0.010  0.00  0.00    +0.410 C 
BRANCH  25  27
ATOM     26  C   LIG    1        0.018  -1.178  -0.004  0.00  0.00    +0.060 C 
ATOM     27  C   LIG    1        0.002  -0.004   0.002  0.00  0.00    -0.220 C 
ENDBRANCH  25  27
ENDBRANCH  21  25
ENDBRANCH  20  23
ENDBRANCH   1  20
TORSDOF 7
