REMARK  Name = ZINCpk00000KfLa4.0
REMARK                            x       y       z     vdW  Elec       q    Type
REMARK                         _______ _______ _______ _____ _____    ______ ____
ROOT
ATOM      1  C   LIG    1        3.058   1.770   0.674  0.00  0.00    +0.290 C 
ATOM      2  C   LIG    1        3.606   2.688   1.770  0.00  0.00    +0.190 C 
ATOM      3  N   LIG    1        3.574   4.080   1.298  0.00  0.00    -0.500 NA
ATOM      4  C   LIG    1        2.204   4.479   0.945  0.00  0.00    +0.170 C 
ATOM      5  C   LIG    1        1.670   3.542  -0.143  0.00  0.00    +0.250 C 
ATOM      6  O   LIG    1        1.738   2.192   0.322  0.00  0.00    -0.390 OA
ENDROOT
BRANCH   1  10
ATOM      7  C   LIG    1        2.351  -1.632   1.738  0.00  0.00    +0.180 A 
ATOM      8  N   LIG    1        3.621  -1.501   2.010  0.00  0.00    -0.280 NA
ATOM      9  N   LIG    1        4.015  -0.323   1.679  0.00  0.00    -0.280 NA
ATOM     10  C   LIG    1        3.015   0.351   1.181  0.00  0.00    +0.180 A 
ATOM     11  N   LIG    1        1.930  -0.460   1.204  0.00  0.00    -0.560 N 
ATOM     12  H   LIG    1        1.035  -0.247   0.897  0.00  0.00    +0.430 HD
BRANCH   7  13
ATOM     13  C   LIG    1        1.509  -2.859   1.975  0.00  0.00    +0.150 C 
BRANCH  13  15
ATOM     14  C   LIG    1        1.299  -5.308   1.525  0.00  0.00    +0.020 C 
ATOM     15  C   LIG    1        2.154  -4.062   1.284  0.00  0.00    +0.020 C 
ENDBRANCH  13  15
ENDBRANCH   7  13
ENDBRANCH   1  10
BRANCH   3  16
ATOM     16  C   LIG    1        4.145   4.989   2.300  0.00  0.00    +0.190 C 
ATOM     17  C   LIG    1        3.915   6.438   1.864  0.00  0.00    +0.080 C 
BRANCH  16  18
ATOM     18  C   LIG    1        3.478   4.753   3.631  0.00  0.00    +0.480 C 
ATOM     19  N   LIG    1        4.150   4.996   4.774  0.00  0.00    -0.630 N 
ATOM     20  H   LIG    1        5.062   5.323   4.740  0.00  0.00    +0.430 HD
ATOM     21  O   LIG    1        2.337   4.345   3.673  0.00  0.00    -0.490 OA
BRANCH  19  22
ATOM     22  C   LIG    1        3.536   4.779   5.998  0.00  0.00    +0.210 A 
ATOM     23  C   LIG    1        4.080   4.977   7.234  0.00  0.00    -0.090 A 
ATOM     24  C   LIG    1        3.049   4.610   8.122  0.00  0.00    +0.040 A 
ATOM     25  N   LIG    1        2.037   4.246   7.385  0.00  0.00    -0.370 NA
ATOM     26  C   LIG    1        3.105   4.633   9.628  0.00  0.00    +0.160 C 
ATOM     27  O   LIG    1        2.285   4.338   6.205  0.00  0.00    +0.110 OA
ENDBRANCH  19  22
ENDBRANCH  16  18
ENDBRANCH   3  16
TORSDOF 6
