REMARK  Name = ZINCrD00000F5LEk.0
REMARK                            x       y       z     vdW  Elec       q    Type
REMARK                         _______ _______ _______ _____ _____    ______ ____
ROOT
ATOM      1  C   LIG    1       -1.347   7.708   2.546  0.00  0.00    +0.540 C 
ATOM      2  N   LIG    1       -1.827   7.963   1.312  0.00  0.00    -0.610 N 
ATOM      3  C   LIG    1       -3.018   8.775   1.003  0.00  0.00    +0.250 C 
ATOM      4  C   LIG    1       -3.494   8.270  -0.382  0.00  0.00    +0.040 C 
ATOM      5  C   LIG    1       -2.143   7.995  -1.094  0.00  0.00    +0.040 C 
ATOM      6  C   LIG    1       -1.248   7.477   0.051  0.00  0.00    +0.250 C 
ATOM      7  O   LIG    1       -0.355   7.025   2.682  0.00  0.00    -0.520 OA
ENDROOT
BRANCH   1  11
ATOM      8  O   LIG    1       -1.893  11.225   5.770  0.00  0.00    -0.520 OA
ATOM      9  C   LIG    1       -1.751  10.127   5.274  0.00  0.00    +0.520 C 
ATOM     10  C   LIG    1       -1.911   9.814   3.803  0.00  0.00    +0.080 C 
ATOM     11  C   LIG    1       -2.045   8.274   3.756  0.00  0.00    +0.000 C 
ATOM     12  C   LIG    1       -1.323   7.855   5.056  0.00  0.00    +0.300 C 
ATOM     13  N   LIG    1       -1.427   9.012   5.952  0.00  0.00    -0.620 N 
BRANCH  13  14
ATOM     14  C   LIG    1       -1.207   8.960   7.399  0.00  0.00    +0.430 C 
BRANCH  14  15
ATOM     15  C   LIG    1        0.247   9.220   7.696  0.00  0.00    -0.050 A 
ATOM     16  C   LIG    1        0.802  10.426   7.916  0.00  0.00    -0.030 A 
ATOM     17  C   LIG    1        2.178  10.207   8.154  0.00  0.00    -0.070 A 
ATOM     18  C   LIG    1        2.384   8.881   8.057  0.00  0.00    +0.170 A 
ATOM     19  O   LIG    1        1.211   8.288   7.780  0.00  0.00    -0.170 OA
ENDBRANCH  14  15
ENDBRANCH  13  14
ENDBRANCH   1  11
BRANCH   6  20
ATOM     20  C   LIG    1       -1.227   5.970   0.043  0.00  0.00    -0.050 C 
ATOM     21  C   LIG    1       -0.070   5.323   0.029  0.00  0.00    +0.040 C 
BRANCH  21  22
ATOM     22  C   LIG    1       -0.050   3.845   0.022  0.00  0.00    -0.060 A 
ATOM     23  C   LIG    1        1.166   3.160   0.007  0.00  0.00    +0.010 A 
ATOM     24  C   LIG    1        1.178   1.781   0.000  0.00  0.00    +0.000 A 
ATOM     25  C   LIG    1       -0.013   1.076   0.008  0.00  0.00    +0.000 A 
ATOM     26  C   LIG    1       -1.222   1.748   0.017  0.00  0.00    +0.000 A 
ATOM     27  C   LIG    1       -1.247   3.128   0.030  0.00  0.00    +0.010 A 
ENDBRANCH  21  22
ENDBRANCH   6  20
TORSDOF 5
