REMARK  Name = ZINC550000002FzL.0
REMARK                            x       y       z     vdW  Elec       q    Type
REMARK                         _______ _______ _______ _____ _____    ______ ____
ROOT
ATOM      1  N   LIG    1        2.621   3.463  -0.004  0.00  0.00    -0.860 N 
ATOM      2  H   LIG    1        2.709   4.429   0.000  0.00  0.00    +0.420 HD
ATOM      3  H   LIG    1        3.413   2.904  -0.015  0.00  0.00    +0.400 HD
ATOM      4  C   LIG    1        1.397   2.898   0.004  0.00  0.00    +0.720 C 
ATOM      5  N   LIG    1        1.275   1.556  -0.002  0.00  0.00    -0.610 N 
ATOM      6  H   LIG    1        2.067   0.997  -0.012  0.00  0.00    +0.410 HD
ATOM      7  O   LIG    1        0.404   3.600   0.018  0.00  0.00    -0.570 OA
ENDROOT
BRANCH   5   8
ATOM      8  O   LIG    1       -0.011   0.963   0.007  0.00  0.00    -0.300 OA
ATOM      9  H   LIG    1        0.002  -0.004   0.002  0.00  0.00    +0.390 HD
ENDBRANCH   5   8
TORSDOF 1
