REMARK  Name = ZINCpk00000xI1iB.0
REMARK                            x       y       z     vdW  Elec       q    Type
REMARK                         _______ _______ _______ _____ _____    ______ ____
ROOT
ATOM      1  C   LIG    1       -0.013   1.086   0.008  0.00  0.00    +0.190 C 
ATOM      2  C   LIG    1       -0.718   1.572   1.248  0.00  0.00    +0.070 A 
ATOM      3  C   LIG    1       -2.020   1.819   1.358  0.00  0.00    +0.020 A 
ATOM      4  N   LIG    1       -2.275   2.244   2.651  0.00  0.00    -0.350 N 
ATOM      5  C   LIG    1       -1.104   2.261   3.329  0.00  0.00    +0.450 A 
ATOM      6  N   LIG    1       -1.324   2.670   4.570  0.00  0.00    -0.500 NA
ATOM      7  C   LIG    1       -2.618   2.928   4.740  0.00  0.00    +0.380 A 
ATOM      8  N   LIG    1       -3.374   3.373   5.815  0.00  0.00    -0.510 N 
ATOM      9  C   LIG    1       -2.727   3.656   7.098  0.00  0.00    +0.350 C 
ATOM     10  C   LIG    1       -4.702   3.544   5.678  0.00  0.00    +0.710 A 
ATOM     11  O   LIG    1       -5.351   3.934   6.630  0.00  0.00    -0.530 OA
ATOM     12  N   LIG    1       -5.330   3.295   4.516  0.00  0.00    -0.550 N 
ATOM     13  C   LIG    1       -6.777   3.497   4.421  0.00  0.00    +0.340 C 
ATOM     14  C   LIG    1       -4.648   2.861   3.436  0.00  0.00    +0.600 A 
ATOM     15  O   LIG    1       -5.230   2.638   2.389  0.00  0.00    -0.520 OA
ATOM     16  C   LIG    1       -3.260   2.667   3.531  0.00  0.00    -0.180 A 
ATOM     17  C   LIG    1       -3.043   1.661   0.264  0.00  0.00    +0.170 C 
ATOM     18  N   LIG    1       -0.122   1.844   2.466  0.00  0.00    -0.410 N 
ENDROOT
BRANCH  18  19
ATOM     19  C   LIG    1        1.241   1.716   2.766  0.00  0.00    +0.080 A 
ATOM     20  C   LIG    1        2.099   2.790   2.572  0.00  0.00    +0.070 A 
ATOM     21  C   LIG    1        3.442   2.661   2.869  0.00  0.00    +0.020 A 
ATOM     22  C   LIG    1        3.933   1.465   3.358  0.00  0.00    +0.080 A 
ATOM     23  C   LIG    1        3.082   0.392   3.553  0.00  0.00    +0.000 A 
ATOM     24  C   LIG    1        1.736   0.515   3.263  0.00  0.00    +0.130 A 
ATOM     25  F   LIG    1        0.903  -0.531   3.459  0.00  0.00    -0.130 F 
ENDBRANCH  18  19
TORSDOF 1
