REMARK  Name = ZINCrD000000D5Ud.2
REMARK                            x       y       z     vdW  Elec       q    Type
REMARK                         _______ _______ _______ _____ _____    ______ ____
ROOT
ATOM      1  O   LIG    1       -1.090  -1.229  -2.660  0.00  0.00    -0.940 OA
ATOM      2  S   LIG    1       -1.772  -0.185  -1.979  0.00  0.00    +2.610 S 
ATOM      3  O   LIG    1       -2.902  -0.459  -1.163  0.00  0.00    -0.940 OA
ENDROOT
BRANCH   2   4
ATOM      4  C   LIG    1       -0.594   0.878  -1.100  0.00  0.00    -0.470 C 
ATOM      5  C   LIG    1       -1.334   2.054  -0.423  0.00  0.00    +0.080 C 
ATOM      6  C   LIG    1       -0.595   2.195   0.932  0.00  0.00    +0.180 C 
ATOM      7  N   LIG    1       -0.303   0.786   1.312  0.00  0.00    -0.510 NA
ATOM      8  C   LIG    1        0.068   0.102   0.054  0.00  0.00    +0.210 C 
BRANCH   7   9
ATOM      9  C   LIG    1        0.790   0.716   2.291  0.00  0.00    +0.220 C 
BRANCH   9  10
ATOM     10  C   LIG    1        0.480   1.623   3.454  0.00  0.00    -0.090 A 
ATOM     11  C   LIG    1        0.899   2.940   3.435  0.00  0.00    +0.010 A 
ATOM     12  C   LIG    1        0.611   3.773   4.500  0.00  0.00    +0.000 A 
ATOM     13  C   LIG    1       -0.087   3.286   5.589  0.00  0.00    +0.000 A 
ATOM     14  C   LIG    1       -0.501   1.967   5.611  0.00  0.00    +0.000 A 
ATOM     15  C   LIG    1       -0.218   1.136   4.544  0.00  0.00    +0.020 A 
ENDBRANCH   9  10
ENDBRANCH   7   9
ENDBRANCH   2   4
BRANCH   2  16
ATOM     16  N   LIG    1       -2.367   0.773  -3.192  0.00  0.00    -0.970 NA
BRANCH  16  17
ATOM     17  C   LIG    1       -1.625   0.910  -4.448  0.00  0.00    +0.210 C 
ATOM     18  C   LIG    1       -2.189   1.866  -5.501  0.00  0.00    +0.030 C 
ATOM     19  C   LIG    1       -2.274   0.353  -5.716  0.00  0.00    +0.010 C 
ENDBRANCH  16  17
BRANCH  16  20
ATOM     20  C   LIG    1       -3.635   1.483  -3.009  0.00  0.00    +0.360 C 
BRANCH  20  21
ATOM     21  C   LIG    1       -4.760   0.656  -3.575  0.00  0.00    -0.130 A 
ATOM     22  C   LIG    1       -5.213   0.892  -4.860  0.00  0.00    +0.050 A 
ATOM     23  C   LIG    1       -6.241   0.130  -5.382  0.00  0.00    -0.020 A 
ATOM     24  C   LIG    1       -6.826  -0.862  -4.614  0.00  0.00    +0.100 A 
ATOM     25  C   LIG    1       -6.376  -1.093  -3.325  0.00  0.00    -0.020 A 
ATOM     26  F   LIG    1       -7.835  -1.603  -5.121  0.00  0.00    -0.140 F 
ATOM     27  C   LIG    1       -5.343  -0.335  -2.807  0.00  0.00    +0.080 A 
ENDBRANCH  20  21
ENDBRANCH  16  20
ENDBRANCH   2  16
TORSDOF 7
