REMARK  Name = ZINCrg00000fSr5h.0
REMARK                            x       y       z     vdW  Elec       q    Type
REMARK                         _______ _______ _______ _____ _____    ______ ____
ROOT
ATOM      1  N   LIG    1       -1.286   3.815   4.919  0.00  0.00    -0.560 NA
ATOM      2  C   LIG    1       -0.763   4.071   6.260  0.00  0.00    +0.180 C 
ATOM      3  C   LIG    1        0.474   4.935   6.152  0.00  0.00    +0.030 C 
ATOM      4  C   LIG    1        0.081   6.417   6.270  0.00  0.00    +0.260 C 
ATOM      5  N   LIG    1       -1.172   6.699   5.541  0.00  0.00    -0.600 N 
ATOM      6  C   LIG    1       -1.457   6.139   4.236  0.00  0.00    +0.300 C 
ATOM      7  C   LIG    1       -2.085   7.509   6.112  0.00  0.00    +0.560 C 
ATOM      8  O   LIG    1       -3.097   7.806   5.508  0.00  0.00    -0.530 OA
ATOM      9  C   LIG    1       -2.180   4.780   4.399  0.00  0.00    +0.180 C 
ENDROOT
BRANCH   7  10
ATOM     10  C   LIG    1       -1.856   8.037   7.472  0.00  0.00    -0.120 A 
ATOM     11  C   LIG    1       -2.875   7.976   8.426  0.00  0.00    +0.090 A 
ATOM     12  C   LIG    1       -2.660   8.462   9.698  0.00  0.00    +0.010 A 
ATOM     13  C   LIG    1       -1.435   9.024  10.028  0.00  0.00    +0.120 A 
ATOM     14  N   LIG    1       -1.206   9.524  11.313  0.00  0.00    -0.660 N 
ATOM     15  H   LIG    1       -1.800   9.292  12.044  0.00  0.00    +0.420 HD
ATOM     16  C   LIG    1       -0.147  10.336  11.522  0.00  0.00    +0.490 C 
ATOM     17  C   LIG    1        0.744  10.717  10.367  0.00  0.00    +0.300 C 
ATOM     18  O   LIG    1        0.780   9.650   9.417  0.00  0.00    -0.300 OA
ATOM     19  O   LIG    1        0.086  10.758  12.635  0.00  0.00    -0.500 OA
ATOM     20  C   LIG    1       -0.414   9.094   9.077  0.00  0.00    +0.070 A 
ATOM     21  C   LIG    1       -0.622   8.603   7.804  0.00  0.00    +0.070 A 
ENDBRANCH   7  10
BRANCH   1  22
ATOM     22  C   LIG    1       -1.856   2.465   4.825  0.00  0.00    +0.260 C 
BRANCH  22  26
ATOM     23  C   LIG    1       -0.899   0.647   0.253  0.00  0.00    +0.350 C 
ATOM     24  N   LIG    1       -1.575   1.285   1.386  0.00  0.00    -0.380 N 
ATOM     25  C   LIG    1       -1.065   1.448   2.625  0.00  0.00    +0.250 A 
ATOM     26  C   LIG    1       -1.997   2.079   3.376  0.00  0.00    -0.240 A 
ATOM     27  C   LIG    1       -3.116   2.308   2.568  0.00  0.00    +0.230 A 
ATOM     28  N   LIG    1       -2.862   1.838   1.374  0.00  0.00    -0.300 NA
ENDBRANCH  22  26
ENDBRANCH   1  22
TORSDOF 3
