REMARK  Name = ZINCvU0000000FGd.0
REMARK                            x       y       z     vdW  Elec       q    Type
REMARK                         _______ _______ _______ _____ _____    ______ ____
ROOT
ATOM      1  C   LIG    1       -1.603   4.213   3.254  0.00  0.00    +0.070 C 
ATOM      2  C   LIG    1       -1.993   2.757   3.520  0.00  0.00    +0.220 C 
ENDROOT
BRANCH   2   3
ATOM      3  C   LIG    1       -0.752   1.904   3.563  0.00  0.00    -0.120 A 
ATOM      4  C   LIG    1       -0.211   1.533   4.779  0.00  0.00    +0.120 A 
ATOM      5  C   LIG    1        0.927   0.750   4.822  0.00  0.00    -0.070 A 
ATOM      6  C   LIG    1        1.529   0.335   3.643  0.00  0.00    +0.150 A 
ATOM      7  C   LIG    1        0.986   0.702   2.422  0.00  0.00    -0.060 A 
ATOM      8  C   LIG    1       -0.153   1.491   2.381  0.00  0.00    +0.150 A 
BRANCH   6   9
ATOM      9  O   LIG    1        2.648  -0.436   3.686  0.00  0.00    -0.320 OA
BRANCH   9  10
ATOM     10  C   LIG    1        3.149  -0.781   4.979  0.00  0.00    +0.600 C 
ATOM     11  F   LIG    1        2.173  -1.495   5.682  0.00  0.00    -0.200 F 
ATOM     12  F   LIG    1        3.469   0.386   5.682  0.00  0.00    -0.200 F 
ENDBRANCH   9  10
ENDBRANCH   6   9
BRANCH   8  13
ATOM     13  O   LIG    1       -0.686   1.856   1.185  0.00  0.00    -0.310 OA
BRANCH  13  14
ATOM     14  C   LIG    1       -0.017   1.395   0.010  0.00  0.00    +0.600 C 
ATOM     15  F   LIG    1        1.296   1.879  -0.000  0.00  0.00    -0.190 F 
ATOM     16  F   LIG    1        0.002  -0.004   0.002  0.00  0.00    -0.190 F 
ENDBRANCH  13  14
ENDBRANCH   8  13
ENDBRANCH   2   3
BRANCH   2  17
ATOM     17  N   LIG    1       -2.693   2.666   4.804  0.00  0.00    -0.190 NA
ATOM     18  N   LIG    1       -3.793   3.221   4.951  0.00  0.00    -0.180 NA
BRANCH  18  19
ATOM     19  C   LIG    1       -4.447   3.136   6.152  0.00  0.00    +0.140 A 
ATOM     20  C   LIG    1       -3.880   2.426   7.212  0.00  0.00    +0.060 A 
ATOM     21  C   LIG    1       -4.544   2.344   8.418  0.00  0.00    +0.150 A 
ATOM     22  C   LIG    1       -5.770   2.964   8.579  0.00  0.00    -0.170 A 
ATOM     23  C   LIG    1       -6.339   3.670   7.533  0.00  0.00    +0.160 A 
ATOM     24  C   LIG    1       -5.683   3.764   6.324  0.00  0.00    -0.000 A 
BRANCH  22  25
ATOM     25  C   LIG    1       -6.490   2.871   9.900  0.00  0.00    +0.520 C 
ATOM     26  F   LIG    1       -7.733   2.256   9.711  0.00  0.00    -0.170 F 
ATOM     27  F   LIG    1       -6.679   4.155  10.420  0.00  0.00    -0.170 F 
ATOM     28  F   LIG    1       -5.727   2.113  10.794  0.00  0.00    -0.170 F 
ENDBRANCH  22  25
BRANCH  24  29
ATOM     29  N   LIG    1       -6.289   4.524   5.208  0.00  0.00    +0.020 N 
ATOM     30  O   LIG    1       -5.711   4.602   4.139  0.00  0.00    -0.100 OA
ATOM     31  O   LIG    1       -7.367   5.071   5.359  0.00  0.00    -0.170 OA
ENDBRANCH  24  29
ENDBRANCH  18  19
ENDBRANCH   2  17
TORSDOF 9
