REMARK  Name = ZINCvU0000000EFZ.0
REMARK                            x       y       z     vdW  Elec       q    Type
REMARK                         _______ _______ _______ _____ _____    ______ ____
ROOT
ATOM      1  N   LIG    1       -1.646  -1.371   1.178  0.00  0.00    -0.630 N 
ATOM      2  H   LIG    1       -1.263  -1.068   2.016  0.00  0.00    +0.410 HD
ATOM      3  C   LIG    1       -1.136  -0.938   0.008  0.00  0.00    +0.580 C 
ATOM      4  O   LIG    1       -1.616  -1.318  -1.042  0.00  0.00    -0.390 OA
ENDROOT
BRANCH   3   5
ATOM      5  C   LIG    1        0.002  -0.004   0.002  0.00  0.00    -0.260 A 
ATOM      6  C   LIG    1       -0.017   1.368   0.010  0.00  0.00    +0.040 A 
ATOM      7  O   LIG    1        1.258   1.766  -0.001  0.00  0.00    +0.110 OA
ATOM      8  N   LIG    1        2.045   0.852  -0.013  0.00  0.00    -0.320 NA
ATOM      9  C   LIG    1       -1.236   2.253   0.020  0.00  0.00    +0.210 C 
ATOM     10  C   LIG    1        1.448  -0.313  -0.013  0.00  0.00    +0.090 A 
BRANCH  10  11
ATOM     11  C   LIG    1        2.084  -1.652  -0.027  0.00  0.00    -0.020 A 
ATOM     12  C   LIG    1        1.295  -2.801  -0.019  0.00  0.00    +0.050 A 
ATOM     13  C   LIG    1        1.892  -4.045  -0.037  0.00  0.00    +0.030 A 
ATOM     14  C   LIG    1        3.271  -4.154  -0.051  0.00  0.00    +0.050 A 
ATOM     15  C   LIG    1        4.060  -3.018  -0.052  0.00  0.00    +0.030 A 
ATOM     16  C   LIG    1        3.474  -1.767  -0.041  0.00  0.00    -0.010 A 
ATOM     17 CL   LIG    1        4.465  -0.342  -0.042  0.00  0.00    -0.040 Cl
ENDBRANCH  10  11
ENDBRANCH   3   5
BRANCH   1  18
ATOM     18  C   LIG    1       -2.688  -2.226   1.184  0.00  0.00    +0.470 C 
ATOM     19  S   LIG    1       -3.364  -2.761  -0.295  0.00  0.00    -0.350 S 
BRANCH  18  20
ATOM     20  N   LIG    1       -3.197  -2.659   2.354  0.00  0.00    -0.580 N 
ATOM     21  H   LIG    1       -2.814  -2.356   3.192  0.00  0.00    +0.420 HD
BRANCH  20  27
ATOM     22  C   LIG    1       -7.964  -6.566   2.196  0.00  0.00    +0.150 A 
ATOM     23  C   LIG    1       -7.690  -6.324   0.853  0.00  0.00    -0.050 A 
ATOM     24  C   LIG    1       -6.669  -5.482   0.491  0.00  0.00    +0.130 A 
ATOM     25  C   LIG    1       -5.880  -4.848   1.474  0.00  0.00    +0.050 A 
ATOM     26  N   LIG    1       -4.850  -3.994   1.306  0.00  0.00    -0.390 NA
ATOM     27  C   LIG    1       -4.268  -3.538   2.360  0.00  0.00    +0.300 A 
ATOM     28  S   LIG    1       -5.030  -4.181   3.808  0.00  0.00    +0.060 S 
ATOM     29  C   LIG    1       -6.164  -5.099   2.820  0.00  0.00    -0.120 A 
ATOM     30  C   LIG    1       -7.203  -5.955   3.174  0.00  0.00    +0.030 A 
BRANCH  22  31
ATOM     31  O   LIG    1       -8.978  -7.402   2.544  0.00  0.00    -0.310 OA
BRANCH  31  33
ATOM     32  C   LIG    1      -10.812  -8.901   2.061  0.00  0.00    +0.070 C 
ATOM     33  C   LIG    1       -9.722  -7.999   1.479  0.00  0.00    +0.190 C 
ENDBRANCH  31  33
ENDBRANCH  22  31
ENDBRANCH  20  27
ENDBRANCH  18  20
ENDBRANCH   1  18
TORSDOF 7
