REMARK  Name = ZINCtV000002sGUA.0
REMARK                            x       y       z     vdW  Elec       q    Type
REMARK                         _______ _______ _______ _____ _____    ______ ____
ROOT
ATOM      1  C   LIG    1       -0.730   1.925  -1.306  0.00  0.00    +0.360 C 
ATOM      2  C   LIG    1       -0.088   1.407  -0.018  0.00  0.00    +0.040 C 
ATOM      3  C   LIG    1       -0.761   2.068   1.188  0.00  0.00    +0.040 C 
ATOM      4  C   LIG    1       -0.357   3.545   1.235  0.00  0.00    +0.130 C 
ATOM      5  C   LIG    1       -0.568   4.147  -0.135  0.00  0.00    -0.200 A 
ATOM      6  S   LIG    1       -0.635   5.867  -0.505  0.00  0.00    +0.080 S 
ATOM      7  C   LIG    1       -0.890   5.486  -2.205  0.00  0.00    +0.110 A 
ATOM      8  N   LIG    1       -0.903   4.197  -2.352  0.00  0.00    -0.430 NA
ATOM      9  C   LIG    1       -0.736   3.448  -1.275  0.00  0.00    +0.050 A 
ENDROOT
BRANCH   7  10
ATOM     10  C   LIG    1       -1.060   6.475  -3.291  0.00  0.00    -0.040 A 
ATOM     11  C   LIG    1       -1.250   6.047  -4.605  0.00  0.00    +0.110 A 
ATOM     12  C   LIG    1       -1.414   6.974  -5.613  0.00  0.00    -0.010 A 
ATOM     13  C   LIG    1       -1.380   8.329  -5.323  0.00  0.00    +0.120 A 
ATOM     14  C   LIG    1       -1.186   8.760  -4.021  0.00  0.00    -0.010 A 
ATOM     15  F   LIG    1       -1.536   9.234  -6.315  0.00  0.00    -0.130 F 
ATOM     16  C   LIG    1       -1.026   7.841  -3.005  0.00  0.00    +0.060 A 
ENDBRANCH   7  10
BRANCH   1  20
ATOM     17  N   LIG    1        0.158   0.912  -4.727  0.00  0.00    -0.690 N 
ATOM     18  H   LIG    1        1.113   0.765  -4.645  0.00  0.00    +0.400 HD
ATOM     19  C   LIG    1       -0.552   1.339  -3.665  0.00  0.00    +0.710 C 
ATOM     20  N   LIG    1        0.042   1.460  -2.461  0.00  0.00    -0.730 N 
ATOM     21  H   LIG    1        0.981   1.239  -2.360  0.00  0.00    +0.400 HD
ATOM     22  O   LIG    1       -1.729   1.616  -3.792  0.00  0.00    -0.550 OA
BRANCH  17  26
ATOM     23  C   LIG    1       -1.748   0.222  -8.367  0.00  0.00    -0.090 A 
ATOM     24  C   LIG    1       -0.446   0.686  -8.348  0.00  0.00    +0.020 A 
ATOM     25  C   LIG    1        0.189   0.916  -7.143  0.00  0.00    -0.030 A 
ATOM     26  C   LIG    1       -0.482   0.680  -5.950  0.00  0.00    +0.170 A 
ATOM     27  C   LIG    1       -1.788   0.209  -5.973  0.00  0.00    +0.010 A 
ATOM     28  C   LIG    1       -2.419  -0.014  -7.181  0.00  0.00    +0.030 A 
BRANCH  23  30
ATOM     29  C   LIG    1       -2.845  -1.500  -9.774  0.00  0.00    +0.040 C 
ATOM     30  C   LIG    1       -2.437  -0.028  -9.684  0.00  0.00    +0.020 C 
ATOM     31  C   LIG    1       -3.684   0.853  -9.782  0.00  0.00    +0.030 C 
ENDBRANCH  23  30
ENDBRANCH  17  26
ENDBRANCH   1  20
TORSDOF 4
