REMARK  Name = ZINCpk00000xI3z1.0
REMARK                            x       y       z     vdW  Elec       q    Type
REMARK                         _______ _______ _______ _____ _____    ______ ____
ROOT
ATOM      1  C   LIG    1       -0.962   2.612   4.691  0.00  0.00    +0.220 C 
ATOM      2  C   LIG    1       -0.495   1.429   5.580  0.00  0.00    +0.050 C 
ATOM      3  C   LIG    1       -1.092   1.819   6.955  0.00  0.00    +0.270 C 
ATOM      4  N   LIG    1       -2.396   2.431   6.640  0.00  0.00    -0.620 N 
ATOM      5  C   LIG    1       -3.451   2.505   7.476  0.00  0.00    +0.540 C 
ATOM      6  O   LIG    1       -4.479   3.032   7.109  0.00  0.00    -0.500 OA
ATOM      7  C   LIG    1       -2.355   2.950   5.262  0.00  0.00    +0.310 C 
ENDROOT
BRANCH   1  12
ATOM      8  C   LIG    1        0.073   1.019   0.057  0.00  0.00    +0.200 C 
ATOM      9  C   LIG    1       -0.643   1.514   1.287  0.00  0.00    +0.170 A 
ATOM     10  N   LIG    1       -1.915   1.760   1.390  0.00  0.00    -0.370 NA
ATOM     11  O   LIG    1       -2.180   2.142   2.511  0.00  0.00    +0.090 OA
ATOM     12  C   LIG    1       -1.066   2.186   3.249  0.00  0.00    +0.160 A 
ATOM     13  N   LIG    1       -0.083   1.788   2.479  0.00  0.00    -0.470 NA
ENDBRANCH   1  12
BRANCH   5  14
ATOM     14  C   LIG    1       -3.352   1.932   8.866  0.00  0.00    +0.150 C 
ATOM     15  C   LIG    1       -2.297   2.706   9.695  0.00  0.00    +0.060 C 
ATOM     16  C   LIG    1       -2.778   2.436  11.145  0.00  0.00    +0.020 C 
ATOM     17  C   LIG    1       -4.315   2.425  11.006  0.00  0.00    +0.200 C 
ATOM     18  N   LIG    1       -4.624   2.128   9.595  0.00  0.00    -0.470 N 
BRANCH  18  19
ATOM     19  C   LIG    1       -5.441   1.001   9.488  0.00  0.00    +0.080 A 
ATOM     20  C   LIG    1       -6.744   1.127   9.023  0.00  0.00    +0.050 A 
ATOM     21  C   LIG    1       -7.548   0.010   8.914  0.00  0.00    +0.020 A 
ATOM     22  C   LIG    1       -7.061  -1.232   9.277  0.00  0.00    +0.000 A 
ATOM     23  C   LIG    1       -5.766  -1.361   9.746  0.00  0.00    +0.010 A 
ATOM     24  C   LIG    1       -4.955  -0.248   9.852  0.00  0.00    -0.030 A 
ENDBRANCH  18  19
ENDBRANCH   5  14
BRANCH   1  25
ATOM     25  O   LIG    1       -0.076   3.725   4.824  0.00  0.00    -0.520 OA
ATOM     26  H   LIG    1        0.823   3.552   4.513  0.00  0.00    +0.390 HD
ENDBRANCH   1  25
TORSDOF 4
