REMARK  Name = ZINCvU0000000Jhm.0
REMARK                            x       y       z     vdW  Elec       q    Type
REMARK                         _______ _______ _______ _____ _____    ______ ____
ROOT
ATOM      1  N   LIG    1       -1.191   1.870   0.018  0.00  0.00    -0.630 N 
ATOM      2  H   LIG    1       -1.204   2.840   0.023  0.00  0.00    +0.420 HD
ATOM      3  C   LIG    1       -0.014   1.212   0.009  0.00  0.00    +0.550 C 
ATOM      4  O   LIG    1        0.002  -0.004   0.002  0.00  0.00    -0.430 OA
ENDROOT
BRANCH   1  10
ATOM      5  C   LIG    1       -6.387  -1.440   0.022  0.00  0.00    -0.660 A 
ATOM      6  C   LIG    1       -5.387  -2.401   0.012  0.00  0.00    +0.130 A 
ATOM      7  C   LIG    1       -4.065  -2.033   0.007  0.00  0.00    +0.060 A 
ATOM      8  C   LIG    1       -3.703  -0.669   0.015  0.00  0.00    +0.170 A 
ATOM      9  N   LIG    1       -2.471  -0.124   0.007  0.00  0.00    -0.480 NA
ATOM     10  C   LIG    1       -2.380   1.161   0.020  0.00  0.00    +0.360 A 
ATOM     11  S   LIG    1       -3.981   1.888   0.031  0.00  0.00    +0.080 S 
ATOM     12  C   LIG    1       -4.721   0.289   0.025  0.00  0.00    -0.210 A 
ATOM     13  C   LIG    1       -6.058  -0.103   0.029  0.00  0.00    +0.200 A 
BRANCH   5  15
ATOM     14  C   LIG    1       -8.523  -2.046  -1.728  0.00  0.00    -0.260 C 
ATOM     15  S   LIG    1       -8.079  -1.931   0.027  0.00  0.00    +2.500 S 
ATOM     16  O   LIG    1       -8.757  -0.844   0.642  0.00  0.00    -0.930 OA
ATOM     17  O   LIG    1       -8.069  -3.220   0.624  0.00  0.00    -0.930 OA
ENDBRANCH   5  15
ENDBRANCH   1  10
BRANCH   3  18
ATOM     18  C   LIG    1        1.253   1.966   0.001  0.00  0.00    -0.180 A 
ATOM     19  C   LIG    1        1.238   3.363   0.008  0.00  0.00    +0.080 A 
ATOM     20  C   LIG    1        2.426   4.062   0.001  0.00  0.00    -0.020 A 
ATOM     21  C   LIG    1        3.635   3.387  -0.015  0.00  0.00    +0.090 A 
ATOM     22  C   LIG    1        3.663   2.006  -0.023  0.00  0.00    -0.080 A 
ATOM     23  C   LIG    1        2.478   1.286  -0.009  0.00  0.00    +0.190 A 
BRANCH  23  24
ATOM     24  O   LIG    1        2.505  -0.070  -0.010  0.00  0.00    -0.270 OA
BRANCH  24  25
ATOM     25  C   LIG    1        3.791  -0.694  -0.020  0.00  0.00    +0.260 C 
BRANCH  25  26
ATOM     26  C   LIG    1        3.623  -2.192  -0.020  0.00  0.00    -0.090 A 
ATOM     27  C   LIG    1        3.560  -2.880   1.177  0.00  0.00    +0.050 A 
ATOM     28  C   LIG    1        3.401  -4.253   1.178  0.00  0.00    +0.030 A 
ATOM     29  C   LIG    1        3.316  -4.939  -0.020  0.00  0.00    -0.020 A 
ATOM     30  C   LIG    1        3.384  -4.251  -1.218  0.00  0.00    +0.030 A 
ATOM     31 CL   LIG    1        3.124  -6.665  -0.021  0.00  0.00    -0.060 Cl
ATOM     32  C   LIG    1        3.537  -2.877  -1.218  0.00  0.00    +0.050 A 
ENDBRANCH  25  26
ENDBRANCH  24  25
ENDBRANCH  23  24
ENDBRANCH   3  18
TORSDOF 6
