REMARK  Name = ZINCpk00000ebOCZ.0
REMARK                            x       y       z     vdW  Elec       q    Type
REMARK                         _______ _______ _______ _____ _____    ______ ____
ROOT
ATOM      1  N   LIG    1        2.671   5.143   1.346  0.00  0.00    -0.680 N 
ATOM      2  H   LIG    1        1.815   5.376   1.739  0.00  0.00    +0.420 HD
ENDROOT
BRANCH   1   3
ATOM      3  C   LIG    1        3.770   5.961   1.546  0.00  0.00    +0.490 A 
ATOM      4  N   LIG    1        4.937   5.647   1.020  0.00  0.00    -0.530 NA
ATOM      5  C   LIG    1        6.011   6.425   1.195  0.00  0.00    +0.290 A 
ATOM      6  C   LIG    1        5.948   7.555   1.927  0.00  0.00    +0.100 A 
ATOM      7  N   LIG    1        4.762   7.929   2.503  0.00  0.00    -0.350 N 
ATOM      8  C   LIG    1        4.366   8.964   3.269  0.00  0.00    +0.200 A 
ATOM      9  N   LIG    1        3.092   8.799   3.530  0.00  0.00    -0.250 NA
ATOM     10  N   LIG    1        2.662   7.720   2.973  0.00  0.00    -0.250 NA
ATOM     11  C   LIG    1        3.652   7.139   2.323  0.00  0.00    +0.110 A 
BRANCH   8  12
ATOM     12  C   LIG    1        5.230  10.105   3.740  0.00  0.00    +0.040 C 
ATOM     13  C   LIG    1        4.631  11.066   4.769  0.00  0.00    +0.070 C 
ATOM     14  C   LIG    1        4.824  11.519   3.320  0.00  0.00    +0.050 C 
ENDBRANCH   8  12
ENDBRANCH   1   3
BRANCH   1  19
ATOM     15  C   LIG    1        3.241   2.750   1.431  0.00  0.00    +0.150 C 
ATOM     16  C   LIG    1        2.126   1.685   1.343  0.00  0.00    +0.000 C 
ATOM     17  C   LIG    1        1.418   1.990  -0.001  0.00  0.00    +0.000 C 
ATOM     18  C   LIG    1        1.431   3.538  -0.055  0.00  0.00    +0.050 C 
ATOM     19  C   LIG    1        2.800   3.926   0.541  0.00  0.00    +0.280 C 
BRANCH  15  20
ATOM     20  O   LIG    1        4.472   2.207   0.950  0.00  0.00    -0.550 OA
ATOM     21  H   LIG    1        4.802   1.461   1.470  0.00  0.00    +0.380 HD
ENDBRANCH  15  20
BRANCH  17  22
ATOM     22  C   LIG    1       -0.018   1.461   0.010  0.00  0.00    +0.330 C 
BRANCH  22  23
ATOM     23  N   LIG    1        0.002  -0.004   0.002  0.00  0.00    -0.370 N 
ATOM     24  C   LIG    1       -0.604  -0.811   0.897  0.00  0.00    +0.220 A 
ATOM     25  C   LIG    1       -0.347  -2.091   0.540  0.00  0.00    -0.120 A 
ATOM     26  C   LIG    1        0.444  -2.065  -0.614  0.00  0.00    +0.220 A 
ATOM     27  N   LIG    1        0.649  -0.814  -0.940  0.00  0.00    -0.290 NA
ENDBRANCH  22  23
ENDBRANCH  17  22
ENDBRANCH   1  19
TORSDOF 6
