REMARK  Name = ZINCqH0000008uIh.0
REMARK                            x       y       z     vdW  Elec       q    Type
REMARK                         _______ _______ _______ _____ _____    ______ ____
ROOT
ATOM      1  C   LIG    1        3.218  -3.362   2.568  0.00  0.00    +0.060 C 
ATOM      2  C   LIG    1        1.935  -3.698   1.804  0.00  0.00    +0.150 C 
ENDROOT
BRANCH   2   3
ATOM      3  C   LIG    1        1.236  -2.422   1.411  0.00  0.00    +0.360 C 
ATOM      4  O   LIG    1        0.300  -2.022   2.060  0.00  0.00    -0.360 OA
BRANCH   3   5
ATOM      5  C   LIG    1        1.705  -1.646   0.207  0.00  0.00    +0.220 C 
BRANCH   5   6
ATOM      6  C   LIG    1        1.425  -0.180   0.415  0.00  0.00    +0.180 A 
ATOM      7  N   LIG    1        0.248   0.350   0.607  0.00  0.00    -0.440 NA
ATOM      8  C   LIG    1        0.379   1.677   0.753  0.00  0.00    +0.160 A 
ATOM      9  C   LIG    1        1.687   1.980   0.648  0.00  0.00    +0.150 A 
ATOM     10  N   LIG    1        2.351   0.803   0.433  0.00  0.00    -0.450 N 
ATOM     11  C   LIG    1        3.796   0.640   0.255  0.00  0.00    +0.330 C 
ENDBRANCH   5   6
BRANCH   5  12
ATOM     12  C   LIG    1        0.990  -2.118  -0.990  0.00  0.00    +0.210 C 
ATOM     13  N   LIG    1        0.438  -2.482  -1.913  0.00  0.00    -0.370 NA
ENDBRANCH   5  12
ENDBRANCH   3   5
ENDBRANCH   2   3
BRANCH   2  14
ATOM     14  O   LIG    1        1.074  -4.476   2.638  0.00  0.00    -0.290 OA
BRANCH  14  15
ATOM     15  C   LIG    1        1.290  -5.817   2.667  0.00  0.00    +0.130 A 
ATOM     16  C   LIG    1        2.376  -6.359   1.992  0.00  0.00    -0.080 A 
ATOM     17  C   LIG    1        2.601  -7.719   2.024  0.00  0.00    +0.060 A 
ATOM     18  C   LIG    1        1.731  -8.551   2.726  0.00  0.00    -0.080 A 
ATOM     19  C   LIG    1        0.639  -8.005   3.399  0.00  0.00    +0.060 A 
ATOM     20  C   LIG    1        0.422  -6.644   3.368  0.00  0.00    +0.000 A 
BRANCH  18  21
ATOM     21  C   LIG    1        1.966 -10.016   2.757  0.00  0.00    -0.040 A 
ATOM     22  C   LIG    1        1.100 -10.848   3.464  0.00  0.00    +0.020 A 
ATOM     23  C   LIG    1        1.321 -12.211   3.484  0.00  0.00    +0.000 A 
ATOM     24  C   LIG    1        2.405 -12.748   2.816  0.00  0.00    +0.000 A 
ATOM     25  C   LIG    1        3.272 -11.926   2.118  0.00  0.00    +0.000 A 
ATOM     26  C   LIG    1        3.057 -10.563   2.086  0.00  0.00    +0.000 A 
ENDBRANCH  18  21
ENDBRANCH  14  15
ENDBRANCH   2  14
TORSDOF 7
