REMARK  Name = ZINCtV000002z289.0
REMARK                            x       y       z     vdW  Elec       q    Type
REMARK                         _______ _______ _______ _____ _____    ______ ____
ROOT
ATOM      1  N   LIG    1       -0.721   1.571  -1.179  0.00  0.00    -0.460 N 
ATOM      2  C   LIG    1       -0.459   2.767  -1.818  0.00  0.00    +0.090 A 
ATOM      3  C   LIG    1        0.457   3.786  -1.574  0.00  0.00    +0.010 A 
ATOM      4  C   LIG    1        0.493   4.890  -2.398  0.00  0.00    +0.030 A 
ATOM      5  C   LIG    1       -0.376   4.999  -3.473  0.00  0.00    +0.010 A 
ATOM      6  C   LIG    1       -1.290   4.001  -3.731  0.00  0.00    +0.030 A 
ATOM      7  C   LIG    1       -1.338   2.879  -2.907  0.00  0.00    -0.060 A 
ATOM      8  C   LIG    1       -2.167   1.659  -2.893  0.00  0.00    -0.270 A 
ATOM      9  C   LIG    1       -1.727   0.903  -1.810  0.00  0.00    +0.240 A 
ENDROOT
BRANCH   9  10
ATOM     10  C   LIG    1       -2.266  -0.410  -1.407  0.00  0.00    -0.070 A 
ATOM     11  C   LIG    1       -1.397  -1.452  -1.070  0.00  0.00    +0.020 A 
ATOM     12  C   LIG    1       -1.909  -2.675  -0.690  0.00  0.00    +0.000 A 
ATOM     13  C   LIG    1       -3.277  -2.875  -0.651  0.00  0.00    +0.030 A 
ATOM     14  C   LIG    1       -4.143  -1.849  -0.989  0.00  0.00    +0.010 A 
ATOM     15  C   LIG    1       -3.646  -0.619  -1.366  0.00  0.00    +0.090 A 
ENDBRANCH   9  10
BRANCH   1  17
ATOM     16  C   LIG    1       -0.729   1.579   1.267  0.00  0.00    +0.030 C 
ATOM     17  C   LIG    1       -0.013   1.086   0.008  0.00  0.00    +0.290 C 
ENDBRANCH   1  17
BRANCH   8  18
ATOM     18  C   LIG    1       -3.196   1.323  -3.801  0.00  0.00    +0.430 C 
ATOM     19  O   LIG    1       -3.803   0.278  -3.671  0.00  0.00    -0.440 OA
BRANCH  18  20
ATOM     20  C   LIG    1       -3.542   2.259  -4.930  0.00  0.00    +0.210 C 
BRANCH  20  21
ATOM     21  O   LIG    1       -4.606   1.701  -5.703  0.00  0.00    -0.280 OA
BRANCH  21  22
ATOM     22  C   LIG    1       -5.041   2.426  -6.768  0.00  0.00    +0.150 A 
ATOM     23  C   LIG    1       -4.460   3.651  -7.058  0.00  0.00    -0.030 A 
ATOM     24  C   LIG    1       -4.900   4.385  -8.143  0.00  0.00    +0.060 A 
ATOM     25  C   LIG    1       -5.928   3.902  -8.935  0.00  0.00    +0.070 A 
ATOM     26  C   LIG    1       -6.514   2.682  -8.644  0.00  0.00    +0.060 A 
ATOM     27  F   LIG    1       -6.360   4.623  -9.993  0.00  0.00    -0.130 F 
ATOM     28  C   LIG    1       -6.072   1.943  -7.562  0.00  0.00    -0.100 A 
ATOM     29 BR   LIG    1       -6.872   0.276  -7.165  0.00  0.00    -0.020 Br
ENDBRANCH  21  22
ENDBRANCH  20  21
ENDBRANCH  18  20
ENDBRANCH   8  18
TORSDOF 6
