REMARK  Name = ZINCpe000000WvX6.0
REMARK                            x       y       z     vdW  Elec       q    Type
REMARK                         _______ _______ _______ _____ _____    ______ ____
ROOT
ATOM      1  C   LIG    1       -5.977  -1.230   2.636  0.00  0.00    +0.400 C 
ENDROOT
BRANCH   1   8
ATOM      2  C   LIG    1       -8.045  -1.649   8.266  0.00  0.00    +0.120 A 
ATOM      3  C   LIG    1       -7.328  -2.841   8.287  0.00  0.00    -0.030 A 
ATOM      4  C   LIG    1       -6.620  -3.249   7.177  0.00  0.00    +0.060 A 
ATOM      5  C   LIG    1       -6.622  -2.469   6.030  0.00  0.00    +0.020 A 
ATOM      6  C   LIG    1       -7.344  -1.264   6.001  0.00  0.00    +0.080 A 
ATOM      7  N   LIG    1       -7.164  -0.724   4.768  0.00  0.00    -0.470 NA
ATOM      8  C   LIG    1       -6.399  -1.500   4.057  0.00  0.00    +0.260 A 
ATOM      9  N   LIG    1       -6.039  -2.593   4.783  0.00  0.00    -0.480 N 
ATOM     10  C   LIG    1       -5.188  -3.695   4.328  0.00  0.00    +0.340 C 
ATOM     11  C   LIG    1       -8.057  -0.861   7.133  0.00  0.00    +0.040 A 
BRANCH   2  13
ATOM     12  C   LIG    1       -8.685  -2.119  10.508  0.00  0.00    +0.250 C 
ATOM     13  O   LIG    1       -8.739  -1.258   9.368  0.00  0.00    -0.310 OA
ENDBRANCH   2  13
ENDBRANCH   1   8
BRANCH   1  14
ATOM     14  N   LIG    1       -4.728  -0.465   2.634  0.00  0.00    -0.730 N 
ATOM     15  H   LIG    1       -4.310  -0.216   3.473  0.00  0.00    +0.410 HD
ATOM     16  C   LIG    1       -4.159  -0.107   1.465  0.00  0.00    +0.530 C 
ATOM     17  O   LIG    1       -4.682  -0.419   0.416  0.00  0.00    -0.530 OA
BRANCH  16  18
ATOM     18  C   LIG    1       -2.874   0.679   1.463  0.00  0.00    +0.050 C 
BRANCH  18  19
ATOM     19  C   LIG    1       -2.446   0.953   0.019  0.00  0.00    +0.320 C 
BRANCH  19  20
ATOM     20  N   LIG    1       -1.197   1.718   0.017  0.00  0.00    -0.520 N 
ATOM     21  C   LIG    1       -0.013   1.076   0.008  0.00  0.00    +0.570 A 
ATOM     22  N   LIG    1        1.118   1.730   0.001  0.00  0.00    -0.540 NA
ATOM     23  C   LIG    1        1.153   3.064   0.007  0.00  0.00    +0.320 A 
ATOM     24  C   LIG    1       -0.010   3.774   0.021  0.00  0.00    -0.130 A 
ATOM     25  C   LIG    1       -1.231   3.068   0.029  0.00  0.00    +0.510 A 
ATOM     26  O   LIG    1       -2.295   3.664   0.042  0.00  0.00    -0.530 OA
ENDBRANCH  19  20
ENDBRANCH  18  19
ENDBRANCH  16  18
ENDBRANCH   1  14
TORSDOF 6
