REMARK  Name = ZINCkj000005fqSJ.0
REMARK                            x       y       z     vdW  Elec       q    Type
REMARK                         _______ _______ _______ _____ _____    ______ ____
ROOT
ATOM      1  N   LIG    1       -0.128   0.867  -0.027  0.00  0.00    -0.490 N 
ATOM      2  H   LIG    1        0.830   1.181  -0.019  0.00  0.00    +0.430 HD
ATOM      3  H   LIG    1       -0.151  -0.142  -0.058  0.00  0.00    +0.430 HD
ENDROOT
BRANCH   1   7
ATOM      4  C   LIG    1       -3.230  -0.468   3.399  0.00  0.00    +0.080 C 
ATOM      5  C   LIG    1       -2.323   0.665   2.916  0.00  0.00    +0.110 C 
ATOM      6  C   LIG    1       -2.169   0.610   1.375  0.00  0.00    +0.060 C 
ATOM      7  C   LIG    1       -0.807   1.334   1.189  0.00  0.00    +0.150 C 
ATOM      8  C   LIG    1       -0.032   0.903   2.452  0.00  0.00    +0.100 C 
ATOM      9  C   LIG    1        0.785   2.081   2.987  0.00  0.00    +0.070 C 
ATOM     10  C   LIG    1        0.897  -0.265   2.117  0.00  0.00    +0.050 C 
ATOM     11  C   LIG    1       -2.889   2.020   3.345  0.00  0.00    +0.050 C 
ATOM     12  O   LIG    1       -0.994   0.494   3.432  0.00  0.00    -0.340 OA
ENDBRANCH   1   7
BRANCH   1  13
ATOM     13  C   LIG    1       -0.812   1.408  -1.209  0.00  0.00    +0.260 C 
BRANCH  13  14
ATOM     14  C   LIG    1       -0.031   1.028  -2.468  0.00  0.00    +0.230 C 
ATOM     15  C   LIG    1       -0.014  -0.507  -2.632  0.00  0.00    +0.040 C 
ATOM     16  C   LIG    1       -0.163  -0.694  -4.165  0.00  0.00    +0.060 C 
ATOM     17  C   LIG    1       -1.110   0.476  -4.531  0.00  0.00    +0.280 C 
ATOM     18  N   LIG    1       -0.694   1.586  -3.656  0.00  0.00    -1.000 NA
BRANCH  18  19
ATOM     19  S   LIG    1       -0.934   3.197  -3.959  0.00  0.00    +2.620 S 
ATOM     20  O   LIG    1       -1.078   3.778  -2.670  0.00  0.00    -0.960 OA
ATOM     21  O   LIG    1       -2.001   3.221  -4.897  0.00  0.00    -0.930 OA
ATOM     22  C   LIG    1        0.611   3.746  -4.736  0.00  0.00    -0.260 C 
ENDBRANCH  18  19
ENDBRANCH  13  14
ENDBRANCH   1  13
TORSDOF 4
