REMARK  Name = ZINCfA000000JmbV.0
REMARK                            x       y       z     vdW  Elec       q    Type
REMARK                         _______ _______ _______ _____ _____    ______ ____
ROOT
ATOM      1  C   LIG    1       -4.923   1.719   0.034  0.00  0.00    +0.300 C 
ENDROOT
BRANCH   1   2
ATOM      2  C   LIG    1       -3.467   2.107   0.029  0.00  0.00    -0.010 A 
ATOM      3  N   LIG    1       -2.500   1.270   0.020  0.00  0.00    -0.400 NA
ATOM      4  C   LIG    1       -1.245   1.759   0.018  0.00  0.00    +0.060 A 
ATOM      5  C   LIG    1       -0.013   1.076   0.008  0.00  0.00    +0.110 A 
ATOM      6  C   LIG    1        1.160   1.768   0.001  0.00  0.00    +0.050 A 
ATOM      7  C   LIG    1        1.165   3.156   0.008  0.00  0.00    +0.080 A 
ATOM      8  C   LIG    1       -0.024   3.850   0.023  0.00  0.00    +0.060 A 
ATOM      9  C   LIG    1       -1.233   3.159   0.031  0.00  0.00    -0.150 A 
ATOM     10  S   LIG    1       -2.902   3.717   0.050  0.00  0.00    +0.110 S 
ENDBRANCH   1   2
BRANCH   1  11
ATOM     11  N   LIG    1       -5.644   2.534   1.020  0.00  0.00    -0.640 N 
ATOM     12  H   LIG    1       -6.619   2.275   1.023  0.00  0.00    +0.440 HD
ATOM     13  H   LIG    1       -5.557   3.510   0.779  0.00  0.00    +0.430 HD
ATOM     14  H   LIG    1       -5.252   2.378   1.937  0.00  0.00    +0.440 HD
ENDBRANCH   1  11
BRANCH   1  15
ATOM     15  C   LIG    1       -5.519   1.956  -1.356  0.00  0.00    +0.110 C 
BRANCH  15  16
ATOM     16  C   LIG    1       -6.961   1.447  -1.387  0.00  0.00    +0.060 C 
BRANCH  16  18
ATOM     17  C   LIG    1       -9.350   1.071  -2.875  0.00  0.00    +0.140 C 
ATOM     18  S   LIG    1       -7.667   1.729  -3.034  0.00  0.00    -0.220 S 
ENDBRANCH  16  18
ENDBRANCH  15  16
ENDBRANCH   1  15
TORSDOF 5
