REMARK  Name = ZINCqH0000000jea.0
REMARK                            x       y       z     vdW  Elec       q    Type
REMARK                         _______ _______ _______ _____ _____    ______ ____
ROOT
ATOM      1  C   LIG    1        1.780   3.374  -0.612  0.00  0.00    +0.240 C 
ATOM      2  N   LIG    1        0.760   4.416  -0.429  0.00  0.00    -0.600 N 
ATOM      3  C   LIG    1        1.143   5.820  -0.630  0.00  0.00    +0.260 C 
ATOM      4  C   LIG    1        2.365   6.131   0.239  0.00  0.00    +0.010 C 
ATOM      5  C   LIG    1        3.477   5.126  -0.074  0.00  0.00    +0.030 C 
ATOM      6  C   LIG    1       -0.500   4.090  -0.081  0.00  0.00    +0.550 C 
ATOM      7  O   LIG    1       -0.778   2.937   0.185  0.00  0.00    -0.490 OA
ATOM      8  C   LIG    1        2.995   3.711   0.257  0.00  0.00    -0.080 C 
ATOM      9  C   LIG    1        4.118   2.711  -0.024  0.00  0.00    +0.040 C 
ATOM     10  C   LIG    1        2.603   3.638   1.734  0.00  0.00    +0.040 C 
ENDROOT
BRANCH   6  11
ATOM     11  C   LIG    1       -1.544   5.134  -0.022  0.00  0.00    -0.140 A 
ATOM     12  C   LIG    1       -1.570   6.154  -0.975  0.00  0.00    +0.180 A 
ATOM     13  C   LIG    1       -2.551   7.122  -0.918  0.00  0.00    -0.690 A 
ATOM     14  C   LIG    1       -3.501   7.092   0.088  0.00  0.00    +0.170 A 
ATOM     15  C   LIG    1       -3.479   6.088   1.039  0.00  0.00    +0.010 A 
ATOM     16  C   LIG    1       -2.506   5.109   0.991  0.00  0.00    +0.060 A 
ATOM     17 CL   LIG    1       -2.479   3.849   2.186  0.00  0.00    -0.020 Cl
BRANCH  13  18
ATOM     18  S   LIG    1       -2.590   8.405  -2.125  0.00  0.00    +2.690 S 
ATOM     19  O   LIG    1       -3.927   8.884  -2.159  0.00  0.00    -0.940 OA
ATOM     20  O   LIG    1       -1.916   7.900  -3.270  0.00  0.00    -0.950 OA
BRANCH  18  21
ATOM     21  N   LIG    1       -1.662   9.649  -1.548  0.00  0.00    -1.000 NA
ATOM     22  C   LIG    1       -2.272  10.700  -0.729  0.00  0.00    +0.310 C 
ATOM     23  C   LIG    1       -0.230   9.700  -1.857  0.00  0.00    +0.310 C 
ENDBRANCH  18  21
ENDBRANCH  13  18
ENDBRANCH   6  11
BRANCH   1  24
ATOM     24  C   LIG    1        1.209   2.018  -0.190  0.00  0.00    +0.070 C 
BRANCH  24  26
ATOM     25  C   LIG    1        0.354   0.354  -1.759  0.00  0.00    -0.040 C 
ATOM     26  C   LIG    1        0.223   1.544  -1.227  0.00  0.00    +0.000 C 
ENDBRANCH  24  26
ENDBRANCH   1  24
TORSDOF 5
