REMARK  Name = ZINCrD000000Alaz.0
REMARK                            x       y       z     vdW  Elec       q    Type
REMARK                         _______ _______ _______ _____ _____    ______ ____
ROOT
ATOM      1  N   LIG    1       -3.429  -2.501  -0.308  0.00  0.00    -0.520 NA
ATOM      2  C   LIG    1       -2.729  -2.808  -1.562  0.00  0.00    +0.180 C 
ATOM      3  C   LIG    1       -2.323  -4.284  -1.572  0.00  0.00    +0.050 C 
ATOM      4  C   LIG    1       -3.577  -5.153  -1.439  0.00  0.00    -0.020 C 
ATOM      5  C   LIG    1       -4.313  -4.780  -0.150  0.00  0.00    +0.060 C 
ATOM      6  C   LIG    1       -4.661  -3.290  -0.180  0.00  0.00    +0.180 C 
ENDROOT
BRANCH   4   7
ATOM      7  C   LIG    1       -3.180  -6.606  -1.390  0.00  0.00    +0.520 C 
ATOM      8  N   LIG    1       -2.516  -7.159  -2.424  0.00  0.00    -0.730 N 
ATOM      9  H   LIG    1       -2.293  -6.622  -3.200  0.00  0.00    +0.400 HD
ATOM     10  O   LIG    1       -3.458  -7.278  -0.419  0.00  0.00    -0.540 OA
BRANCH   8  11
ATOM     11  C   LIG    1       -2.130  -8.572  -2.376  0.00  0.00    +0.320 C 
BRANCH  11  12
ATOM     12  C   LIG    1       -1.406  -8.938  -3.645  0.00  0.00    -0.110 A 
ATOM     13  C   LIG    1       -2.114  -9.413  -4.733  0.00  0.00    +0.020 A 
ATOM     14  C   LIG    1       -1.450  -9.745  -5.899  0.00  0.00    +0.000 A 
ATOM     15  C   LIG    1       -0.076  -9.611  -5.974  0.00  0.00    +0.010 A 
ATOM     16  C   LIG    1        0.633  -9.141  -4.885  0.00  0.00    +0.010 A 
ATOM     17  C   LIG    1       -0.032  -8.805  -3.720  0.00  0.00    +0.020 A 
ENDBRANCH  11  12
ENDBRANCH   8  11
ENDBRANCH   4   7
BRANCH   1  18
ATOM     18  C   LIG    1       -3.711  -1.063  -0.201  0.00  0.00    +0.220 C 
BRANCH  18  20
ATOM     19  O   LIG    1       -1.359  -0.901  -0.098  0.00  0.00    -0.500 OA
ATOM     20  C   LIG    1       -2.414  -0.303  -0.090  0.00  0.00    +0.520 C 
ATOM     21  N   LIG    1       -2.428   1.040   0.019  0.00  0.00    -0.670 N 
ATOM     22  H   LIG    1       -3.272   1.512   0.091  0.00  0.00    +0.410 HD
BRANCH  21  23
ATOM     23  C   LIG    1       -1.223   1.753   0.028  0.00  0.00    +0.160 A 
ATOM     24  C   LIG    1       -0.095   1.206   0.625  0.00  0.00    +0.040 A 
ATOM     25  C   LIG    1        1.093   1.910   0.627  0.00  0.00    +0.030 A 
ATOM     26  C   LIG    1        1.160   3.161   0.041  0.00  0.00    +0.010 A 
ATOM     27  C   LIG    1        0.037   3.711  -0.550  0.00  0.00    +0.050 A 
ATOM     28  C   LIG    1       -1.155   3.012  -0.556  0.00  0.00    -0.070 A 
ATOM     29 CL   LIG    1       -2.564   3.704  -1.298  0.00  0.00    -0.070 Cl
ENDBRANCH  21  23
ENDBRANCH  18  20
ENDBRANCH   1  18
TORSDOF 6
