REMARK  Name = ZINCvU000000048L.0
REMARK                            x       y       z     vdW  Elec       q    Type
REMARK                         _______ _______ _______ _____ _____    ______ ____
ROOT
ATOM      1  C   LIG    1        4.236  -1.190  -3.891  0.00  0.00    +0.060 A 
ATOM      2  C   LIG    1        3.260  -0.410  -3.326  0.00  0.00    -0.220 A 
ATOM      3  C   LIG    1        3.474   1.003  -3.548  0.00  0.00    +0.060 A 
ATOM      4  C   LIG    1        4.565   1.261  -4.255  0.00  0.00    -0.110 A 
ATOM      5  S   LIG    1        5.392  -0.225  -4.688  0.00  0.00    +0.300 S 
ENDROOT
BRANCH   2   6
ATOM      6  C   LIG    1        2.124  -0.951  -2.573  0.00  0.00    +0.590 C 
ATOM      7  N   LIG    1        1.885  -0.525  -1.317  0.00  0.00    -0.600 N 
ATOM      8  C   LIG    1        2.831   0.385  -0.665  0.00  0.00    +0.340 C 
ATOM      9  C   LIG    1        3.731  -0.420   0.254  0.00  0.00    -0.140 A 
ATOM     10  C   LIG    1        5.083  -0.509   0.020  0.00  0.00    +0.040 A 
ATOM     11  C   LIG    1        5.886  -1.212   0.903  0.00  0.00    +0.000 A 
ATOM     12  C   LIG    1        5.326  -1.815   2.014  0.00  0.00    +0.030 A 
ATOM     13  C   LIG    1        3.965  -1.741   2.237  0.00  0.00    +0.000 A 
ATOM     14  C   LIG    1        3.151  -1.057   1.342  0.00  0.00    +0.110 A 
ATOM     15  O   LIG    1        1.811  -1.029   1.528  0.00  0.00    -0.320 OA
ATOM     16  C   LIG    1        1.039  -1.810   0.607  0.00  0.00    +0.150 C 
ATOM     17  C   LIG    1       -0.246  -2.280   1.293  0.00  0.00    +0.070 C 
ATOM     18  C   LIG    1        0.682  -0.976  -0.615  0.00  0.00    +0.270 C 
ATOM     19  O   LIG    1        1.397  -1.784  -3.082  0.00  0.00    -0.540 OA
ENDBRANCH   2   6
BRANCH   1  21
ATOM     20  C   LIG    1        5.281  -3.248  -4.416  0.00  0.00    +0.560 C 
ATOM     21  N   LIG    1        4.275  -2.574  -3.825  0.00  0.00    -0.620 N 
ATOM     22  H   LIG    1        3.579  -3.057  -3.354  0.00  0.00    +0.420 HD
ATOM     23  O   LIG    1        6.154  -2.643  -5.007  0.00  0.00    -0.500 OA
BRANCH  20  27
ATOM     24  C   LIG    1        5.402  -7.489  -4.213  0.00  0.00    -0.040 A 
ATOM     25  C   LIG    1        6.397  -6.803  -4.887  0.00  0.00    +0.000 A 
ATOM     26  C   LIG    1        6.364  -5.425  -4.956  0.00  0.00    +0.090 A 
ATOM     27  C   LIG    1        5.324  -4.724  -4.345  0.00  0.00    -0.150 A 
ATOM     28  C   LIG    1        4.326  -5.422  -3.663  0.00  0.00    +0.040 A 
ATOM     29  C   LIG    1        4.368  -6.800  -3.606  0.00  0.00    +0.010 A 
BRANCH  24  31
ATOM     30  C   LIG    1        5.516  -9.432  -2.676  0.00  0.00    +0.030 C 
ATOM     31  C   LIG    1        5.446  -8.993  -4.141  0.00  0.00    +0.020 C 
ATOM     32  C   LIG    1        4.185  -9.572  -4.786  0.00  0.00    +0.030 C 
ENDBRANCH  24  31
ENDBRANCH  20  27
ENDBRANCH   1  21
TORSDOF 4
