REMARK  Name = ZINCrD0000074nm1.0
REMARK                            x       y       z     vdW  Elec       q    Type
REMARK                         _______ _______ _______ _____ _____    ______ ____
ROOT
ATOM      1  N   LIG    1       -2.168  -0.214  -1.050  0.00  0.00    -0.740 N 
ATOM      2  H   LIG    1       -2.897  -0.747  -1.405  0.00  0.00    +0.390 HD
ATOM      3  C   LIG    1       -1.818   0.938  -1.656  0.00  0.00    +0.710 C 
ATOM      4  N   LIG    1       -2.411   1.298  -2.811  0.00  0.00    -0.630 N 
ATOM      5  C   LIG    1       -1.969   2.496  -3.538  0.00  0.00    +0.300 C 
ATOM      6  C   LIG    1       -1.645   2.098  -4.986  0.00  0.00    +0.000 C 
ATOM      7  C   LIG    1       -2.862   1.403  -5.601  0.00  0.00    +0.160 C 
ATOM      8  C   LIG    1       -3.179   0.131  -4.812  0.00  0.00    +0.040 C 
ATOM      9  C   LIG    1       -3.517   0.504  -3.365  0.00  0.00    +0.290 C 
ATOM     10  O   LIG    1       -0.967   1.651  -1.161  0.00  0.00    -0.580 OA
ENDROOT
BRANCH   1  11
ATOM     11  C   LIG    1       -1.449  -0.660   0.146  0.00  0.00    +0.330 C 
ATOM     12  C   LIG    1       -0.195  -1.432  -0.271  0.00  0.00    +0.020 C 
BRANCH  11  15
ATOM     13  C   LIG    1       -1.222  -1.174   3.224  0.00  0.00    +0.140 C 
ATOM     14  C   LIG    1       -2.243  -1.779   2.295  0.00  0.00    +0.100 A 
ATOM     15  C   LIG    1       -2.342  -1.557   0.964  0.00  0.00    -0.250 A 
ATOM     16  C   LIG    1       -3.415  -2.312   0.480  0.00  0.00    +0.230 A 
ATOM     17  N   LIG    1       -3.946  -2.960   1.486  0.00  0.00    -0.290 NA
ATOM     18  N   LIG    1       -3.225  -2.637   2.643  0.00  0.00    -0.370 N 
ATOM     19  C   LIG    1       -3.487  -3.146   3.992  0.00  0.00    +0.360 C 
ENDBRANCH  11  15
ENDBRANCH   1  11
BRANCH   7  20
ATOM     20  O   LIG    1       -2.578   1.062  -6.960  0.00  0.00    -0.300 OA
BRANCH  20  21
ATOM     21  C   LIG    1       -2.748   2.039  -7.891  0.00  0.00    +0.090 A 
ATOM     22  C   LIG    1       -3.250   3.275  -7.515  0.00  0.00    -0.010 A 
ATOM     23  C   LIG    1       -3.418   4.269  -8.461  0.00  0.00    +0.030 A 
ATOM     24  C   LIG    1       -3.096   4.027  -9.785  0.00  0.00    +0.090 A 
ATOM     25  C   LIG    1       -2.600   2.791 -10.165  0.00  0.00    +0.010 A 
ATOM     26  F   LIG    1       -3.267   4.998 -10.709  0.00  0.00    -0.130 F 
ATOM     27  C   LIG    1       -2.425   1.797  -9.220  0.00  0.00    +0.100 A 
ATOM     28  F   LIG    1       -1.941   0.591  -9.589  0.00  0.00    -0.120 F 
ENDBRANCH  20  21
ENDBRANCH   7  20
TORSDOF 4
