REMARK  Name = ZINCpe000000TwSo.0
REMARK                            x       y       z     vdW  Elec       q    Type
REMARK                         _______ _______ _______ _____ _____    ______ ____
ROOT
ATOM      1  N   LIG    1       -0.016   1.344   0.009  0.00  0.00    -0.720 N 
ATOM      2  H   LIG    1        0.817   1.840   0.004  0.00  0.00    +0.390 HD
ATOM      3  C   LIG    1        0.002  -0.004   0.002  0.00  0.00    +0.590 C 
ATOM      4  O   LIG    1       -1.043  -0.627   0.009  0.00  0.00    -0.490 OA
ENDROOT
BRANCH   3   5
ATOM      5  C   LIG    1        1.283  -0.721  -0.014  0.00  0.00    -0.020 A 
ATOM      6  C   LIG    1        1.464  -2.075  -0.023  0.00  0.00    -0.000 A 
ATOM      7  N   LIG    1        2.776  -2.310  -0.038  0.00  0.00    -0.460 NA
ATOM      8  C   LIG    1        3.428  -1.175  -0.038  0.00  0.00    +0.470 A 
ATOM      9  N   LIG    1        2.545  -0.160  -0.029  0.00  0.00    -0.540 N 
ATOM     10  H   LIG    1        2.756   0.787  -0.031  0.00  0.00    +0.430 HD
BRANCH   6  11
ATOM     11  C   LIG    1        0.375  -3.117  -0.018  0.00  0.00    +0.550 C 
ATOM     12  F   LIG    1       -0.745  -2.617   0.656  0.00  0.00    -0.140 F 
ATOM     13  F   LIG    1        0.835  -4.268   0.631  0.00  0.00    -0.170 F 
ATOM     14  F   LIG    1        0.025  -3.432  -1.335  0.00  0.00    -0.170 F 
ENDBRANCH   6  11
ENDBRANCH   3   5
BRANCH   1  17
ATOM     15  N   LIG    1       -2.089   3.893  -0.490  0.00  0.00    -0.460 NA
ATOM     16  C   LIG    1       -1.209   3.473   0.622  0.00  0.00    +0.200 C 
ATOM     17  C   LIG    1       -1.295   2.059   0.019  0.00  0.00    +0.240 C 
ATOM     18  C   LIG    1       -1.626   2.754  -1.313  0.00  0.00    +0.170 C 
BRANCH  15  23
ATOM     19  N   LIG    1       -2.250   7.471  -0.295  0.00  0.00    -0.600 N 
ATOM     20  C   LIG    1       -2.735   7.891  -1.604  0.00  0.00    +0.260 C 
ATOM     21  C   LIG    1       -2.208   6.957  -2.694  0.00  0.00    +0.020 C 
ATOM     22  C   LIG    1       -2.500   5.509  -2.284  0.00  0.00    +0.040 C 
ATOM     23  C   LIG    1       -1.643   5.171  -1.061  0.00  0.00    +0.120 C 
ATOM     24  C   LIG    1       -1.778   6.253  -0.028  0.00  0.00    +0.530 C 
ATOM     25  O   LIG    1       -1.440   6.005   1.110  0.00  0.00    -0.540 OA
BRANCH  19  27
ATOM     26  C   LIG    1       -3.623   8.352   1.527  0.00  0.00    +0.010 C 
ATOM     27  C   LIG    1       -2.283   8.449   0.795  0.00  0.00    +0.270 C 
ENDBRANCH  19  27
ENDBRANCH  15  23
ENDBRANCH   1  17
TORSDOF 5
