REMARK  Name = ZINCnE000001TBGv.0
REMARK                            x       y       z     vdW  Elec       q    Type
REMARK                         _______ _______ _______ _____ _____    ______ ____
ROOT
ATOM      1  C   LIG    1       -2.602  -2.537  -0.110  0.00  0.00    +0.020 A 
ATOM      2  C   LIG    1       -3.566  -1.615   0.109  0.00  0.00    -0.020 A 
ATOM      3  S   LIG    1       -2.862  -0.056   0.097  0.00  0.00    +0.180 S 
ATOM      4  C   LIG    1       -1.276  -0.755  -0.208  0.00  0.00    +0.070 A 
ATOM      5  N   LIG    1       -1.382  -2.047  -0.282  0.00  0.00    -0.410 NA
ENDROOT
BRANCH   1  11
ATOM      6  C   LIG    1       -1.482  -7.091   0.746  0.00  0.00    -0.100 C 
ATOM      7  C   LIG    1        0.002  -6.729   0.828  0.00  0.00    +0.030 C 
ATOM      8  C   LIG    1        0.149  -5.236   1.133  0.00  0.00    +0.000 C 
ATOM      9  C   LIG    1       -0.485  -4.423  -0.001  0.00  0.00    +0.270 C 
ATOM     10  N   LIG    1       -1.873  -4.869  -0.183  0.00  0.00    -0.580 N 
ATOM     11  C   LIG    1       -2.887  -3.982  -0.159  0.00  0.00    +0.580 C 
ATOM     12  O   LIG    1       -4.039  -4.374  -0.178  0.00  0.00    -0.540 OA
ATOM     13  C   LIG    1       -2.135  -6.300  -0.387  0.00  0.00    +0.290 C 
BRANCH   6  15
ATOM     14  O   LIG    1       -2.497  -9.207   1.042  0.00  0.00    -0.700 OA
ATOM     15  C   LIG    1       -1.626  -8.567   0.478  0.00  0.00    +0.500 C 
ATOM     16  O   LIG    1       -0.871  -9.121  -0.303  0.00  0.00    -0.690 OA
ENDBRANCH   6  15
ENDBRANCH   1  11
BRANCH   4  17
ATOM     17  C   LIG    1       -0.020   0.010  -0.363  0.00  0.00    -0.020 A 
ATOM     18  C   LIG    1        0.001   1.381  -0.110  0.00  0.00    +0.040 A 
ATOM     19  C   LIG    1        1.176   2.090  -0.256  0.00  0.00    +0.020 A 
ATOM     20  C   LIG    1        2.333   1.443  -0.651  0.00  0.00    +0.050 A 
ATOM     21  C   LIG    1        2.321   0.083  -0.904  0.00  0.00    +0.030 A 
ATOM     22  C   LIG    1        1.151  -0.638  -0.762  0.00  0.00    -0.010 A 
ATOM     23 CL   LIG    1        1.137  -2.345  -1.080  0.00  0.00    -0.020 Cl
ENDBRANCH   4  17
TORSDOF 3
