REMARK  Name = ZINCvU0000000CPz.0
REMARK                            x       y       z     vdW  Elec       q    Type
REMARK                         _______ _______ _______ _____ _____    ______ ____
ROOT
ATOM      1  C   LIG    1       -4.330  -1.788   3.459  0.00  0.00    +0.170 C 
ATOM      2  C   LIG    1       -3.772  -0.528   2.849  0.00  0.00    +0.140 A 
ATOM      3  N   LIG    1       -2.821  -0.469   1.967  0.00  0.00    -0.260 NA
ATOM      4  N   LIG    1       -2.571   0.867   1.641  0.00  0.00    -0.340 N 
ATOM      5  C   LIG    1       -3.431   1.648   2.362  0.00  0.00    +0.020 A 
ATOM      6  S   LIG    1       -3.897   3.319   2.653  0.00  0.00    +0.200 S 
ATOM      7  C   LIG    1       -5.121   2.824   3.810  0.00  0.00    -0.280 A 
ATOM      8  C   LIG    1       -5.137   1.488   3.932  0.00  0.00    +0.180 A 
ATOM      9  C   LIG    1       -4.207   0.803   3.138  0.00  0.00    -0.230 A 
ENDROOT
BRANCH   7  10
ATOM     10  C   LIG    1       -6.002   3.740   4.540  0.00  0.00    +0.600 C 
ATOM     11  N   LIG    1       -6.350   4.921   3.991  0.00  0.00    -0.610 N 
ATOM     12  C   LIG    1       -5.971   5.252   2.609  0.00  0.00    +0.290 C 
ATOM     13  C   LIG    1       -7.232   5.708   1.859  0.00  0.00    +0.200 C 
ATOM     14  N   LIG    1       -7.872   6.799   2.605  0.00  0.00    -0.490 N 
ATOM     15  C   LIG    1       -8.327   6.346   3.927  0.00  0.00    +0.190 C 
ATOM     16  C   LIG    1       -7.115   5.914   4.760  0.00  0.00    +0.300 C 
ATOM     17  O   LIG    1       -6.417   3.436   5.643  0.00  0.00    -0.520 OA
BRANCH  14  18
ATOM     18  C   LIG    1       -8.926   7.354   1.876  0.00  0.00    +0.110 A 
ATOM     19  C   LIG    1      -10.200   7.411   2.428  0.00  0.00    -0.040 A 
ATOM     20  C   LIG    1      -11.239   7.964   1.705  0.00  0.00    +0.030 A 
ATOM     21  C   LIG    1      -11.015   8.451   0.431  0.00  0.00    -0.020 A 
ATOM     22  C   LIG    1       -9.749   8.391  -0.123  0.00  0.00    +0.030 A 
ATOM     23  C   LIG    1       -8.705   7.844   0.595  0.00  0.00    -0.020 A 
ENDBRANCH  14  18
ENDBRANCH   7  10
BRANCH   4  24
ATOM     24  C   LIG    1       -1.569   1.347   0.686  0.00  0.00    +0.390 C 
BRANCH  24  25
ATOM     25  C   LIG    1       -0.269   1.595   1.407  0.00  0.00    -0.120 A 
ATOM     26  C   LIG    1        0.663   0.580   1.522  0.00  0.00    +0.070 A 
ATOM     27  C   LIG    1        1.858   0.810   2.177  0.00  0.00    +0.030 A 
ATOM     28  C   LIG    1        2.120   2.054   2.723  0.00  0.00    -0.020 A 
ATOM     29  C   LIG    1        1.185   3.068   2.612  0.00  0.00    +0.030 A 
ATOM     30 CL   LIG    1        3.621   2.343   3.546  0.00  0.00    -0.060 Cl
ATOM     31  C   LIG    1       -0.010   2.837   1.957  0.00  0.00    +0.040 A 
ENDBRANCH  24  25
ENDBRANCH   4  24
TORSDOF 4
