REMARK  Name = ZINCvU0000000EPg.0
REMARK                            x       y       z     vdW  Elec       q    Type
REMARK                         _______ _______ _______ _____ _____    ______ ____
ROOT
ATOM      1  C   LIG    1       -1.554   7.459  -0.350  0.00  0.00    +0.120 A 
ATOM      2  C   LIG    1       -0.463   8.316  -0.364  0.00  0.00    -0.060 A 
ATOM      3  C   LIG    1       -0.656   9.678  -0.476  0.00  0.00    +0.070 A 
ATOM      4  C   LIG    1       -1.943  10.193  -0.562  0.00  0.00    +0.110 A 
ATOM      5  C   LIG    1       -3.035   9.335  -0.542  0.00  0.00    +0.030 A 
ATOM      6  C   LIG    1       -2.841   7.972  -0.437  0.00  0.00    +0.010 A 
ENDROOT
BRANCH   4   7
ATOM      7  N   LIG    1       -2.139  11.575  -0.669  0.00  0.00    -0.670 N 
ATOM      8  H   LIG    1       -2.906  11.990  -0.244  0.00  0.00    +0.410 HD
ATOM      9  C   LIG    1       -1.263  12.328  -1.363  0.00  0.00    +0.550 C 
ATOM     10  O   LIG    1       -0.257  11.823  -1.822  0.00  0.00    -0.490 OA
BRANCH   9  11
ATOM     11  C   LIG    1       -1.525  13.768  -1.565  0.00  0.00    -0.120 A 
ATOM     12  C   LIG    1       -2.679  14.352  -1.039  0.00  0.00    +0.050 A 
ATOM     13  C   LIG    1       -2.917  15.697  -1.232  0.00  0.00    +0.030 A 
ATOM     14  C   LIG    1       -2.016  16.468  -1.944  0.00  0.00    +0.060 A 
ATOM     15  C   LIG    1       -0.870  15.897  -2.469  0.00  0.00    +0.040 A 
ATOM     16  C   LIG    1       -0.616  14.554  -2.279  0.00  0.00    -0.040 A 
ATOM     17 BR   LIG    1        0.955  13.777  -2.989  0.00  0.00    -0.010 Br
ENDBRANCH   9  11
ENDBRANCH   4   7
BRANCH   1  18
ATOM     18  O   LIG    1       -1.364   6.117  -0.246  0.00  0.00    -0.290 OA
BRANCH  18  19
ATOM     19  C   LIG    1       -0.013   5.658  -0.161  0.00  0.00    +0.240 C 
BRANCH  19  21
ATOM     20  O   LIG    1       -1.043   3.538  -0.047  0.00  0.00    -0.490 OA
ATOM     21  C   LIG    1        0.001   4.155  -0.052  0.00  0.00    +0.520 C 
ATOM     22  N   LIG    1        1.174   3.498   0.041  0.00  0.00    -0.660 N 
ATOM     23  H   LIG    1        2.003   3.994   0.118  0.00  0.00    +0.420 HD
BRANCH  22  24
ATOM     24  C   LIG    1        1.194   2.096   0.025  0.00  0.00    +0.140 A 
ATOM     25  C   LIG    1        0.162   1.393  -0.578  0.00  0.00    +0.060 A 
ATOM     26  C   LIG    1        0.184   0.011  -0.592  0.00  0.00    +0.010 A 
ATOM     27  C   LIG    1        1.234  -0.673  -0.007  0.00  0.00    +0.030 A 
ATOM     28  C   LIG    1        2.266   0.022   0.596  0.00  0.00    -0.030 A 
ATOM     29  C   LIG    1        2.252   1.407   0.614  0.00  0.00    +0.080 A 
BRANCH  29  30
ATOM     30  O   LIG    1        3.266   2.091   1.206  0.00  0.00    -0.330 OA
BRANCH  30  31
ATOM     31  C   LIG    1        4.317   1.318   1.790  0.00  0.00    +0.590 C 
ATOM     32  F   LIG    1        4.920   0.530   0.804  0.00  0.00    -0.200 F 
ATOM     33  F   LIG    1        3.788   0.492   2.788  0.00  0.00    -0.200 F 
ENDBRANCH  30  31
ENDBRANCH  29  30
ENDBRANCH  22  24
ENDBRANCH  19  21
ENDBRANCH  18  19
ENDBRANCH   1  18
TORSDOF 8
