REMARK  Name = ZINCvU0000000ESD.0
REMARK                            x       y       z     vdW  Elec       q    Type
REMARK                         _______ _______ _______ _____ _____    ______ ____
ROOT
ATOM      1  N   LIG    1        0.470   2.568   1.173  0.00  0.00    -0.520 NA
ATOM      2  C   LIG    1        1.770   2.149   0.634  0.00  0.00    +0.220 C 
ENDROOT
BRANCH   1   3
ATOM      3  C   LIG    1       -0.612   2.279   0.223  0.00  0.00    +0.220 C 
BRANCH   3   6
ATOM      4  N   LIG    1       -1.692   0.285  -0.765  0.00  0.00    -0.680 N 
ATOM      5  H   LIG    1       -2.321   0.879  -1.204  0.00  0.00    +0.410 HD
ATOM      6  C   LIG    1       -0.755   0.787   0.063  0.00  0.00    +0.510 C 
ATOM      7  O   LIG    1       -0.027   0.039   0.680  0.00  0.00    -0.490 OA
BRANCH   4  12
ATOM      8  C   LIG    1       -1.958  -5.306  -1.688  0.00  0.00    +0.100 C 
ATOM      9  C   LIG    1       -1.888  -3.821  -1.444  0.00  0.00    -0.080 A 
ATOM     10  C   LIG    1       -3.025  -3.128  -1.070  0.00  0.00    +0.000 A 
ATOM     11  C   LIG    1       -2.963  -1.767  -0.844  0.00  0.00    -0.090 A 
ATOM     12  C   LIG    1       -1.758  -1.094  -0.993  0.00  0.00    +0.130 A 
ATOM     13  C   LIG    1       -0.619  -1.792  -1.374  0.00  0.00    -0.070 A 
ATOM     14  C   LIG    1        0.690  -1.064  -1.542  0.00  0.00    +0.080 C 
ATOM     15  C   LIG    1       -4.203  -1.014  -0.436  0.00  0.00    +0.100 C 
ATOM     16  C   LIG    1       -0.686  -3.154  -1.593  0.00  0.00    +0.010 A 
ENDBRANCH   4  12
ENDBRANCH   3   6
ENDBRANCH   1   3
BRANCH   1  17
ATOM     17  C   LIG    1        0.485   3.991   1.537  0.00  0.00    +0.300 C 
BRANCH  17  18
ATOM     18  C   LIG    1        1.437   4.207   2.686  0.00  0.00    +0.050 A 
ATOM     19  N   LIG    1        2.691   4.473   2.561  0.00  0.00    -0.460 NA
ATOM     20  C   LIG    1        3.387   4.637   3.676  0.00  0.00    +0.160 A 
ATOM     21  C   LIG    1        2.664   4.488   4.803  0.00  0.00    -0.090 A 
ATOM     22  S   LIG    1        1.004   4.124   4.337  0.00  0.00    +0.150 S 
BRANCH  20  23
ATOM     23  C   LIG    1        4.839   4.952   3.683  0.00  0.00    -0.110 A 
ATOM     24  C   LIG    1        5.659   5.005   2.600  0.00  0.00    +0.070 A 
ATOM     25  N   LIG    1        6.911   5.328   3.034  0.00  0.00    -0.420 N 
ATOM     26  C   LIG    1        6.886   5.471   4.390  0.00  0.00    +0.020 A 
ATOM     27  C   LIG    1        8.067   5.820   5.260  0.00  0.00    +0.130 C 
ATOM     28  C   LIG    1        5.254   4.754   1.170  0.00  0.00    +0.140 C 
ATOM     29  C   LIG    1        5.631   5.247   4.821  0.00  0.00    -0.040 A 
BRANCH  25  30
ATOM     30  C   LIG    1        8.091   5.489   2.182  0.00  0.00    +0.180 C 
ATOM     31  C   LIG    1        8.382   4.387   1.161  0.00  0.00    +0.050 C 
ATOM     32  C   LIG    1        9.261   4.529   2.406  0.00  0.00    +0.040 C 
ENDBRANCH  25  30
ENDBRANCH  20  23
ENDBRANCH  17  18
ENDBRANCH   1  17
TORSDOF 7
