REMARK  Name = ZINCpk000004ANkL.0
REMARK                            x       y       z     vdW  Elec       q    Type
REMARK                         _______ _______ _______ _____ _____    ______ ____
ROOT
ATOM      1  N   LIG    1       -0.755  10.548   0.064  0.00  0.00    -0.720 N 
ATOM      2  H   LIG    1        0.214  10.563   0.055  0.00  0.00    +0.400 HD
ATOM      3  C   LIG    1       -1.410   9.370   0.065  0.00  0.00    +0.610 C 
ATOM      4  O   LIG    1       -2.625   9.350   0.077  0.00  0.00    -0.510 OA
ENDROOT
BRANCH   3   5
ATOM      5  C   LIG    1       -0.648   8.097   0.051  0.00  0.00    -0.020 A 
ATOM      6  N   LIG    1        0.656   7.962   0.037  0.00  0.00    -0.330 NA
ATOM      7  O   LIG    1        0.986   6.800   0.034  0.00  0.00    +0.130 OA
ATOM      8  C   LIG    1       -0.079   5.979   0.034  0.00  0.00    +0.020 A 
ATOM      9  C   LIG    1       -1.185   6.784   0.049  0.00  0.00    +0.030 A 
BRANCH   8  10
ATOM     10  C   LIG    1       -0.059   4.501   0.027  0.00  0.00    -0.030 A 
ATOM     11  C   LIG    1        1.157   3.817   0.011  0.00  0.00    +0.060 A 
ATOM     12  C   LIG    1        1.170   2.438   0.004  0.00  0.00    +0.030 A 
ATOM     13  C   LIG    1       -0.021   1.732   0.012  0.00  0.00    -0.020 A 
ATOM     14  C   LIG    1       -1.232   2.405   0.021  0.00  0.00    +0.030 A 
ATOM     15 CL   LIG    1        0.002  -0.004   0.002  0.00  0.00    -0.060 Cl
ATOM     16  C   LIG    1       -1.256   3.784   0.034  0.00  0.00    +0.070 A 
ENDBRANCH   8  10
ENDBRANCH   3   5
BRANCH   1  17
ATOM     17  C   LIG    1       -1.508  11.804   0.079  0.00  0.00    +0.280 C 
BRANCH  17  21
ATOM     18  C   LIG    1        0.449  15.851   1.539  0.00  0.00    +0.570 C 
ATOM     19  N   LIG    1       -0.123  14.698   1.138  0.00  0.00    -0.640 N 
ATOM     20  C   LIG    1       -1.219  14.355   0.211  0.00  0.00    +0.340 C 
ATOM     21  C   LIG    1       -0.533  12.983   0.075  0.00  0.00    +0.080 C 
ATOM     22  C   LIG    1        0.095  13.272   1.450  0.00  0.00    +0.270 C 
ATOM     23  O   LIG    1        0.050  16.912   1.101  0.00  0.00    -0.540 OA
BRANCH  18  25
ATOM     24  C   LIG    1        2.121  16.962   2.903  0.00  0.00    +0.150 C 
ATOM     25  C   LIG    1        1.557  15.824   2.507  0.00  0.00    -0.090 C 
ENDBRANCH  18  25
BRANCH  21  26
ATOM     26  O   LIG    1        0.415  12.918  -0.992  0.00  0.00    -0.520 OA
ATOM     27  H   LIG    1        0.870  12.067  -1.063  0.00  0.00    +0.380 HD
ENDBRANCH  21  26
ENDBRANCH  17  21
ENDBRANCH   1  17
TORSDOF 6
