REMARK  Name = ZINCpk00000y6ufl.0
REMARK                            x       y       z     vdW  Elec       q    Type
REMARK                         _______ _______ _______ _____ _____    ______ ____
ROOT
ATOM      1  C   LIG    1        0.074  -3.289   2.858  0.00  0.00    +0.560 C 
ATOM      2  N   LIG    1        0.096  -4.462   3.522  0.00  0.00    -0.710 N 
ATOM      3  H   LIG    1        0.103  -5.298   3.029  0.00  0.00    +0.410 HD
ATOM      4  O   LIG    1        0.065  -2.241   3.475  0.00  0.00    -0.510 OA
ENDROOT
BRANCH   1   9
ATOM      5  C   LIG    1       -0.018   1.503   0.010  0.00  0.00    +0.240 C 
ATOM      6  C   LIG    1        0.002  -0.004   0.002  0.00  0.00    +0.250 A 
ATOM      7  N   LIG    1        0.022  -0.754   1.065  0.00  0.00    -0.460 NA
ATOM      8  C   LIG    1        0.036  -2.054   0.683  0.00  0.00    +0.080 A 
ATOM      9  C   LIG    1        0.060  -3.277   1.383  0.00  0.00    -0.080 A 
ATOM     10  C   LIG    1        0.070  -4.474   0.670  0.00  0.00    +0.060 A 
ATOM     11  C   LIG    1        0.057  -4.461  -0.712  0.00  0.00    +0.040 A 
ATOM     12  C   LIG    1        0.033  -3.266  -1.405  0.00  0.00    +0.080 A 
ATOM     13  C   LIG    1        0.023  -2.061  -0.720  0.00  0.00    -0.000 A 
ATOM     14  O   LIG    1       -0.004  -0.765  -1.103  0.00  0.00    -0.210 OA
ENDBRANCH   1   9
BRANCH   2  15
ATOM     15  C   LIG    1        0.110  -4.474   4.986  0.00  0.00    +0.240 C 
ATOM     16  C   LIG    1       -1.331  -4.507   5.541  0.00  0.00    +0.210 C 
ATOM     17  O   LIG    1       -1.607  -5.907   5.768  0.00  0.00    -0.360 OA
ATOM     18  C   LIG    1       -0.388  -6.450   6.321  0.00  0.00    +0.210 C 
ATOM     19  C   LIG    1        0.745  -5.782   5.511  0.00  0.00    +0.150 C 
BRANCH  19  20
ATOM     20  O   LIG    1        1.145  -6.616   4.422  0.00  0.00    -0.290 OA
BRANCH  20  21
ATOM     21  C   LIG    1        2.215  -7.433   4.629  0.00  0.00    -0.030 A 
ATOM     22  C   LIG    1        2.748  -8.294   3.728  0.00  0.00    +0.210 A 
ATOM     23  N   LIG    1        3.797  -8.917   4.326  0.00  0.00    -0.370 N 
ATOM     24  N   LIG    1        3.906  -8.418   5.631  0.00  0.00    -0.270 NA
ATOM     25  C   LIG    1        4.662  -9.930   3.716  0.00  0.00    +0.370 C 
ATOM     26  C   LIG    1        2.964  -7.527   5.810  0.00  0.00    +0.180 A 
ENDBRANCH  20  21
ENDBRANCH  19  20
ENDBRANCH   2  15
TORSDOF 4
