REMARK  Name = ZINCpk00001AZilU.0
REMARK                            x       y       z     vdW  Elec       q    Type
REMARK                         _______ _______ _______ _____ _____    ______ ____
ROOT
ATOM      1  N   LIG    1        3.948   1.908  -1.002  0.00  0.00    -0.720 N 
ATOM      2  H   LIG    1        3.333   2.618  -1.244  0.00  0.00    +0.410 HD
ATOM      3  C   LIG    1        5.173   1.857  -1.562  0.00  0.00    +0.520 C 
ATOM      4  O   LIG    1        5.941   0.969  -1.258  0.00  0.00    -0.540 OA
ENDROOT
BRANCH   1   6
ATOM      5  C   LIG    1        4.037   1.296   1.365  0.00  0.00    +0.060 C 
ATOM      6  C   LIG    1        3.545   0.892  -0.026  0.00  0.00    +0.340 C 
BRANCH   6   7
ATOM      7  C   LIG    1        2.042   0.776  -0.013  0.00  0.00    +0.130 A 
ATOM      8  N   LIG    1        1.190   1.767   0.000  0.00  0.00    -0.220 NA
ATOM      9  N   LIG    1       -0.016   1.319   0.009  0.00  0.00    -0.260 NA
ATOM     10  C   LIG    1        0.002  -0.004   0.002  0.00  0.00    +0.350 A 
ATOM     11  N   LIG    1       -0.963  -0.932   0.006  0.00  0.00    -0.430 NA
ATOM     12  C   LIG    1       -0.667  -2.211  -0.004  0.00  0.00    +0.380 A 
ATOM     13  C   LIG    1        0.672  -2.630  -0.019  0.00  0.00    -0.010 A 
ATOM     14  C   LIG    1        1.660  -1.701  -0.023  0.00  0.00    +0.300 A 
ATOM     15  N   LIG    1        1.323  -0.379  -0.013  0.00  0.00    -0.420 N 
ENDBRANCH   6   7
ENDBRANCH   1   6
BRANCH   3  16
ATOM     16  C   LIG    1        5.587   2.902  -2.565  0.00  0.00    +0.060 C 
BRANCH  16  17
ATOM     17  C   LIG    1        7.012   2.614  -3.042  0.00  0.00    +0.110 C 
BRANCH  17  18
ATOM     18  C   LIG    1        7.427   3.659  -4.045  0.00  0.00    -0.110 A 
ATOM     19  C   LIG    1        7.186   3.454  -5.394  0.00  0.00    +0.070 A 
ATOM     20  C   LIG    1        7.555   4.406  -6.324  0.00  0.00    -0.020 A 
ATOM     21  C   LIG    1        8.182   5.573  -5.914  0.00  0.00    +0.160 A 
ATOM     22  C   LIG    1        8.433   5.783  -4.548  0.00  0.00    -0.220 A 
ATOM     23  C   LIG    1        8.048   4.811  -3.617  0.00  0.00    +0.100 A 
BRANCH  22  24
ATOM     24  C   LIG    1        9.097   7.014  -4.100  0.00  0.00    +0.490 C 
ATOM     25  O   LIG    1        9.312   7.191  -2.920  0.00  0.00    -0.460 OA
ENDBRANCH  22  24
BRANCH  21  26
ATOM     26  O   LIG    1        8.550   6.505  -6.827  0.00  0.00    -0.490 OA
ATOM     27  H   LIG    1        9.444   6.383  -7.175  0.00  0.00    +0.400 HD
ENDBRANCH  21  26
ENDBRANCH  17  18
ENDBRANCH  16  17
ENDBRANCH   3  16
TORSDOF 7
