REMARK  Name = ZINCqH0000031Eyg.0
REMARK                            x       y       z     vdW  Elec       q    Type
REMARK                         _______ _______ _______ _____ _____    ______ ____
ROOT
ATOM      1  N   LIG    1        2.405   1.052   0.015  0.00  0.00    -0.650 N 
ATOM      2  H   LIG    1        2.418   0.085   0.087  0.00  0.00    +0.420 HD
ATOM      3  C   LIG    1        3.562   1.736  -0.084  0.00  0.00    +0.570 C 
ATOM      4  O   LIG    1        3.544   2.939  -0.257  0.00  0.00    -0.510 OA
ENDROOT
BRANCH   1  12
ATOM      5  C   LIG    1       -4.717   4.622   0.175  0.00  0.00    +0.110 C 
ATOM      6  C   LIG    1       -3.541   3.737   0.497  0.00  0.00    +0.520 C 
ATOM      7  N   LIG    1       -2.365   3.922  -0.134  0.00  0.00    -0.560 N 
ATOM      8  C   LIG    1       -2.077   5.012  -1.071  0.00  0.00    +0.280 C 
ATOM      9  C   LIG    1       -0.622   4.789  -1.514  0.00  0.00    +0.090 C 
ATOM     10  C   LIG    1       -0.180   3.551  -0.765  0.00  0.00    -0.120 A 
ATOM     11  C   LIG    1        1.023   2.874  -0.769  0.00  0.00    +0.060 A 
ATOM     12  C   LIG    1        1.184   1.738   0.014  0.00  0.00    +0.120 A 
ATOM     13  C   LIG    1        0.129   1.285   0.795  0.00  0.00    +0.020 A 
ATOM     14  C   LIG    1       -1.072   1.960   0.793  0.00  0.00    +0.030 A 
ATOM     15  C   LIG    1       -1.239   3.102   0.008  0.00  0.00    +0.130 A 
ATOM     16  O   LIG    1       -3.653   2.857   1.325  0.00  0.00    -0.520 OA
ENDBRANCH   1  12
BRANCH   3  17
ATOM     17  C   LIG    1        4.856   1.022   0.017  0.00  0.00    +0.110 A 
ATOM     18  N   LIG    1        4.858  -0.283   0.210  0.00  0.00    -0.440 NA
ATOM     19  C   LIG    1        5.998  -0.968   0.303  0.00  0.00    +0.120 A 
ATOM     20  C   LIG    1        5.993  -2.361   0.503  0.00  0.00    +0.060 A 
ATOM     21  C   LIG    1        7.171  -3.034   0.599  0.00  0.00    +0.030 A 
ATOM     22  C   LIG    1        8.391  -2.366   0.501  0.00  0.00    -0.070 A 
ATOM     23  C   LIG    1        8.438  -1.019   0.308  0.00  0.00    +0.020 A 
ATOM     24  C   LIG    1        9.676  -3.145   0.612  0.00  0.00    +0.100 C 
ATOM     25  C   LIG    1        7.242  -0.290   0.204  0.00  0.00    -0.080 A 
ATOM     26  C   LIG    1        7.250   1.103   0.004  0.00  0.00    +0.090 A 
ATOM     27  C   LIG    1        6.051   1.749  -0.088  0.00  0.00    +0.030 A 
ENDBRANCH   3  17
TORSDOF 2
