REMARK  Name = ZINCqH0000008xEO.0
REMARK                            x       y       z     vdW  Elec       q    Type
REMARK                         _______ _______ _______ _____ _____    ______ ____
ROOT
ATOM      1  N   LIG    1        3.566   7.382   1.326  0.00  0.00    -0.620 N 
ATOM      2  C   LIG    1        3.700   6.254   0.396  0.00  0.00    +0.300 C 
ATOM      3  C   LIG    1        2.272   5.689   0.227  0.00  0.00    +0.000 C 
ATOM      4  C   LIG    1        1.601   6.125   1.550  0.00  0.00    +0.070 C 
ATOM      5  C   LIG    1        2.399   7.331   1.991  0.00  0.00    +0.520 C 
ATOM      6  O   LIG    1        2.038   8.136   2.824  0.00  0.00    -0.510 OA
ENDROOT
BRANCH   3   7
ATOM      7  C   LIG    1        2.297   4.187   0.104  0.00  0.00    +0.530 C 
ATOM      8  N   LIG    1        1.142   3.499   0.011  0.00  0.00    -0.670 N 
ATOM      9  H   LIG    1        0.298   3.974  -0.043  0.00  0.00    +0.410 HD
ATOM     10  O   LIG    1        3.357   3.598   0.088  0.00  0.00    -0.510 OA
BRANCH   8  11
ATOM     11  C   LIG    1        1.161   2.100  -0.007  0.00  0.00    +0.140 A 
ATOM     12  C   LIG    1        2.200   1.425  -0.634  0.00  0.00    +0.020 A 
ATOM     13  C   LIG    1        2.213   0.046  -0.650  0.00  0.00    +0.030 A 
ATOM     14  C   LIG    1        1.194  -0.670  -0.043  0.00  0.00    -0.110 A 
ATOM     15  C   LIG    1        0.983  -2.164   0.076  0.00  0.00    +0.080 C 
ATOM     16  C   LIG    1       -0.050  -2.338   1.210  0.00  0.00    +0.030 C 
ATOM     17  C   LIG    1       -0.819  -1.000   1.165  0.00  0.00    +0.080 C 
ATOM     18  C   LIG    1        0.158  -0.001   0.583  0.00  0.00    -0.080 A 
ATOM     19  C   LIG    1        0.141   1.382   0.601  0.00  0.00    -0.010 A 
ENDBRANCH   8  11
ENDBRANCH   3   7
BRANCH   1  21
ATOM     20  C   LIG    1        3.934   9.799   1.278  0.00  0.00    +0.040 C 
ATOM     21  C   LIG    1        4.575   8.429   1.506  0.00  0.00    +0.300 C 
BRANCH  21  22
ATOM     22  C   LIG    1        5.127   8.359   2.906  0.00  0.00    -0.100 A 
ATOM     23  C   LIG    1        5.582   9.507   3.528  0.00  0.00    +0.020 A 
ATOM     24  C   LIG    1        6.084   9.444   4.814  0.00  0.00    +0.000 A 
ATOM     25  C   LIG    1        6.142   8.231   5.475  0.00  0.00    +0.000 A 
ATOM     26  C   LIG    1        5.692   7.082   4.851  0.00  0.00    +0.000 A 
ATOM     27  C   LIG    1        5.185   7.146   3.567  0.00  0.00    +0.020 A 
ENDBRANCH  21  22
ENDBRANCH   1  21
TORSDOF 4
