REMARK  Name = ZINCnE000001Skb3.1
REMARK                            x       y       z     vdW  Elec       q    Type
REMARK                         _______ _______ _______ _____ _____    ______ ____
ROOT
ATOM      1  O   LIG    1        5.801   3.246  -0.035  0.00  0.00    -0.570 OA
ATOM      2  C   LIG    1        6.043   2.058  -0.043  0.00  0.00    +0.460 C 
ATOM      3  N   LIG    1        7.322   1.631  -0.057  0.00  0.00    -0.680 NA
ENDROOT
BRANCH   3   4
ATOM      4  C   LIG    1        8.359   2.549  -0.062  0.00  0.00    +0.400 A 
ATOM      5  N   LIG    1        8.208   3.828  -0.060  0.00  0.00    -0.560 NA
ATOM      6  C   LIG    1        9.317   4.594  -0.061  0.00  0.00    +0.170 A 
ATOM      7  C   LIG    1        9.418   6.001  -0.056  0.00  0.00    +0.020 A 
ATOM      8  C   LIG    1       10.648   6.610  -0.065  0.00  0.00    +0.060 A 
ATOM      9  C   LIG    1       11.811   5.853  -0.079  0.00  0.00    -0.130 A 
ATOM     10  C   LIG    1       11.736   4.477  -0.084  0.00  0.00    +0.100 A 
ATOM     11 BR   LIG    1       13.497   6.709  -0.091  0.00  0.00    -0.070 Br
ATOM     12  C   LIG    1       10.496   3.843  -0.075  0.00  0.00    -0.220 A 
ATOM     13  S   LIG    1       10.067   2.134  -0.079  0.00  0.00    -0.010 S 
ENDBRANCH   3   4
BRANCH   2  14
ATOM     14  C   LIG    1        4.915   1.059  -0.037  0.00  0.00    +0.300 C 
BRANCH  14  15
ATOM     15  N   LIG    1        3.634   1.769  -0.022  0.00  0.00    -0.710 N 
ATOM     16  H   LIG    1        3.617   2.739  -0.017  0.00  0.00    +0.410 HD
ATOM     17  C   LIG    1        2.479   1.075  -0.015  0.00  0.00    +0.550 C 
ATOM     18  O   LIG    1        2.500  -0.141  -0.021  0.00  0.00    -0.550 OA
BRANCH  17  19
ATOM     19  C   LIG    1        1.186   1.792   0.000  0.00  0.00    -0.130 A 
ATOM     20  C   LIG    1       -0.013   1.076   0.008  0.00  0.00    +0.080 A 
ATOM     21  C   LIG    1       -1.216   1.751   0.017  0.00  0.00    +0.000 A 
ATOM     22  C   LIG    1       -1.236   3.134   0.030  0.00  0.00    +0.020 A 
ATOM     23  C   LIG    1       -0.052   3.850   0.022  0.00  0.00    +0.000 A 
ATOM     24  C   LIG    1        1.158   3.187   0.008  0.00  0.00    +0.050 A 
ENDBRANCH  17  19
ENDBRANCH  14  15
ENDBRANCH   2  14
TORSDOF 4
