REMARK  Name = ZINCpk00000l2lEE.0
REMARK                            x       y       z     vdW  Elec       q    Type
REMARK                         _______ _______ _______ _____ _____    ______ ____
ROOT
ATOM      1  C   LIG    1        4.759   0.894  -1.553  0.00  0.00    +0.580 C 
ATOM      2  N   LIG    1        4.832   0.170  -0.419  0.00  0.00    -0.690 N 
ATOM      3  H   LIG    1        5.627   0.214   0.135  0.00  0.00    +0.420 HD
ATOM      4  O   LIG    1        3.728   0.912  -2.197  0.00  0.00    -0.520 OA
ENDROOT
BRANCH   1  16
ATOM      5  O   LIG    1        7.319   0.833  -0.384  0.00  0.00    -0.530 OA
ATOM      6  C   LIG    1        7.184   1.562  -1.351  0.00  0.00    +0.500 A 
ATOM      7  N   LIG    1        8.222   2.284  -1.817  0.00  0.00    -0.430 N 
ATOM      8  H   LIG    1        9.082   2.212  -1.374  0.00  0.00    +0.450 HD
ATOM      9  N   LIG    1        8.106   3.065  -2.824  0.00  0.00    -0.200 NA
ATOM     10  C   LIG    1        6.985   3.228  -3.488  0.00  0.00    +0.060 A 
ATOM     11  C   LIG    1        6.983   4.185  -4.652  0.00  0.00    +0.130 C 
ATOM     12  C   LIG    1        5.780   3.924  -5.556  0.00  0.00    +0.030 C 
ATOM     13  C   LIG    1        4.513   3.911  -4.692  0.00  0.00    +0.020 C 
ATOM     14  C   LIG    1        4.530   2.650  -3.828  0.00  0.00    +0.120 C 
ATOM     15  C   LIG    1        5.843   2.526  -3.107  0.00  0.00    +0.070 A 
ATOM     16  C   LIG    1        5.929   1.665  -2.012  0.00  0.00    -0.240 A 
ENDBRANCH   1  16
BRANCH   2  17
ATOM     17  C   LIG    1        3.710  -0.684  -0.022  0.00  0.00    +0.150 C 
ATOM     18  C   LIG    1        3.682  -2.050  -0.733  0.00  0.00    +0.240 C 
ATOM     19  O   LIG    1        4.451  -2.524   0.391  0.00  0.00    -0.370 OA
ATOM     20  C   LIG    1        3.965  -1.487   1.268  0.00  0.00    +0.250 C 
BRANCH  17  21
ATOM     21  C   LIG    1        2.386   0.037  -0.037  0.00  0.00    -0.120 A 
ATOM     22  C   LIG    1        1.475  -0.214  -1.045  0.00  0.00    +0.080 A 
ATOM     23  C   LIG    1        0.261   0.448  -1.060  0.00  0.00    +0.000 A 
ATOM     24  C   LIG    1       -0.042   1.361  -0.067  0.00  0.00    +0.050 A 
ATOM     25  C   LIG    1        0.868   1.613   0.942  0.00  0.00    -0.030 A 
ATOM     26  C   LIG    1        2.084   0.951   0.958  0.00  0.00    +0.110 A 
ATOM     27  F   LIG    1        2.975   1.197   1.944  0.00  0.00    -0.140 F 
ENDBRANCH  17  21
ENDBRANCH   2  17
TORSDOF 3
