REMARK  Name = ZINCrD00000edKGT.0
REMARK                            x       y       z     vdW  Elec       q    Type
REMARK                         _______ _______ _______ _____ _____    ______ ____
ROOT
ATOM      1  C   LIG    1       -0.766  -4.021   1.600  0.00  0.00    +0.180 A 
ATOM      2  N   LIG    1        0.475  -4.025   1.216  0.00  0.00    -0.360 NA
ATOM      3  O   LIG    1        0.888  -2.889   1.116  0.00  0.00    +0.100 OA
ATOM      4  C   LIG    1       -0.081  -2.025   1.436  0.00  0.00    +0.150 A 
ATOM      5  N   LIG    1       -1.137  -2.736   1.751  0.00  0.00    -0.460 NA
ENDROOT
BRANCH   4   6
ATOM      6  C   LIG    1        0.023  -0.522   1.442  0.00  0.00    +0.330 C 
ATOM      7  F   LIG    1        1.219  -0.139   2.058  0.00  0.00    -0.180 F 
BRANCH   6   8
ATOM      8  C   LIG    1        0.002  -0.004   0.002  0.00  0.00    +0.100 C 
BRANCH   8   9
ATOM      9  C   LIG    1       -0.018   1.503   0.010  0.00  0.00    -0.100 A 
ATOM     10  C   LIG    1       -1.225   2.178   0.020  0.00  0.00    +0.010 A 
ATOM     11  C   LIG    1       -1.244   3.560   0.032  0.00  0.00    +0.000 A 
ATOM     12  C   LIG    1       -0.056   4.267   0.025  0.00  0.00    +0.010 A 
ATOM     13  C   LIG    1        1.151   3.592   0.010  0.00  0.00    +0.010 A 
ATOM     14  C   LIG    1        1.169   2.210   0.003  0.00  0.00    +0.030 A 
ENDBRANCH   8   9
ENDBRANCH   6   8
ENDBRANCH   4   6
BRANCH   1  15
ATOM     15  C   LIG    1       -1.630  -5.232   1.838  0.00  0.00    +0.220 C 
BRANCH  15  18
ATOM     16  C   LIG    1       -2.230  -5.561   5.554  0.00  0.00    +0.220 A 
ATOM     17  C   LIG    1       -2.352  -5.158   4.232  0.00  0.00    -0.070 A 
ATOM     18  C   LIG    1       -1.498  -5.669   3.274  0.00  0.00    -0.000 A 
ATOM     19  C   LIG    1       -0.526  -6.585   3.630  0.00  0.00    -0.020 A 
ATOM     20  C   LIG    1       -0.399  -6.984   4.948  0.00  0.00    +0.180 A 
ATOM     21  C   LIG    1       -1.250  -6.476   5.910  0.00  0.00    -0.690 A 
BRANCH  21  22
ATOM     22  S   LIG    1       -1.093  -6.991   7.588  0.00  0.00    +2.510 S 
ATOM     23  O   LIG    1       -0.026  -7.929   7.568  0.00  0.00    -0.940 OA
ATOM     24  O   LIG    1       -2.407  -7.383   7.959  0.00  0.00    -0.920 OA
ATOM     25  C   LIG    1       -0.602  -5.488   8.478  0.00  0.00    -0.260 C 
ENDBRANCH  21  22
BRANCH  16  27
ATOM     26  C   LIG    1       -4.053  -4.120   6.060  0.00  0.00    +0.250 C 
ATOM     27  O   LIG    1       -3.069  -5.059   6.498  0.00  0.00    -0.310 OA
ENDBRANCH  16  27
ENDBRANCH  15  18
ENDBRANCH   1  15
TORSDOF 7
