REMARK  Name = ZINCvU0000000Ccc.0
REMARK                            x       y       z     vdW  Elec       q    Type
REMARK                         _______ _______ _______ _____ _____    ______ ____
ROOT
ATOM      1  C   LIG    1       -0.914  -0.848   0.660  0.00  0.00    -0.220 A 
ATOM      2  C   LIG    1       -0.556  -2.126   0.410  0.00  0.00    +0.250 A 
ATOM      3  N   LIG    1        0.549  -2.102  -0.380  0.00  0.00    -0.320 N 
ATOM      4  N   LIG    1        0.876  -0.762  -0.626  0.00  0.00    -0.270 NA
ATOM      5  C   LIG    1        0.002  -0.004   0.002  0.00  0.00    +0.140 A 
ENDROOT
BRANCH   1  11
ATOM      6  C   LIG    1       -1.687  -1.950   3.429  0.00  0.00    +0.550 C 
ATOM      7  N   LIG    1       -2.471  -1.454   2.451  0.00  0.00    -0.470 N 
ATOM      8  N   LIG    1       -3.778  -1.854   2.179  0.00  0.00    -0.230 NA
ATOM      9  C   LIG    1       -4.324  -1.233   1.192  0.00  0.00    +0.160 C 
ATOM     10  C   LIG    1       -3.344  -0.233   0.620  0.00  0.00    +0.090 C 
ATOM     11  C   LIG    1       -2.087  -0.403   1.496  0.00  0.00    +0.300 C 
ATOM     12  O   LIG    1       -0.559  -1.526   3.576  0.00  0.00    -0.510 OA
BRANCH   9  13
ATOM     13  C   LIG    1       -5.693  -1.461   0.696  0.00  0.00    -0.050 A 
ATOM     14  C   LIG    1       -6.227  -0.781  -0.341  0.00  0.00    -0.010 A 
ATOM     15  S   LIG    1       -7.869  -1.331  -0.637  0.00  0.00    +0.130 S 
ATOM     16  C   LIG    1       -7.782  -2.482   0.686  0.00  0.00    -0.040 A 
ATOM     17  C   LIG    1       -6.592  -2.427   1.275  0.00  0.00    +0.040 A 
ENDBRANCH   9  13
BRANCH   6  19
ATOM     18  C   LIG    1       -1.129  -3.411   5.353  0.00  0.00    +0.050 C 
ATOM     19  C   LIG    1       -2.210  -3.030   4.340  0.00  0.00    +0.070 C 
ENDBRANCH   6  19
ENDBRANCH   1  11
BRANCH   3  20
ATOM     20  C   LIG    1        1.238  -3.220  -0.867  0.00  0.00    +0.160 A 
ATOM     21  C   LIG    1        0.804  -4.499  -0.543  0.00  0.00    -0.010 A 
ATOM     22  C   LIG    1        1.482  -5.600  -1.029  0.00  0.00    +0.040 A 
ATOM     23  C   LIG    1        2.598  -5.430  -1.827  0.00  0.00    +0.000 A 
ATOM     24  C   LIG    1        3.036  -4.157  -2.146  0.00  0.00    +0.040 A 
ATOM     25  C   LIG    1        2.359  -3.053  -1.668  0.00  0.00    +0.020 A 
ENDBRANCH   3  20
BRANCH   5  26
ATOM     26  C   LIG    1       -0.018   1.480   0.010  0.00  0.00    -0.020 A 
ATOM     27  C   LIG    1       -1.233   2.162   0.020  0.00  0.00    +0.020 A 
ATOM     28  C   LIG    1       -1.246   3.542   0.033  0.00  0.00    +0.010 A 
ATOM     29  C   LIG    1       -0.056   4.248   0.025  0.00  0.00    +0.020 A 
ATOM     30  C   LIG    1        1.153   3.575   0.010  0.00  0.00    +0.010 A 
ATOM     31  C   LIG    1        1.178   2.195   0.003  0.00  0.00    +0.040 A 
ENDBRANCH   5  26
TORSDOF 5
