REMARK  Name = ZINCpe000000Zguq.0
REMARK                            x       y       z     vdW  Elec       q    Type
REMARK                         _______ _______ _______ _____ _____    ______ ____
ROOT
ATOM      1  O   LIG    1        2.122  -4.513  -0.760  0.00  0.00    -0.500 OA
ATOM      2  C   LIG    1        1.685  -3.862  -1.689  0.00  0.00    +0.560 C 
ATOM      3  N   LIG    1        0.831  -2.845  -1.457  0.00  0.00    -0.720 N 
ATOM      4  H   LIG    1        0.483  -2.325  -2.198  0.00  0.00    +0.400 HD
ENDROOT
BRANCH   2   5
ATOM      5  C   LIG    1        2.091  -4.184  -3.071  0.00  0.00    -0.080 A 
ATOM      6  C   LIG    1        1.704  -3.354  -4.126  0.00  0.00    +0.090 A 
ATOM      7  C   LIG    1        2.091  -3.656  -5.419  0.00  0.00    +0.090 A 
ATOM      8  C   LIG    1        2.857  -4.791  -5.669  0.00  0.00    +0.090 A 
ATOM      9  O   LIG    1        3.248  -5.101  -6.934  0.00  0.00    -0.290 OA
ATOM     10  C   LIG    1        2.542  -4.459  -8.002  0.00  0.00    +0.250 C 
ATOM     11  C   LIG    1        2.424  -2.965  -7.670  0.00  0.00    +0.250 C 
ATOM     12  C   LIG    1        3.235  -5.621  -4.620  0.00  0.00    +0.100 A 
ATOM     13  O   LIG    1        1.709  -2.836  -6.437  0.00  0.00    -0.290 OA
ATOM     14  C   LIG    1        2.857  -5.323  -3.329  0.00  0.00    +0.020 A 
BRANCH  14  15
ATOM     15  N   LIG    1        3.264  -6.210  -2.216  0.00  0.00    +0.020 N 
ATOM     16  O   LIG    1        2.430  -6.621  -1.429  0.00  0.00    -0.080 OA
ATOM     17  O   LIG    1        4.432  -6.528  -2.086  0.00  0.00    -0.160 OA
ENDBRANCH  14  15
ENDBRANCH   2   5
BRANCH   3  18
ATOM     18  C   LIG    1        0.429  -2.526  -0.085  0.00  0.00    +0.410 C 
BRANCH  18  19
ATOM     19  C   LIG    1       -0.523  -1.357  -0.100  0.00  0.00    +0.170 A 
ATOM     20  N   LIG    1       -1.823  -1.420  -0.192  0.00  0.00    -0.260 NA
ATOM     21  N   LIG    1       -2.316  -0.233  -0.173  0.00  0.00    -0.280 NA
ATOM     22  C   LIG    1       -1.351   0.642  -0.068  0.00  0.00    +0.170 A 
ATOM     23  C   LIG    1       -1.076   2.127   0.021  0.00  0.00    +0.180 C 
ATOM     24  C   LIG    1        0.374   2.216   0.549  0.00  0.00    +0.070 C 
ATOM     25  C   LIG    1        0.960   0.862   0.092  0.00  0.00    +0.300 C 
ATOM     26  N   LIG    1       -0.188  -0.046  -0.021  0.00  0.00    -0.490 N 
ENDBRANCH  18  19
ENDBRANCH   3  18
TORSDOF 4
