REMARK  Name = ZINCrH00000tj10T.0
REMARK                            x       y       z     vdW  Elec       q    Type
REMARK                         _______ _______ _______ _____ _____    ______ ____
ROOT
ATOM      1  N   LIG    1        3.408   1.356   1.360  0.00  0.00    -0.650 N 
ATOM      2  H   LIG    1        3.835   1.975   0.747  0.00  0.00    +0.410 HD
ATOM      3  C   LIG    1        2.125   0.993   1.166  0.00  0.00    +0.520 C 
ATOM      4  O   LIG    1        1.591   0.218   1.931  0.00  0.00    -0.480 OA
ENDROOT
BRANCH   1   9
ATOM      5  C   LIG    1        4.604  -1.206   5.473  0.00  0.00    +0.170 C 
ATOM      6  C   LIG    1        4.687  -0.291   4.278  0.00  0.00    +0.100 A 
ATOM      7  N   LIG    1        5.740   0.395   3.911  0.00  0.00    -0.280 NA
ATOM      8  N   LIG    1        5.419   1.114   2.753  0.00  0.00    -0.340 N 
ATOM      9  C   LIG    1        4.122   0.841   2.441  0.00  0.00    +0.310 A 
ATOM     10  C   LIG    1        3.653  -0.033   3.374  0.00  0.00    -0.080 A 
BRANCH   8  11
ATOM     11  C   LIG    1        6.277   1.965   2.045  0.00  0.00    +0.160 A 
ATOM     12  C   LIG    1        6.192   2.045   0.661  0.00  0.00    -0.030 A 
ATOM     13  C   LIG    1        7.037   2.888  -0.034  0.00  0.00    +0.050 A 
ATOM     14  C   LIG    1        7.973   3.646   0.646  0.00  0.00    +0.010 A 
ATOM     15  C   LIG    1        8.063   3.565   2.023  0.00  0.00    +0.050 A 
ATOM     16  C   LIG    1        7.218   2.727   2.724  0.00  0.00    +0.030 A 
ENDBRANCH   8  11
ENDBRANCH   1   9
BRANCH   3  17
ATOM     17  C   LIG    1        1.353   1.550  -0.003  0.00  0.00    +0.230 C 
BRANCH  17  18
ATOM     18  N   LIG    1       -0.012   1.005   0.008  0.00  0.00    -0.670 NA
ATOM     19  H   LIG    1        0.002  -0.004   0.002  0.00  0.00    +0.360 HD
BRANCH  18  20
ATOM     20  C   LIG    1       -0.795   1.527  -1.120  0.00  0.00    +0.190 C 
ATOM     21  C   LIG    1       -1.403   2.878  -0.736  0.00  0.00    +0.050 C 
BRANCH  20  22
ATOM     22  C   LIG    1       -1.899   0.557  -1.456  0.00  0.00    -0.140 A 
ATOM     23  C   LIG    1       -2.375  -0.309  -0.491  0.00  0.00    +0.110 A 
ATOM     24  C   LIG    1       -3.391  -1.196  -0.796  0.00  0.00    -0.010 A 
ATOM     25  C   LIG    1       -3.925  -1.224  -2.073  0.00  0.00    +0.130 A 
ATOM     26  C   LIG    1       -3.445  -0.360  -3.043  0.00  0.00    -0.040 A 
ATOM     27  F   LIG    1       -4.914  -2.094  -2.373  0.00  0.00    -0.130 F 
ATOM     28  C   LIG    1       -2.432   0.531  -2.734  0.00  0.00    +0.140 A 
ATOM     29  F   LIG    1       -1.963   1.375  -3.679  0.00  0.00    -0.130 F 
ENDBRANCH  20  22
ENDBRANCH  18  20
ENDBRANCH  17  18
ENDBRANCH   3  17
TORSDOF 6
