REMARK  Name = ZINCpk00000K7z8n.0
REMARK                            x       y       z     vdW  Elec       q    Type
REMARK                         _______ _______ _______ _____ _____    ______ ____
ROOT
ATOM      1  C   LIG    1        7.877  -1.801   2.316  0.00  0.00    +0.170 C 
ATOM      2  C   LIG    1        8.502  -1.329   1.002  0.00  0.00    +0.020 C 
ENDROOT
BRANCH   1   3
ATOM      3  N   LIG    1        8.710  -1.359   3.442  0.00  0.00    -0.510 NA
ATOM      4  C   LIG    1        9.021   0.076   3.336  0.00  0.00    +0.190 C 
ATOM      5  C   LIG    1        9.578   0.550   4.679  0.00  0.00    +0.120 C 
ATOM      6  C   LIG    1       10.672  -0.375   5.138  0.00  0.00    -0.230 A 
ATOM      7  C   LIG    1       10.839  -1.614   4.612  0.00  0.00    +0.170 A 
ATOM      8  N   LIG    1       11.824  -2.398   5.071  0.00  0.00    -0.540 NA
ATOM      9  C   LIG    1       12.637  -2.002   6.011  0.00  0.00    +0.580 A 
ATOM     10  N   LIG    1       12.526  -0.780   6.569  0.00  0.00    -0.630 N 
ATOM     11  H   LIG    1       13.142  -0.504   7.265  0.00  0.00    +0.420 HD
ATOM     12  C   LIG    1       11.553   0.058   6.153  0.00  0.00    +0.520 A 
ATOM     13  O   LIG    1       11.437   1.168   6.646  0.00  0.00    -0.530 OA
ATOM     14  C   LIG    1        9.947  -2.143   3.520  0.00  0.00    +0.280 C 
ENDBRANCH   1   3
BRANCH   1  17
ATOM     15  N   LIG    1        5.490  -1.670   1.677  0.00  0.00    -0.730 N 
ATOM     16  H   LIG    1        5.657  -2.373   1.030  0.00  0.00    +0.400 HD
ATOM     17  C   LIG    1        6.495  -1.216   2.453  0.00  0.00    +0.520 C 
ATOM     18  O   LIG    1        6.286  -0.337   3.262  0.00  0.00    -0.520 OA
BRANCH  15  19
ATOM     19  C   LIG    1        4.147  -1.101   1.811  0.00  0.00    +0.270 C 
BRANCH  19  21
ATOM     20  C   LIG    1        3.638  -1.464  -0.608  0.00  0.00    +0.030 C 
ATOM     21  C   LIG    1        3.202  -1.787   0.822  0.00  0.00    +0.030 C 
BRANCH  21  22
ATOM     22  C   LIG    1        1.797  -1.290   1.044  0.00  0.00    -0.080 A 
ATOM     23  C   LIG    1        0.795  -2.179   1.388  0.00  0.00    +0.010 A 
ATOM     24  C   LIG    1       -0.494  -1.723   1.591  0.00  0.00    +0.000 A 
ATOM     25  C   LIG    1       -0.781  -0.378   1.451  0.00  0.00    +0.000 A 
ATOM     26  C   LIG    1        0.220   0.510   1.108  0.00  0.00    +0.000 A 
ATOM     27  C   LIG    1        1.509   0.054   0.903  0.00  0.00    +0.010 A 
ENDBRANCH  21  22
ENDBRANCH  19  21
ENDBRANCH  15  19
ENDBRANCH   1  17
TORSDOF 5
