REMARK  Name = ZINCvU0000000A3p.0
REMARK                            x       y       z     vdW  Elec       q    Type
REMARK                         _______ _______ _______ _____ _____    ______ ____
ROOT
ATOM      1  C   LIG    1        5.609   1.183  -0.145  0.00  0.00    -0.130 A 
ATOM      2  C   LIG    1        5.798   2.566  -0.068  0.00  0.00    +0.110 A 
ATOM      3  C   LIG    1        4.707   3.405  -0.021  0.00  0.00    +0.030 A 
ATOM      4  C   LIG    1        3.421   2.880  -0.049  0.00  0.00    +0.120 A 
ATOM      5  C   LIG    1        3.229   1.504  -0.120  0.00  0.00    +0.020 A 
ATOM      6  C   LIG    1        4.314   0.658  -0.174  0.00  0.00    +0.060 A 
ENDROOT
BRANCH   1   9
ATOM      7  N   LIG    1        6.591  -1.054  -0.270  0.00  0.00    -0.650 N 
ATOM      8  H   LIG    1        5.693  -1.419  -0.290  0.00  0.00    +0.420 HD
ATOM      9  C   LIG    1        6.775   0.279  -0.196  0.00  0.00    +0.550 C 
ATOM     10  O   LIG    1        7.901   0.737  -0.171  0.00  0.00    -0.450 OA
BRANCH   7  15
ATOM     11  C   LIG    1        6.071  -6.707  -0.586  0.00  0.00    +0.180 C 
ATOM     12  C   LIG    1        6.883  -5.439  -0.515  0.00  0.00    +0.040 A 
ATOM     13  C   LIG    1        6.371  -4.202  -0.446  0.00  0.00    -0.160 A 
ATOM     14  C   LIG    1        7.517  -3.292  -0.389  0.00  0.00    -0.260 A 
ATOM     15  C   LIG    1        7.687  -1.903  -0.318  0.00  0.00    +0.460 A 
ATOM     16  N   LIG    1        8.926  -1.421  -0.291  0.00  0.00    -0.520 NA
ATOM     17  C   LIG    1        9.970  -2.228  -0.336  0.00  0.00    +0.580 A 
ATOM     18  N   LIG    1        9.855  -3.537  -0.409  0.00  0.00    -0.520 NA
ATOM     19  C   LIG    1        8.657  -4.113  -0.441  0.00  0.00    +0.320 A 
ATOM     20  C   LIG    1        4.912  -3.825  -0.424  0.00  0.00    +0.130 C 
ATOM     21  O   LIG    1        8.228  -5.384  -0.512  0.00  0.00    -0.170 OA
ENDBRANCH   7  15
ENDBRANCH   1   9
BRANCH   4  22
ATOM     22  O   LIG    1        2.349   3.711  -0.001  0.00  0.00    -0.240 OA
BRANCH  22  23
ATOM     23  C   LIG    1        2.011   4.380  -1.132  0.00  0.00    +0.340 A 
ATOM     24  C   LIG    1        0.863   5.161  -1.151  0.00  0.00    -0.020 A 
ATOM     25  C   LIG    1        0.529   5.839  -2.311  0.00  0.00    +0.170 A 
ATOM     26  C   LIG    1        1.363   5.714  -3.413  0.00  0.00    -0.270 A 
ATOM     27  C   LIG    1        2.486   4.916  -3.324  0.00  0.00    +0.380 A 
ATOM     28  N   LIG    1        2.778   4.282  -2.205  0.00  0.00    -0.520 NA
BRANCH  26  29
ATOM     29  C   LIG    1        1.043   6.439  -4.696  0.00  0.00    +0.520 C 
ATOM     30  F   LIG    1        1.014   7.817  -4.458  0.00  0.00    -0.170 F 
ATOM     31  F   LIG    1       -0.206   6.021  -5.169  0.00  0.00    -0.170 F 
ATOM     32  F   LIG    1        2.023   6.151  -5.651  0.00  0.00    -0.170 F 
ENDBRANCH  26  29
ENDBRANCH  22  23
ENDBRANCH   4  22
TORSDOF 5
