REMARK  Name = ZINCrH000004t4ww.0
REMARK                            x       y       z     vdW  Elec       q    Type
REMARK                         _______ _______ _______ _____ _____    ______ ____
ROOT
ATOM      1  C   LIG    1       -1.286   1.488  -1.850  0.00  0.00    +0.320 C 
ATOM      2  C   LIG    1       -1.517   2.529  -0.727  0.00  0.00    +0.010 C 
ATOM      3  C   LIG    1       -0.931   2.055   0.536  0.00  0.00    +0.000 C 
ATOM      4  C   LIG    1        0.583   1.873   0.497  0.00  0.00    +0.010 C 
ATOM      5  C   LIG    1        0.906   0.508  -0.057  0.00  0.00    +0.010 C 
ATOM      6  C   LIG    1        1.100   0.588  -1.582  0.00  0.00    +0.250 C 
ATOM      7  N   LIG    1        0.112   1.478  -2.221  0.00  0.00    -0.590 N 
ATOM      8  C   LIG    1        0.529   2.316  -3.191  0.00  0.00    +0.550 C 
ATOM      9  O   LIG    1       -0.282   2.957  -3.830  0.00  0.00    -0.490 OA
ENDROOT
BRANCH   1  15
ATOM     10  C   LIG    1       -2.617   4.233  -2.404  0.00  0.00    +0.300 C 
ATOM     11  N   LIG    1       -2.701   3.064  -3.283  0.00  0.00    -0.420 N 
ATOM     12  C   LIG    1       -3.370   3.009  -4.470  0.00  0.00    +0.140 A 
ATOM     13  C   LIG    1       -3.222   1.770  -4.980  0.00  0.00    -0.070 A 
ATOM     14  C   LIG    1       -2.428   1.034  -4.078  0.00  0.00    -0.080 A 
ATOM     15  C   LIG    1       -2.121   1.852  -3.051  0.00  0.00    +0.040 A 
ENDBRANCH   1  15
BRANCH   8  16
ATOM     16  C   LIG    1        1.973   2.455  -3.476  0.00  0.00    -0.060 A 
ATOM     17  C   LIG    1        2.903   2.380  -2.438  0.00  0.00    +0.030 A 
ATOM     18  C   LIG    1        4.249   2.506  -2.712  0.00  0.00    +0.130 A 
ATOM     19  C   LIG    1        4.677   2.718  -4.011  0.00  0.00    -0.640 A 
ATOM     20  C   LIG    1        3.760   2.799  -5.044  0.00  0.00    +0.140 A 
ATOM     21  C   LIG    1        2.411   2.669  -4.784  0.00  0.00    +0.070 A 
BRANCH  19  22
ATOM     22  S   LIG    1        6.398   2.886  -4.351  0.00  0.00    +2.480 S 
ATOM     23  O   LIG    1        6.530   2.472  -5.704  0.00  0.00    -0.880 OA
ATOM     24  O   LIG    1        7.034   2.170  -3.301  0.00  0.00    -0.880 OA
BRANCH  22  25
ATOM     25  C   LIG    1        6.719   4.664  -4.195  0.00  0.00    -0.050 C 
ATOM     26  F   LIG    1        6.399   5.084  -2.899  0.00  0.00    -0.160 F 
ATOM     27  F   LIG    1        5.933   5.363  -5.118  0.00  0.00    -0.160 F 
ENDBRANCH  22  25
ENDBRANCH  19  22
ENDBRANCH   8  16
TORSDOF 4
