REMARK  Name = ZINCrH000004mq4M.0
REMARK                            x       y       z     vdW  Elec       q    Type
REMARK                         _______ _______ _______ _____ _____    ______ ____
ROOT
ATOM      1  C   LIG    1       -5.316   0.577  -1.100  0.00  0.00    +0.570 C 
ATOM      2  N   LIG    1       -4.667   0.298   0.048  0.00  0.00    -0.580 N 
ATOM      3  O   LIG    1       -4.907   0.130  -2.154  0.00  0.00    -0.500 OA
ENDROOT
BRANCH   1   8
ATOM      4  C   LIG    1       -7.615   3.489  -0.495  0.00  0.00    +0.140 A 
ATOM      5  C   LIG    1       -8.801   3.011  -1.037  0.00  0.00    -0.050 A 
ATOM      6  C   LIG    1       -8.852   1.748  -1.596  0.00  0.00    +0.090 A 
ATOM      7  C   LIG    1       -7.724   0.952  -1.619  0.00  0.00    -0.090 A 
ATOM      8  C   LIG    1       -6.526   1.425  -1.077  0.00  0.00    -0.060 A 
ATOM      9 BR   LIG    1       -7.800  -0.776  -2.384  0.00  0.00    -0.030 Br
ATOM     10  C   LIG    1       -6.478   2.698  -0.509  0.00  0.00    +0.030 A 
BRANCH   4  12
ATOM     11  C   LIG    1       -8.781   5.491   0.037  0.00  0.00    +0.250 C 
ATOM     12  O   LIG    1       -7.571   4.732   0.053  0.00  0.00    -0.310 OA
ENDBRANCH   4  12
ENDBRANCH   1   8
BRANCH   2  13
ATOM     13  C   LIG    1       -5.111   0.902   1.306  0.00  0.00    +0.220 C 
ATOM     14  C   LIG    1       -4.024   1.840   1.834  0.00  0.00    +0.030 C 
ATOM     15  C   LIG    1       -5.378  -0.199   2.334  0.00  0.00    +0.020 C 
ENDBRANCH   2  13
BRANCH   2  16
ATOM     16  C   LIG    1       -3.516  -0.610   0.037  0.00  0.00    +0.390 C 
BRANCH  16  17
ATOM     17  C   LIG    1       -2.254   0.182  -0.190  0.00  0.00    +0.430 A 
ATOM     18  N   LIG    1       -2.353   1.475  -0.335  0.00  0.00    -0.570 NA
ATOM     19  C   LIG    1       -1.271   2.250  -0.535  0.00  0.00    +0.530 A 
ATOM     20  C   LIG    1        0.048   1.596  -0.600  0.00  0.00    -0.210 A 
ATOM     21  C   LIG    1        1.222   2.317  -0.808  0.00  0.00    +0.110 A 
ATOM     22  C   LIG    1        2.427   1.650  -0.854  0.00  0.00    -0.020 A 
ATOM     23  C   LIG    1        2.476   0.273  -0.693  0.00  0.00    +0.080 A 
ATOM     24  C   LIG    1        1.322  -0.454  -0.486  0.00  0.00    -0.020 A 
ATOM     25  C   LIG    1        0.099   0.200  -0.438  0.00  0.00    +0.180 A 
ATOM     26  O   LIG    1       -1.380   3.457  -0.668  0.00  0.00    -0.480 OA
ATOM     27  N   LIG    1       -1.085  -0.480  -0.232  0.00  0.00    -0.620 N 
ATOM     28  H   LIG    1       -1.074  -1.444  -0.117  0.00  0.00    +0.420 HD
ENDBRANCH  16  17
ENDBRANCH   2  16
TORSDOF 5
