REMARK  Name = ZINCah0000002BcX.0
REMARK                            x       y       z     vdW  Elec       q    Type
REMARK                         _______ _______ _______ _____ _____    ______ ____
ROOT
ATOM      1  C   LIG    1       -1.250   3.109   0.081  0.00  0.00    +0.280 A 
ATOM      2  C   LIG    1       -0.077   3.807   0.336  0.00  0.00    -0.060 A 
ATOM      3  C   LIG    1        1.140   3.156   0.269  0.00  0.00    +0.120 A 
ATOM      4  C   LIG    1        1.190   1.812  -0.050  0.00  0.00    -0.030 A 
ATOM      5  C   LIG    1        0.024   1.114  -0.303  0.00  0.00    +0.130 A 
ATOM      6  C   LIG    1       -1.196   1.759  -0.244  0.00  0.00    -0.120 A 
ENDROOT
BRANCH   1   7
ATOM      7  N   LIG    1       -2.482   3.764   0.147  0.00  0.00    -0.850 N 
ATOM      8  H   LIG    1       -3.306   3.255   0.080  0.00  0.00    +0.410 HD
ATOM      9  H   LIG    1       -2.515   4.726   0.261  0.00  0.00    +0.410 HD
ENDBRANCH   1   7
BRANCH   6  10
ATOM     10  N   LIG    1       -2.443   1.013  -0.522  0.00  0.00    +0.040 N 
ATOM     11  O   LIG    1       -3.354   1.552  -1.124  0.00  0.00    -0.180 OA
ATOM     12  O   LIG    1       -2.559  -0.141  -0.148  0.00  0.00    -0.150 OA
ENDBRANCH   6  10
TORSDOF 2
