REMARK  Name = ZINCah0000002n1G.0
REMARK                            x       y       z     vdW  Elec       q    Type
REMARK                         _______ _______ _______ _____ _____    ______ ____
ROOT
ATOM      1  C   LIG    1        0.091   1.131   0.175  0.00  0.00    +0.230 C 
ATOM      2  N   LIG    1        1.461   1.615   0.346  0.00  0.00    -0.740 N 
ATOM      3  H   LIG    1        2.148   1.492   1.020  0.00  0.00    +0.420 HD
ATOM      4  C   LIG    1        1.382   2.298  -0.811  0.00  0.00    +0.520 C 
ATOM      5  O   LIG    1        2.181   3.001  -1.392  0.00  0.00    -0.510 OA
ATOM      6  C   LIG    1       -0.031   1.896  -1.143  0.00  0.00    -0.110 C 
ATOM      7  C   LIG    1       -1.038   3.047  -1.115  0.00  0.00    +0.080 C 
ATOM      8  C   LIG    1       -0.159   1.005  -2.381  0.00  0.00    +0.070 C 
ENDROOT
BRANCH   1  10
ATOM      9  C   LIG    1       -2.236   0.988   1.075  0.00  0.00    +0.030 C 
ATOM     10  C   LIG    1       -0.865   1.644   1.254  0.00  0.00    -0.030 C 
ATOM     11  C   LIG    1       -0.308   1.296   2.636  0.00  0.00    +0.020 C 
ENDBRANCH   1  10
TORSDOF 1
