REMARK  Name = ZINCvU00000006i3.0
REMARK                            x       y       z     vdW  Elec       q    Type
REMARK                         _______ _______ _______ _____ _____    ______ ____
ROOT
ATOM      1  C   LIG    1       -0.164   1.529   0.095  0.00  0.00    +0.290 C 
ENDROOT
BRANCH   1   2
ATOM      2  C   LIG    1       -0.760   1.873   1.435  0.00  0.00    -0.080 A 
ATOM      3  C   LIG    1       -2.131   1.830   1.612  0.00  0.00    +0.030 A 
ATOM      4  C   LIG    1       -2.680   2.140   2.841  0.00  0.00    +0.000 A 
ATOM      5  C   LIG    1       -1.856   2.504   3.896  0.00  0.00    +0.090 A 
ATOM      6  C   LIG    1       -0.481   2.551   3.714  0.00  0.00    +0.010 A 
ATOM      7  C   LIG    1        0.064   2.235   2.485  0.00  0.00    +0.040 A 
BRANCH   5   8
ATOM      8  O   LIG    1       -2.394   2.814   5.104  0.00  0.00    -0.260 OA
BRANCH   8   9
ATOM      9  C   LIG    1       -2.829   1.794   5.890  0.00  0.00    +0.120 A 
ATOM     10  C   LIG    1       -2.618   0.479   5.501  0.00  0.00    -0.060 A 
ATOM     11  C   LIG    1       -3.058  -0.556   6.303  0.00  0.00    +0.050 A 
ATOM     12  C   LIG    1       -3.716  -0.282   7.487  0.00  0.00    -0.020 A 
ATOM     13  C   LIG    1       -3.932   1.027   7.875  0.00  0.00    +0.050 A 
ATOM     14  C   LIG    1       -3.490   2.066   7.079  0.00  0.00    -0.020 A 
ENDBRANCH   8   9
ENDBRANCH   5   8
ENDBRANCH   1   2
BRANCH   1  16
ATOM     15  C   LIG    1       -0.483   2.292  -2.197  0.00  0.00    +0.520 C 
ATOM     16  N   LIG    1       -1.001   2.088  -0.970  0.00  0.00    -0.730 N 
ATOM     17  H   LIG    1       -1.928   2.311  -0.791  0.00  0.00    +0.400 HD
ATOM     18  O   LIG    1        0.697   2.096  -2.398  0.00  0.00    -0.520 OA
BRANCH  15  20
ATOM     19  C   LIG    1       -2.484   1.740  -3.555  0.00  0.00    +0.050 C 
ATOM     20  C   LIG    1       -1.371   2.763  -3.321  0.00  0.00    +0.070 C 
BRANCH  20  21
ATOM     21  C   LIG    1       -0.553   2.912  -4.578  0.00  0.00    -0.220 A 
ATOM     22  C   LIG    1       -0.379   4.053  -5.284  0.00  0.00    +0.230 A 
ATOM     23  N   LIG    1        0.415   3.768  -6.337  0.00  0.00    -0.380 N 
ATOM     24  N   LIG    1        0.741   2.407  -6.275  0.00  0.00    -0.300 NA
ATOM     25  C   LIG    1        0.859   4.715  -7.363  0.00  0.00    +0.350 C 
ATOM     26  C   LIG    1        0.165   1.897  -5.218  0.00  0.00    +0.260 A 
ENDBRANCH  20  21
ENDBRANCH  15  20
ENDBRANCH   1  16
BRANCH   1  27
ATOM     27  C   LIG    1       -0.092   0.009  -0.058  0.00  0.00    +0.030 C 
BRANCH  27  28
ATOM     28  C   LIG    1        0.873  -0.563   0.983  0.00  0.00    -0.020 C 
ATOM     29  C   LIG    1        2.319  -0.139   0.651  0.00  0.00    +0.010 C 
ATOM     30  C   LIG    1        3.173  -1.376   1.025  0.00  0.00    -0.010 C 
ATOM     31  C   LIG    1        2.275  -2.558   0.581  0.00  0.00    -0.010 C 
ATOM     32  C   LIG    1        0.846  -2.101   0.938  0.00  0.00    +0.000 C 
ENDBRANCH  27  28
ENDBRANCH   1  27
TORSDOF 8
