REMARK  Name = ZINCrD000000CAKF.0
REMARK                            x       y       z     vdW  Elec       q    Type
REMARK                         _______ _______ _______ _____ _____    ______ ____
ROOT
ATOM      1  O   LIG    1        3.253   9.021  -1.337  0.00  0.00    -0.530 OA
ATOM      2  C   LIG    1        2.487   8.085  -1.179  0.00  0.00    +0.520 A 
ATOM      3  C   LIG    1        2.226   7.606   0.119  0.00  0.00    -0.140 A 
ATOM      4  C   LIG    1        1.368   6.566   0.289  0.00  0.00    +0.180 A 
ATOM      5  C   LIG    1        0.763   5.981  -0.850  0.00  0.00    -0.270 A 
ATOM      6  C   LIG    1        1.048   6.483  -2.104  0.00  0.00    +0.380 A 
ATOM      7  N   LIG    1        1.897   7.518  -2.247  0.00  0.00    -0.490 N 
ENDROOT
BRANCH   5   8
ATOM      8  C   LIG    1       -0.168   4.848  -0.698  0.00  0.00    +0.580 C 
ATOM      9  N   LIG    1       -0.730   4.593   0.500  0.00  0.00    -0.580 N 
ATOM     10  C   LIG    1       -1.625   3.405   0.685  0.00  0.00    +0.290 C 
ATOM     11  C   LIG    1       -0.916   2.492   1.600  0.00  0.00    +0.180 C 
ATOM     12  O   LIG    1       -0.574   3.079   2.848  0.00  0.00    -0.350 OA
ATOM     13  C   LIG    1        0.733   3.573   2.779  0.00  0.00    +0.190 C 
ATOM     14  C   LIG    1        0.703   5.111   2.572  0.00  0.00    +0.020 C 
ATOM     15  C   LIG    1       -0.480   5.460   1.623  0.00  0.00    +0.130 C 
ATOM     16  C   LIG    1       -0.450   6.954   1.245  0.00  0.00    +0.040 C 
ATOM     17  C   LIG    1       -1.969   6.964   1.477  0.00  0.00    +0.010 C 
ATOM     18  C   LIG    1       -1.752   5.782   2.436  0.00  0.00    +0.040 C 
ATOM     19  O   LIG    1       -0.428   4.142  -1.653  0.00  0.00    -0.540 OA
ENDBRANCH   5   8
BRANCH   7  20
ATOM     20  C   LIG    1        2.184   8.034  -3.588  0.00  0.00    +0.360 C 
BRANCH  20  21
ATOM     21  C   LIG    1        3.447   7.400  -4.111  0.00  0.00    -0.110 A 
ATOM     22  C   LIG    1        4.646   8.084  -4.037  0.00  0.00    +0.070 A 
ATOM     23  C   LIG    1        5.806   7.500  -4.512  0.00  0.00    +0.010 A 
ATOM     24  C   LIG    1        5.766   6.237  -5.070  0.00  0.00    +0.050 A 
ATOM     25  C   LIG    1        4.567   5.553  -5.149  0.00  0.00    +0.030 A 
ATOM     26  C   LIG    1        3.407   6.134  -4.669  0.00  0.00    -0.020 A 
ATOM     27 CL   LIG    1        1.901   5.277  -4.767  0.00  0.00    -0.060 Cl
ENDBRANCH  20  21
ENDBRANCH   7  20
TORSDOF 3
