REMARK  Name = ZINCrD000000C6Q3.0
REMARK                            x       y       z     vdW  Elec       q    Type
REMARK                         _______ _______ _______ _____ _____    ______ ____
ROOT
ATOM      1  C   LIG    1        4.376  -1.202  -1.340  0.00  0.00    -0.100 A 
ATOM      2  C   LIG    1        5.118  -0.265  -2.032  0.00  0.00    -0.020 A 
ATOM      3  C   LIG    1        5.220  -0.345  -3.415  0.00  0.00    +0.160 A 
ATOM      4  C   LIG    1        4.574  -1.367  -4.097  0.00  0.00    +0.040 A 
ATOM      5  C   LIG    1        3.833  -2.301  -3.399  0.00  0.00    +0.030 A 
ATOM      6  C   LIG    1        3.738  -2.222  -2.022  0.00  0.00    +0.020 A 
ENDROOT
BRANCH   3   7
ATOM      7  N   LIG    1        5.971   0.602  -4.119  0.00  0.00    -0.680 N 
ATOM      8  H   LIG    1        6.131   1.478  -3.734  0.00  0.00    +0.410 HD
ATOM      9  C   LIG    1        6.473   0.297  -5.332  0.00  0.00    +0.710 C 
ATOM     10  N   LIG    1        7.342   1.135  -5.932  0.00  0.00    -0.620 N 
ATOM     11  C   LIG    1        7.888   2.292  -5.208  0.00  0.00    +0.250 C 
ATOM     12  C   LIG    1        9.417   2.243  -5.284  0.00  0.00    +0.030 C 
ATOM     13  C   LIG    1        9.851   2.161  -6.750  0.00  0.00    -0.010 C 
ATOM     14  C   LIG    1       11.380   2.131  -6.821  0.00  0.00    +0.010 C 
ATOM     15  C   LIG    1       11.901   0.920  -6.045  0.00  0.00    +0.000 C 
ATOM     16  C   LIG    1       11.338  -0.362  -6.660  0.00  0.00    +0.000 C 
ATOM     17  C   LIG    1        9.809  -0.332  -6.597  0.00  0.00    +0.010 C 
ATOM     18  C   LIG    1        9.286   0.884  -7.378  0.00  0.00    -0.010 C 
ATOM     19  C   LIG    1        7.768   0.906  -7.319  0.00  0.00    +0.300 C 
ATOM     20  O   LIG    1        6.142  -0.733  -5.886  0.00  0.00    -0.570 OA
ENDBRANCH   3   7
BRANCH   1  21
ATOM     21  C   LIG    1        4.266  -1.116   0.161  0.00  0.00    +0.350 C 
BRANCH  21  28
ATOM     22  O   LIG    1        1.785  -2.072   0.542  0.00  0.00    -0.530 OA
ATOM     23  C   LIG    1        1.903  -0.867   0.689  0.00  0.00    +0.630 A 
ATOM     24  N   LIG    1        0.834  -0.137   1.016  0.00  0.00    -0.550 NA
ATOM     25  C   LIG    1        0.932   1.167   1.180  0.00  0.00    +0.430 A 
ATOM     26  C   LIG    1        2.168   1.798   1.012  0.00  0.00    -0.140 A 
ATOM     27  C   LIG    1        3.253   1.049   0.680  0.00  0.00    +0.360 A 
ATOM     28  N   LIG    1        3.108  -0.293   0.519  0.00  0.00    -0.510 N 
ENDBRANCH  21  28
ENDBRANCH   1  21
TORSDOF 3
