REMARK  Name = ZINCpe00000FUg6z.0
REMARK                            x       y       z     vdW  Elec       q    Type
REMARK                         _______ _______ _______ _____ _____    ______ ____
ROOT
ATOM      1  C   LIG    1       -2.696   1.649  -0.281  0.00  0.00    +0.370 C 
ATOM      2  C   LIG    1       -3.061   1.889  -1.746  0.00  0.00    -0.020 C 
ATOM      3  C   LIG    1       -4.577   1.724  -1.907  0.00  0.00    +0.060 C 
ATOM      4  C   LIG    1       -5.270   2.866  -1.161  0.00  0.00    +0.100 C 
ATOM      5  C   LIG    1       -4.704   2.990   0.224  0.00  0.00    +0.510 C 
ATOM      6  O   LIG    1       -5.340   3.608   1.051  0.00  0.00    -0.540 OA
ATOM      7  N   LIG    1       -3.539   2.455   0.593  0.00  0.00    -0.600 N 
ATOM      8  C   LIG    1       -3.078   2.693   1.963  0.00  0.00    +0.300 C 
ENDROOT
BRANCH   2   9
ATOM      9  C   LIG    1       -2.348   0.885  -2.615  0.00  0.00    +0.530 C 
ATOM     10  N   LIG    1       -2.012   1.207  -3.880  0.00  0.00    -0.610 N 
ATOM     11  C   LIG    1       -2.447   2.514  -4.478  0.00  0.00    +0.280 C 
ATOM     12  C   LIG    1       -1.235   3.326  -4.649  0.00  0.00    +0.190 C 
ATOM     13  O   LIG    1       -0.233   2.702  -5.444  0.00  0.00    -0.330 OA
ATOM     14  C   LIG    1        0.636   2.006  -4.601  0.00  0.00    +0.210 C 
ATOM     15  C   LIG    1        0.309   0.489  -4.612  0.00  0.00    +0.240 C 
ATOM     16  F   LIG    1        0.802  -0.106  -3.446  0.00  0.00    -0.180 F 
ATOM     17  F   LIG    1        0.901  -0.110  -5.730  0.00  0.00    -0.180 F 
ATOM     18  C   LIG    1       -1.227   0.311  -4.679  0.00  0.00    +0.300 C 
ATOM     19  O   LIG    1       -2.076  -0.213  -2.176  0.00  0.00    -0.490 OA
ENDBRANCH   2   9
BRANCH   1  25
ATOM     20  C   LIG    1       -1.488   4.500  -0.394  0.00  0.00    +0.310 C 
ATOM     21  N   LIG    1       -0.744   3.270  -0.114  0.00  0.00    -0.450 N 
ATOM     22  C   LIG    1        0.596   3.174   0.149  0.00  0.00    +0.130 A 
ATOM     23  C   LIG    1        0.862   1.869   0.348  0.00  0.00    +0.150 A 
ATOM     24  N   LIG    1       -0.285   1.187   0.210  0.00  0.00    -0.450 NA
ATOM     25  C   LIG    1       -1.252   2.020  -0.060  0.00  0.00    +0.180 A 
ENDBRANCH   1  25
TORSDOF 2
