REMARK  Name = ZINCrH000004tUgX.1
REMARK                            x       y       z     vdW  Elec       q    Type
REMARK                         _______ _______ _______ _____ _____    ______ ____
ROOT
ATOM      1  O   LIG    1       -1.927   2.330   3.520  0.00  0.00    -0.450 OA
ATOM      2  C   LIG    1       -1.488   1.200   3.568  0.00  0.00    +0.510 C 
ATOM      3  N   LIG    1       -1.605   0.480   4.702  0.00  0.00    -0.630 N 
ATOM      4  H   LIG    1       -1.253  -0.423   4.740  0.00  0.00    +0.430 HD
ENDROOT
BRANCH   3   5
ATOM      5  C   LIG    1       -2.230   1.031   5.815  0.00  0.00    +0.230 A 
ATOM      6  N   LIG    1       -2.733   2.227   5.886  0.00  0.00    -0.270 NA
ATOM      7  N   LIG    1       -3.272   2.572   6.974  0.00  0.00    -0.200 NA
ATOM      8  C   LIG    1       -3.262   1.697   7.929  0.00  0.00    +0.000 A 
ATOM      9  S   LIG    1       -2.457   0.249   7.322  0.00  0.00    +0.130 S 
BRANCH   8  10
ATOM     10  C   LIG    1       -3.835   1.882   9.310  0.00  0.00    +0.260 C 
ATOM     11  C   LIG    1       -5.377   1.796   9.269  0.00  0.00    +0.030 C 
ATOM     12  C   LIG    1       -5.839   2.851  10.300  0.00  0.00    +0.010 C 
ATOM     13  C   LIG    1       -4.522   3.449  10.842  0.00  0.00    +0.210 C 
ATOM     14  O   LIG    1       -3.552   3.212   9.798  0.00  0.00    -0.350 OA
ENDBRANCH   8  10
ENDBRANCH   3   5
BRANCH   2  15
ATOM     15  C   LIG    1       -0.810   0.603   2.362  0.00  0.00    +0.120 C 
BRANCH  15  16
ATOM     16  C   LIG    1       -0.811   1.621   1.220  0.00  0.00    +0.200 C 
ATOM     17  C   LIG    1       -0.013   1.086   0.008  0.00  0.00    +0.100 C 
ATOM     18  C   LIG    1       -0.817   1.623  -1.159  0.00  0.00    -0.180 A 
ATOM     19  C   LIG    1       -0.526   1.760  -2.498  0.00  0.00    +0.120 A 
ATOM     20  C   LIG    1       -1.466   2.301  -3.359  0.00  0.00    -0.220 A 
ATOM     21  C   LIG    1       -2.695   2.702  -2.869  0.00  0.00    +0.120 A 
ATOM     22  C   LIG    1       -2.990   2.563  -1.528  0.00  0.00    +0.000 A 
ATOM     23  C   LIG    1       -2.051   2.017  -0.656  0.00  0.00    +0.150 A 
ATOM     24  O   LIG    1       -2.135   1.784   0.682  0.00  0.00    -0.280 OA
BRANCH  20  25
ATOM     25  C   LIG    1       -1.150   2.453  -4.824  0.00  0.00    +0.510 C 
ATOM     26  F   LIG    1       -0.874   1.196  -5.375  0.00  0.00    -0.180 F 
ATOM     27  F   LIG    1       -0.035   3.284  -4.978  0.00  0.00    -0.180 F 
ATOM     28  F   LIG    1       -2.247   3.019  -5.482  0.00  0.00    -0.180 F 
ENDBRANCH  20  25
ENDBRANCH  15  16
ENDBRANCH   2  15
TORSDOF 5
