REMARK  Name = ZINCrD000000Ak9k.0
REMARK                            x       y       z     vdW  Elec       q    Type
REMARK                         _______ _______ _______ _____ _____    ______ ____
ROOT
ATOM      1  C   LIG    1       -1.246   1.402   3.646  0.00  0.00    +0.200 A 
ATOM      2  C   LIG    1       -2.382   2.182   3.471  0.00  0.00    -0.020 A 
ATOM      3  C   LIG    1       -3.069   2.655   4.572  0.00  0.00    +0.150 A 
ATOM      4  C   LIG    1       -2.621   2.362   5.847  0.00  0.00    -0.690 A 
ATOM      5  C   LIG    1       -1.488   1.590   6.024  0.00  0.00    +0.150 A 
ATOM      6  C   LIG    1       -0.799   1.110   4.928  0.00  0.00    +0.010 A 
ENDROOT
BRANCH   1   9
ATOM      7  O   LIG    1        0.028  -0.933   3.612  0.00  0.00    -0.510 OA
ATOM      8  C   LIG    1        0.033  -0.297   2.580  0.00  0.00    +0.520 C 
ATOM      9  N   LIG    1       -0.551   0.917   2.533  0.00  0.00    -0.680 N 
ATOM     10  H   LIG    1       -0.488   1.454   1.728  0.00  0.00    +0.420 HD
BRANCH   8  11
ATOM     11  C   LIG    1        0.691  -0.864   1.349  0.00  0.00    +0.060 C 
BRANCH  11  12
ATOM     12  C   LIG    1        1.271  -2.243   1.670  0.00  0.00    +0.330 C 
BRANCH  12  13
ATOM     13  N   LIG    1        1.911  -2.795   0.473  0.00  0.00    -0.460 N 
ATOM     14  C   LIG    1        3.218  -2.631   0.102  0.00  0.00    +0.110 A 
ATOM     15  C   LIG    1        3.382  -3.301  -1.054  0.00  0.00    +0.140 A 
ATOM     16  N   LIG    1        2.207  -3.858  -1.381  0.00  0.00    -0.490 NA
ATOM     17  C   LIG    1        1.322  -3.564  -0.468  0.00  0.00    +0.380 A 
ENDBRANCH  12  13
ENDBRANCH  11  12
ENDBRANCH   8  11
ENDBRANCH   1   9
BRANCH   4  18
ATOM     18  S   LIG    1       -3.496   2.974   7.248  0.00  0.00    +2.690 S 
ATOM     19  O   LIG    1       -3.091   2.179   8.354  0.00  0.00    -0.950 OA
ATOM     20  O   LIG    1       -4.852   3.113   6.846  0.00  0.00    -0.940 OA
BRANCH  18  21
ATOM     21  N   LIG    1       -2.938   4.505   7.545  0.00  0.00    -1.060 N 
ATOM     22  H   LIG    1       -2.482   4.703   8.378  0.00  0.00    +0.430 HD
BRANCH  21  23
ATOM     23  C   LIG    1       -3.123   5.513   6.594  0.00  0.00    +0.130 A 
ATOM     24  C   LIG    1       -2.053   5.947   5.823  0.00  0.00    +0.040 A 
ATOM     25  C   LIG    1       -2.240   6.939   4.881  0.00  0.00    +0.040 A 
ATOM     26  C   LIG    1       -3.490   7.508   4.711  0.00  0.00    -0.030 A 
ATOM     27  C   LIG    1       -4.557   7.080   5.482  0.00  0.00    +0.040 A 
ATOM     28 CL   LIG    1       -3.720   8.759   3.530  0.00  0.00    -0.060 Cl
ATOM     29  C   LIG    1       -4.377   6.085   6.422  0.00  0.00    +0.060 A 
ENDBRANCH  21  23
ENDBRANCH  18  21
ENDBRANCH   4  18
TORSDOF 7
