REMARK  Name = ZINCqH00000391If.0
REMARK                            x       y       z     vdW  Elec       q    Type
REMARK                         _______ _______ _______ _____ _____    ______ ____
ROOT
ATOM      1  C   LIG    1       -0.016   1.344   0.009  0.00  0.00    +0.540 C 
ATOM      2  N   LIG    1       -0.102   0.001   0.096  0.00  0.00    -0.610 N 
ATOM      3  C   LIG    1        1.101  -0.835  -0.021  0.00  0.00    +0.290 C 
ATOM      4  C   LIG    1        1.182  -1.756   1.200  0.00  0.00    +0.010 C 
ATOM      5  C   LIG    1       -0.122  -2.546   1.325  0.00  0.00    +0.030 C 
ATOM      6  C   LIG    1       -1.290  -1.577   1.528  0.00  0.00    +0.030 C 
ATOM      7  C   LIG    1       -1.398  -0.654   0.316  0.00  0.00    +0.270 C 
ATOM      8  O   LIG    1        1.069   1.878  -0.072  0.00  0.00    -0.510 OA
ENDROOT
BRANCH   1   9
ATOM      9  C   LIG    1       -1.269   2.180   0.020  0.00  0.00    +0.020 C 
ATOM     10  C   LIG    1       -2.167   1.773  -1.152  0.00  0.00    +0.040 C 
ATOM     11  C   LIG    1       -3.400   2.681  -1.180  0.00  0.00    +0.220 C 
ATOM     12  O   LIG    1       -2.984   4.044  -1.285  0.00  0.00    -0.370 OA
ATOM     13  C   LIG    1       -2.180   4.495  -0.193  0.00  0.00    +0.220 C 
ATOM     14  C   LIG    1       -0.899   3.660  -0.125  0.00  0.00    +0.070 C 
BRANCH   9  16
ATOM     15  N   LIG    1       -2.543   1.817   2.266  0.00  0.00    -0.390 NA
ATOM     16  C   LIG    1       -1.988   1.975   1.288  0.00  0.00    +0.200 C 
ENDBRANCH   9  16
ENDBRANCH   1   9
BRANCH   6  17
ATOM     17  C   LIG    1       -2.570  -2.358   1.684  0.00  0.00    -0.080 A 
ATOM     18  C   LIG    1       -2.999  -3.190   0.667  0.00  0.00    +0.050 A 
ATOM     19  C   LIG    1       -4.173  -3.906   0.811  0.00  0.00    +0.020 A 
ATOM     20  C   LIG    1       -4.917  -3.790   1.970  0.00  0.00    +0.070 A 
ATOM     21  C   LIG    1       -4.487  -2.957   2.986  0.00  0.00    -0.180 A 
ATOM     22  C   LIG    1       -3.311  -2.245   2.845  0.00  0.00    +0.070 A 
BRANCH  21  23
ATOM     23  C   LIG    1       -5.298  -2.830   4.250  0.00  0.00    +0.510 C 
ATOM     24  F   LIG    1       -5.691  -1.499   4.420  0.00  0.00    -0.170 F 
ATOM     25  F   LIG    1       -4.523  -3.231   5.344  0.00  0.00    -0.180 F 
ATOM     26  F   LIG    1       -6.433  -3.644   4.160  0.00  0.00    -0.180 F 
ENDBRANCH  21  23
ENDBRANCH   6  17
TORSDOF 4
