REMARK  Name = ZINCpk00000xM2Z4.0
REMARK                            x       y       z     vdW  Elec       q    Type
REMARK                         _______ _______ _______ _____ _____    ______ ____
ROOT
ATOM      1  C   LIG    1        3.713   2.394   2.774  0.00  0.00    +0.290 C 
ENDROOT
BRANCH   1   2
ATOM      2  N   LIG    1        3.071   2.484   1.456  0.00  0.00    -0.530 NA
ATOM      3  C   LIG    1        2.822   3.884   1.086  0.00  0.00    +0.190 C 
ATOM      4  C   LIG    1        2.312   3.938  -0.356  0.00  0.00    +0.040 C 
ATOM      5  C   LIG    1        1.032   3.118  -0.483  0.00  0.00    +0.120 C 
ATOM      6  N   LIG    1       -0.046   3.723   0.309  0.00  0.00    -0.680 NA
ATOM      7  H   LIG    1       -0.088   4.720   0.161  0.00  0.00    +0.360 HD
ATOM      8  C   LIG    1       -1.330   3.087  -0.021  0.00  0.00    +0.230 C 
ATOM      9  C   LIG    1       -1.192   1.592   0.017  0.00  0.00    +0.520 C 
ATOM     10  N   LIG    1       -0.011   0.966   0.007  0.00  0.00    -0.720 N 
ATOM     11  H   LIG    1        0.002  -0.004   0.002  0.00  0.00    +0.400 HD
ATOM     12  O   LIG    1       -2.201   0.920   0.062  0.00  0.00    -0.550 OA
ATOM     13  C   LIG    1        1.263   1.686  -0.001  0.00  0.00    +0.260 C 
ATOM     14  C   LIG    1        1.828   1.705   1.422  0.00  0.00    +0.180 C 
ENDBRANCH   1   2
BRANCH   1  17
ATOM     15  C   LIG    1        6.693   1.871   1.986  0.00  0.00    +0.190 C 
ATOM     16  C   LIG    1        6.123   3.163   2.513  0.00  0.00    -0.020 A 
ATOM     17  C   LIG    1        4.842   3.390   2.852  0.00  0.00    -0.010 A 
ATOM     18  N   LIG    1        4.747   4.659   3.279  0.00  0.00    -0.460 NA
ATOM     19  C   LIG    1        5.934   5.215   3.205  0.00  0.00    +0.230 A 
ATOM     20  O   LIG    1        6.803   4.307   2.729  0.00  0.00    -0.190 OA
BRANCH  19  21
ATOM     21  C   LIG    1        6.259   6.607   3.581  0.00  0.00    -0.030 A 
ATOM     22  C   LIG    1        5.259   7.456   4.059  0.00  0.00    +0.110 A 
ATOM     23  C   LIG    1        5.569   8.752   4.413  0.00  0.00    +0.000 A 
ATOM     24  C   LIG    1        6.869   9.216   4.285  0.00  0.00    +0.120 A 
ATOM     25  C   LIG    1        7.865   8.379   3.807  0.00  0.00    +0.000 A 
ATOM     26  F   LIG    1        7.166  10.488   4.629  0.00  0.00    -0.130 F 
ATOM     27  C   LIG    1        7.567   7.080   3.454  0.00  0.00    +0.080 A 
ENDBRANCH  19  21
ENDBRANCH   1  17
TORSDOF 3
