REMARK  Name = ZINCvU00000008jm.0
REMARK                            x       y       z     vdW  Elec       q    Type
REMARK                         _______ _______ _______ _____ _____    ______ ____
ROOT
ATOM      1  C   LIG    1        1.547   2.793   0.221  0.00  0.00    +0.540 C 
ATOM      2  N   LIG    1        1.298   1.469   0.211  0.00  0.00    -0.600 N 
ATOM      3  O   LIG    1        0.637   3.582   0.076  0.00  0.00    -0.510 OA
ENDROOT
BRANCH   2   4
ATOM      4  C   LIG    1       -0.051   0.979  -0.080  0.00  0.00    +0.250 C 
ATOM      5  C   LIG    1       -1.023   1.501   0.980  0.00  0.00    +0.010 C 
ATOM      6  C   LIG    1       -2.432   0.989   0.677  0.00  0.00    +0.020 C 
ATOM      7  C   LIG    1       -2.869   1.486  -0.703  0.00  0.00    +0.010 C 
ATOM      8  C   LIG    1       -1.897   0.964  -1.764  0.00  0.00    +0.010 C 
ATOM      9  C   LIG    1       -0.488   1.476  -1.460  0.00  0.00    -0.000 C 
ENDBRANCH   2   4
BRANCH   1  10
ATOM     10  C   LIG    1        2.956   3.294   0.412  0.00  0.00    +0.090 C 
BRANCH  10  11
ATOM     11  S   LIG    1        2.949   5.103   0.482  0.00  0.00    +0.150 S 
BRANCH  11  15
ATOM     12  C   LIG    1        6.577   6.375   0.975  0.00  0.00    +0.180 A 
ATOM     13  N   LIG    1        6.751   5.086   0.945  0.00  0.00    -0.250 NA
ATOM     14  N   LIG    1        5.616   4.502   0.783  0.00  0.00    -0.290 NA
ATOM     15  C   LIG    1        4.670   5.407   0.704  0.00  0.00    +0.120 A 
ATOM     16  O   LIG    1        5.260   6.612   0.818  0.00  0.00    -0.200 OA
BRANCH  12  17
ATOM     17  C   LIG    1        7.654   7.415   1.148  0.00  0.00    +0.310 C 
BRANCH  17  21
ATOM     18  C   LIG    1        9.660   6.578  -3.313  0.00  0.00    +0.180 C 
ATOM     19  C   LIG    1        9.085   7.412  -2.198  0.00  0.00    +0.050 A 
ATOM     20  N   LIG    1        8.663   6.948  -1.070  0.00  0.00    -0.460 NA
ATOM     21  C   LIG    1        8.185   7.818  -0.204  0.00  0.00    +0.060 A 
ATOM     22  C   LIG    1        8.213   9.088  -0.620  0.00  0.00    -0.070 A 
ATOM     23  S   LIG    1        8.904   9.112  -2.241  0.00  0.00    +0.140 S 
ENDBRANCH  17  21
ENDBRANCH  12  17
ENDBRANCH  11  15
ENDBRANCH  10  11
ENDBRANCH   1  10
BRANCH   2  24
ATOM     24  C   LIG    1        2.378   0.519   0.491  0.00  0.00    +0.340 C 
BRANCH  24  25
ATOM     25  C   LIG    1        2.975   0.040  -0.807  0.00  0.00    -0.120 A 
ATOM     26  C   LIG    1        2.410  -1.032  -1.474  0.00  0.00    +0.060 A 
ATOM     27  C   LIG    1        2.953  -1.468  -2.667  0.00  0.00    -0.010 A 
ATOM     28  C   LIG    1        4.071  -0.840  -3.189  0.00  0.00    +0.110 A 
ATOM     29  C   LIG    1        4.639   0.230  -2.518  0.00  0.00    -0.010 A 
ATOM     30  F   LIG    1        4.606  -1.270  -4.353  0.00  0.00    -0.140 F 
ATOM     31  C   LIG    1        4.091   0.668  -1.328  0.00  0.00    +0.050 A 
ENDBRANCH  24  25
ENDBRANCH   2  24
TORSDOF 8
