REMARK  Name = ZINCrD000006VqRi.0
REMARK                            x       y       z     vdW  Elec       q    Type
REMARK                         _______ _______ _______ _____ _____    ______ ____
ROOT
ATOM      1  O   LIG    1       -2.549   3.611   5.060  0.00  0.00    -0.490 OA
ATOM      2  C   LIG    1       -1.789   4.469   4.664  0.00  0.00    +0.520 C 
ATOM      3  N   LIG    1       -1.040   4.251   3.565  0.00  0.00    -0.620 N 
ATOM      4  H   LIG    1       -0.432   4.937   3.248  0.00  0.00    +0.430 HD
ENDROOT
BRANCH   2   5
ATOM      5  C   LIG    1       -1.682   5.780   5.400  0.00  0.00    +0.020 C 
ATOM      6  C   LIG    1       -2.239   6.942   4.545  0.00  0.00    +0.100 C 
ATOM      7  C   LIG    1       -3.684   7.061   4.977  0.00  0.00    +0.520 C 
ATOM      8  N   LIG    1       -3.874   6.412   6.139  0.00  0.00    -0.550 N 
ATOM      9  O   LIG    1       -4.545   7.656   4.364  0.00  0.00    -0.500 OA
ATOM     10  C   LIG    1       -2.628   5.806   6.622  0.00  0.00    +0.320 C 
BRANCH   8  11
ATOM     11  C   LIG    1       -5.103   6.325   6.802  0.00  0.00    +0.180 A 
ATOM     12  C   LIG    1       -6.200   7.035   6.331  0.00  0.00    +0.010 A 
ATOM     13  C   LIG    1       -7.413   6.944   6.985  0.00  0.00    +0.060 A 
ATOM     14  C   LIG    1       -7.535   6.154   8.113  0.00  0.00    +0.010 A 
ATOM     15  C   LIG    1       -6.443   5.448   8.588  0.00  0.00    -0.010 A 
ATOM     16 CL   LIG    1       -6.599   4.458  10.005  0.00  0.00    -0.060 Cl
ATOM     17  C   LIG    1       -5.227   5.532   7.935  0.00  0.00    -0.010 A 
ENDBRANCH   8  11
ENDBRANCH   2   5
BRANCH   3  18
ATOM     18  C   LIG    1       -1.139   3.042   2.885  0.00  0.00    +0.230 A 
ATOM     19  N   LIG    1       -0.466   2.731   1.822  0.00  0.00    -0.500 NA
ATOM     20  C   LIG    1       -0.685   1.537   1.305  0.00  0.00    +0.090 A 
ATOM     21  C   LIG    1       -1.589   0.806   1.959  0.00  0.00    -0.110 A 
ATOM     22  S   LIG    1       -2.166   1.750   3.331  0.00  0.00    +0.250 S 
BRANCH  20  23
ATOM     23  C   LIG    1        0.024   1.041   0.071  0.00  0.00    +0.260 C 
BRANCH  23  24
ATOM     24  N   LIG    1       -0.688   1.510  -1.125  0.00  0.00    -0.510 NA
ATOM     25  C   LIG    1       -0.893   2.981  -1.080  0.00  0.00    +0.160 C 
ATOM     26  C   LIG    1       -1.145   3.349  -2.564  0.00  0.00    +0.010 C 
ATOM     27  C   LIG    1       -0.179   2.409  -3.322  0.00  0.00    +0.010 C 
ATOM     28  C   LIG    1        0.101   1.250  -2.349  0.00  0.00    +0.170 C 
ENDBRANCH  23  24
ENDBRANCH  20  23
ENDBRANCH   3  18
TORSDOF 5
