REMARK  Name = ZINCrD00000l5gej.0
REMARK                            x       y       z     vdW  Elec       q    Type
REMARK                         _______ _______ _______ _____ _____    ______ ____
ROOT
ATOM      1  C   LIG    1       -2.835   0.947   3.582  0.00  0.00    +0.570 C 
ATOM      2  N   LIG    1       -2.895   1.611   2.411  0.00  0.00    -0.720 N 
ATOM      3  H   LIG    1       -3.409   2.430   2.344  0.00  0.00    +0.400 HD
ATOM      4  O   LIG    1       -2.190  -0.081   3.666  0.00  0.00    -0.530 OA
ENDROOT
BRANCH   1   7
ATOM      5  C   LIG    1       -4.960   3.133   5.778  0.00  0.00    +0.110 A 
ATOM      6  C   LIG    1       -4.290   2.651   4.674  0.00  0.00    +0.000 A 
ATOM      7  C   LIG    1       -3.552   1.467   4.763  0.00  0.00    -0.130 A 
ATOM      8  C   LIG    1       -3.493   0.783   5.980  0.00  0.00    +0.100 A 
ATOM      9  C   LIG    1       -4.161   1.273   7.076  0.00  0.00    -0.150 A 
ATOM     10  C   LIG    1       -4.293   0.761   8.498  0.00  0.00    +0.090 C 
ATOM     11  C   LIG    1       -5.495   1.582   9.023  0.00  0.00    +0.240 C 
ATOM     12  O   LIG    1       -5.462   2.758   8.197  0.00  0.00    -0.290 OA
ATOM     13  C   LIG    1       -4.897   2.450   6.998  0.00  0.00    +0.110 A 
BRANCH   5  15
ATOM     14  C   LIG    1       -5.704   4.930   4.409  0.00  0.00    +0.240 C 
ATOM     15  O   LIG    1       -5.681   4.282   5.682  0.00  0.00    -0.310 OA
ENDBRANCH   5  15
ENDBRANCH   1   7
BRANCH   2  16
ATOM     16  C   LIG    1       -2.184   1.095   1.239  0.00  0.00    +0.250 C 
ATOM     17  C   LIG    1       -0.731   1.580   1.267  0.00  0.00    +0.000 C 
ATOM     18  C   LIG    1       -0.013   1.086   0.008  0.00  0.00    +0.050 C 
ATOM     19  C   LIG    1       -0.754   1.594  -1.231  0.00  0.00    +0.180 C 
ATOM     20  N   LIG    1       -2.138   1.101  -1.210  0.00  0.00    -0.500 N 
ATOM     21  C   LIG    1       -2.862   1.602  -0.035  0.00  0.00    +0.180 C 
BRANCH  20  22
ATOM     22  C   LIG    1       -2.806   1.436  -2.390  0.00  0.00    +0.090 A 
ATOM     23  C   LIG    1       -3.389   0.442  -3.166  0.00  0.00    +0.030 A 
ATOM     24  C   LIG    1       -4.053   0.777  -4.330  0.00  0.00    +0.020 A 
ATOM     25  C   LIG    1       -4.128   2.099  -4.729  0.00  0.00    +0.000 A 
ATOM     26  C   LIG    1       -3.544   3.091  -3.962  0.00  0.00    -0.080 A 
ATOM     27  C   LIG    1       -3.628   4.530  -4.400  0.00  0.00    +0.080 C 
ATOM     28  C   LIG    1       -2.883   2.763  -2.794  0.00  0.00    -0.030 A 
ENDBRANCH  20  22
ENDBRANCH   2  16
TORSDOF 4
