REMARK  Name = ZINCrD00000l1r3c.0
REMARK                            x       y       z     vdW  Elec       q    Type
REMARK                         _______ _______ _______ _____ _____    ______ ____
ROOT
ATOM      1  C   LIG    1       -2.864   5.442  -6.738  0.00  0.00    +0.570 C 
ATOM      2  N   LIG    1       -3.521   5.079  -5.618  0.00  0.00    -0.660 N 
ATOM      3  H   LIG    1       -4.486   5.165  -5.573  0.00  0.00    +0.410 HD
ATOM      4  O   LIG    1       -1.668   5.245  -6.831  0.00  0.00    -0.510 OA
ENDROOT
BRANCH   1  12
ATOM      5  C   LIG    1       -2.099   7.653 -12.094  0.00  0.00    +0.190 C 
ATOM      6  C   LIG    1       -3.417   7.593 -11.365  0.00  0.00    +0.070 A 
ATOM      7  N   LIG    1       -4.573   8.010 -11.788  0.00  0.00    -0.310 NA
ATOM      8  O   LIG    1       -5.468   7.838 -10.994  0.00  0.00    +0.090 OA
ATOM      9  C   LIG    1       -5.057   7.254  -9.855  0.00  0.00    +0.240 A 
ATOM     10  N   LIG    1       -5.646   6.875  -8.732  0.00  0.00    -0.460 NA
ATOM     11  C   LIG    1       -4.975   6.305  -7.756  0.00  0.00    +0.380 A 
ATOM     12  C   LIG    1       -3.597   6.078  -7.850  0.00  0.00    -0.210 A 
ATOM     13  C   LIG    1       -2.925   6.459  -9.018  0.00  0.00    +0.230 A 
ATOM     14  C   LIG    1       -3.670   7.052 -10.025  0.00  0.00    -0.230 A 
ENDBRANCH   1  12
BRANCH   2  15
ATOM     15  C   LIG    1       -2.810   4.577  -4.520  0.00  0.00    +0.120 A 
ATOM     16  C   LIG    1       -3.384   3.611  -3.705  0.00  0.00    +0.020 A 
ATOM     17  C   LIG    1       -2.684   3.116  -2.622  0.00  0.00    +0.010 A 
ATOM     18  C   LIG    1       -1.405   3.586  -2.349  0.00  0.00    +0.100 A 
ATOM     19  C   LIG    1       -0.834   4.556  -3.162  0.00  0.00    -0.020 A 
ATOM     20  C   LIG    1       -1.532   5.046  -4.247  0.00  0.00    +0.050 A 
BRANCH  18  21
ATOM     21  N   LIG    1       -0.696   3.085  -1.252  0.00  0.00    -0.480 N 
ATOM     22  C   LIG    1       -0.572   1.622  -1.329  0.00  0.00    +0.170 C 
ATOM     23  C   LIG    1        0.157   1.112  -0.083  0.00  0.00    +0.200 C 
ATOM     24  O   LIG    1        1.429   1.759   0.018  0.00  0.00    -0.370 OA
ATOM     25  C   LIG    1        1.345   3.184   0.095  0.00  0.00    +0.160 C 
ATOM     26  C   LIG    1        2.754   3.776   0.166  0.00  0.00    +0.050 C 
ATOM     27  C   LIG    1       -0.675   1.425   1.162  0.00  0.00    +0.020 C 
ATOM     28  C   LIG    1        0.628   3.716  -1.149  0.00  0.00    +0.170 C 
ENDBRANCH  18  21
ENDBRANCH   2  15
TORSDOF 3
