REMARK  Name = ZINCvU0000000AsX.0
REMARK                            x       y       z     vdW  Elec       q    Type
REMARK                         _______ _______ _______ _____ _____    ______ ____
ROOT
ATOM      1  N   LIG    1        0.211   1.423  -4.013  0.00  0.00    -0.440 N 
ATOM      2  C   LIG    1        0.234   1.075  -2.692  0.00  0.00    +0.120 A 
ATOM      3  N   LIG    1        1.003   0.014  -2.583  0.00  0.00    -0.280 NA
ATOM      4  N   LIG    1        1.452  -0.327  -3.738  0.00  0.00    -0.260 NA
ATOM      5  C   LIG    1        1.005   0.500  -4.654  0.00  0.00    +0.220 A 
ENDROOT
BRANCH   1  12
ATOM      6  C   LIG    1       -2.500   1.076  -4.971  0.00  0.00    +0.020 C 
ATOM      7  C   LIG    1       -2.009   2.389  -4.358  0.00  0.00    +0.000 C 
ATOM      8  C   LIG    1       -2.265   2.375  -2.850  0.00  0.00    +0.030 C 
ATOM      9  C   LIG    1       -1.773   3.688  -2.237  0.00  0.00    +0.050 C 
ATOM     10  C   LIG    1       -0.274   3.844  -2.499  0.00  0.00    +0.010 C 
ATOM     11  C   LIG    1       -0.018   3.857  -4.007  0.00  0.00    +0.030 C 
ATOM     12  C   LIG    1       -0.510   2.544  -4.620  0.00  0.00    +0.230 C 
ENDBRANCH   1  12
BRANCH   5  13
ATOM     13  C   LIG    1        1.298   0.448  -6.102  0.00  0.00    -0.070 A 
ATOM     14  C   LIG    1        2.528  -0.036  -6.562  0.00  0.00    +0.120 A 
ATOM     15  C   LIG    1        2.752  -0.063  -7.928  0.00  0.00    -0.020 A 
ATOM     16  C   LIG    1        1.764   0.384  -8.786  0.00  0.00    +0.270 A 
ATOM     17  N   LIG    1        0.614   0.835  -8.323  0.00  0.00    -0.480 NA
ATOM     18  C   LIG    1        0.350   0.876  -7.034  0.00  0.00    +0.270 A 
ENDBRANCH   5  13
BRANCH   2  19
ATOM     19  S   LIG    1       -0.604   1.898  -1.379  0.00  0.00    +0.220 S 
BRANCH  19  20
ATOM     20  C   LIG    1       -0.091   0.867   0.017  0.00  0.00    -0.050 C 
BRANCH  20  21
ATOM     21  C   LIG    1       -0.706   1.398   1.286  0.00  0.00    +0.430 C 
ATOM     22  O   LIG    1       -1.420   2.377   1.250  0.00  0.00    -0.450 OA
BRANCH  21  23
ATOM     23  C   LIG    1       -0.439   0.728   2.569  0.00  0.00    -0.170 A 
ATOM     24  C   LIG    1        0.380  -0.404   2.615  0.00  0.00    +0.070 A 
ATOM     25  C   LIG    1        0.627  -1.021   3.822  0.00  0.00    +0.010 A 
ATOM     26  C   LIG    1        0.062  -0.532   4.990  0.00  0.00    -0.060 A 
ATOM     27  C   LIG    1        0.178  -1.030   6.415  0.00  0.00    +0.080 C 
ATOM     28  C   LIG    1       -0.994  -0.370   7.171  0.00  0.00    +0.030 C 
ATOM     29  C   LIG    1       -1.240   0.912   6.348  0.00  0.00    +0.080 C 
ATOM     30  C   LIG    1       -0.754   0.586   4.951  0.00  0.00    -0.110 A 
ATOM     31  C   LIG    1       -1.006   1.217   3.749  0.00  0.00    +0.080 A 
ENDBRANCH  21  23
ENDBRANCH  20  21
ENDBRANCH  19  20
ENDBRANCH   2  19
TORSDOF 6
