REMARK  Name = ZINCnE000001Ogt3.0
REMARK                            x       y       z     vdW  Elec       q    Type
REMARK                         _______ _______ _______ _____ _____    ______ ____
ROOT
ATOM      1  C   LIG    1       -2.576   0.091   1.264  0.00  0.00    +0.030 C 
ATOM      2  C   LIG    1       -2.514   0.979   0.019  0.00  0.00    -0.090 C 
ENDROOT
BRANCH   2   3
ATOM      3  C   LIG    1       -1.219   1.750   0.017  0.00  0.00    -0.010 A 
ATOM      4  C   LIG    1       -0.013   1.076   0.008  0.00  0.00    +0.030 A 
ATOM      5  C   LIG    1        1.175   1.783   0.000  0.00  0.00    +0.020 A 
ATOM      6  C   LIG    1        1.156   3.166   0.008  0.00  0.00    -0.050 A 
ATOM      7  C   LIG    1       -0.052   3.841   0.022  0.00  0.00    +0.020 A 
ATOM      8 CL   LIG    1        2.647   4.055  -0.001  0.00  0.00    -0.090 Cl
ATOM      9  C   LIG    1       -1.239   3.133   0.030  0.00  0.00    +0.010 A 
ENDBRANCH   2   3
BRANCH   2  10
ATOM     10  C   LIG    1       -2.587   0.118  -1.216  0.00  0.00    +0.520 C 
ATOM     11  O   LIG    1       -2.553   0.633  -2.320  0.00  0.00    -0.700 OA
ATOM     12  O   LIG    1       -2.681  -1.093  -1.110  0.00  0.00    -0.670 OA
ENDBRANCH   2  10
BRANCH   2  13
ATOM     13  C   LIG    1       -3.690   1.957   0.030  0.00  0.00    +0.060 C 
BRANCH  13  14
ATOM     14  C   LIG    1       -4.985   1.185   0.032  0.00  0.00    +0.520 C 
ATOM     15  N   LIG    1       -6.161   1.843   0.041  0.00  0.00    -0.630 N 
ATOM     16  C   LIG    1       -6.325   3.307   0.056  0.00  0.00    +0.240 C 
ATOM     17  C   LIG    1       -7.723   3.553  -0.568  0.00  0.00    +0.030 C 
ATOM     18  C   LIG    1       -8.535   2.364   0.003  0.00  0.00    -0.010 C 
ATOM     19  C   LIG    1       -9.606   1.950  -1.017  0.00  0.00    +0.020 C 
ATOM     20  C   LIG    1       -9.220   0.544  -1.519  0.00  0.00    +0.010 C 
ATOM     21  C   LIG    1       -7.690   0.470  -1.297  0.00  0.00    +0.010 C 
ATOM     22  C   LIG    1       -7.491   1.216   0.044  0.00  0.00    +0.220 C 
ATOM     23  O   LIG    1       -4.968  -0.027   0.025  0.00  0.00    -0.490 OA
ENDBRANCH  13  14
ENDBRANCH   2  13
TORSDOF 4
