REMARK  Name = ZINCtV00001bB3Cd.0
REMARK                            x       y       z     vdW  Elec       q    Type
REMARK                         _______ _______ _______ _____ _____    ______ ____
ROOT
ATOM      1  C   LIG    1       -0.013   1.076   0.008  0.00  0.00    +0.090 C 
ATOM      2  C   LIG    1       -1.176   1.727   0.017  0.00  0.00    -0.010 C 
ATOM      3  C   LIG    1       -1.219   3.239   0.025  0.00  0.00    +0.090 C 
ATOM      4  C   LIG    1       -2.145   3.706  -1.103  0.00  0.00    +0.020 C 
ATOM      5  C   LIG    1       -3.511   3.036  -0.949  0.00  0.00    +0.040 C 
ATOM      6  C   LIG    1       -3.367   1.521  -1.109  0.00  0.00    +0.070 C 
ATOM      7  C   LIG    1       -2.487   0.972   0.013  0.00  0.00    +0.080 C 
ENDROOT
BRANCH   1   9
ATOM      8  N   LIG    1        2.280   1.141  -0.014  0.00  0.00    -0.220 NA
ATOM      9  N   LIG    1        1.154   1.770   0.001  0.00  0.00    -0.210 NA
BRANCH   8  15
ATOM     10  C   LIG    1        8.213   3.352  -0.060  0.00  0.00    +0.020 A 
ATOM     11  C   LIG    1        8.252   1.960  -0.068  0.00  0.00    +0.010 A 
ATOM     12  C   LIG    1        7.105   1.227  -0.060  0.00  0.00    +0.030 A 
ATOM     13  C   LIG    1        5.861   1.882  -0.044  0.00  0.00    -0.060 A 
ATOM     14  C   LIG    1        4.660   1.157  -0.036  0.00  0.00    +0.100 A 
ATOM     15  C   LIG    1        3.452   1.839  -0.021  0.00  0.00    +0.050 A 
ATOM     16  C   LIG    1        3.427   3.248  -0.019  0.00  0.00    +0.030 A 
ATOM     17  C   LIG    1        4.580   3.963  -0.021  0.00  0.00    +0.020 A 
ATOM     18  C   LIG    1        5.821   3.300  -0.037  0.00  0.00    -0.030 A 
ATOM     19  C   LIG    1        7.027   4.021  -0.045  0.00  0.00    +0.020 A 
ENDBRANCH   8  15
ENDBRANCH   1   9
BRANCH   7  20
ATOM     20  S   LIG    1       -2.174  -0.788  -0.269  0.00  0.00    +0.070 S 
BRANCH  20  21
ATOM     21  C   LIG    1       -1.276  -1.178   1.196  0.00  0.00    +0.210 A 
ATOM     22  N   LIG    1       -0.981  -0.325   2.144  0.00  0.00    -0.460 NA
ATOM     23  C   LIG    1       -0.286  -0.977   3.116  0.00  0.00    +0.030 A 
ATOM     24  C   LIG    1        0.270  -0.581   4.333  0.00  0.00    +0.070 A 
ATOM     25  C   LIG    1        0.936  -1.502   5.112  0.00  0.00    +0.020 A 
ATOM     26  C   LIG    1        1.056  -2.818   4.694  0.00  0.00    +0.050 A 
ATOM     27  C   LIG    1        0.511  -3.223   3.492  0.00  0.00    +0.050 A 
ATOM     28  C   LIG    1       -0.162  -2.310   2.697  0.00  0.00    +0.010 A 
ATOM     29  O   LIG    1       -0.789  -2.394   1.501  0.00  0.00    -0.190 OA
ENDBRANCH  20  21
ENDBRANCH   7  20
TORSDOF 4
