REMARK  Name = ZINCAx0000000dgs.0
REMARK                            x       y       z     vdW  Elec       q    Type
REMARK                         _______ _______ _______ _____ _____    ______ ____
ROOT
ATOM      1  C   LIG    1        1.543   8.355   0.033  0.00  0.00    +0.460 C 
ATOM      2  O   LIG    1        0.366   8.628   0.045  0.00  0.00    -0.490 OA
ENDROOT
BRANCH   1   3
ATOM      3  O   LIG    1        1.935   7.071   0.022  0.00  0.00    -0.330 OA
BRANCH   3   4
ATOM      4  C   LIG    1        0.890   6.063   0.026  0.00  0.00    +0.250 C 
BRANCH   4   5
ATOM      5  C   LIG    1        1.514   4.692   0.013  0.00  0.00    +0.430 C 
ATOM      6  O   LIG    1        2.722   4.576   0.002  0.00  0.00    -0.450 OA
BRANCH   5  10
ATOM      7  C   LIG    1       -2.561   1.634   0.021  0.00  0.00    +0.130 C 
ATOM      8  C   LIG    1       -1.150   2.163   0.019  0.00  0.00    +0.020 A 
ATOM      9  C   LIG    1       -0.805   3.461   0.028  0.00  0.00    +0.000 A 
ATOM     10  C   LIG    1        0.664   3.500   0.015  0.00  0.00    -0.270 A 
ATOM     11  C   LIG    1        1.079   2.181   0.004  0.00  0.00    +0.130 A 
ATOM     12  C   LIG    1        2.508   1.704  -0.013  0.00  0.00    +0.150 C 
ATOM     13  N   LIG    1       -0.017   1.397   0.010  0.00  0.00    -0.390 N 
BRANCH  13  14
ATOM     14  C   LIG    1        0.002  -0.004   0.002  0.00  0.00    +0.100 A 
ATOM     15  C   LIG    1        0.504  -0.687  -1.098  0.00  0.00    +0.020 A 
ATOM     16  C   LIG    1        0.526  -2.068  -1.100  0.00  0.00    +0.020 A 
ATOM     17  C   LIG    1        0.039  -2.771  -0.013  0.00  0.00    +0.020 A 
ATOM     18  C   LIG    1       -0.466  -2.093   1.081  0.00  0.00    +0.020 A 
ATOM     19  C   LIG    1       -0.486  -0.712   1.092  0.00  0.00    +0.030 A 
ENDBRANCH  13  14
ENDBRANCH   5  10
ENDBRANCH   4   5
ENDBRANCH   3   4
ENDBRANCH   1   3
BRANCH   1  20
ATOM     20  C   LIG    1        2.572   9.457   0.030  0.00  0.00    +0.360 C 
BRANCH  20  21
ATOM     21  N   LIG    1        1.896  10.756   0.043  0.00  0.00    -1.110 NA
ATOM     22  H   LIG    1        0.950  10.813  -0.165  0.00  0.00    +0.430 HD
BRANCH  21  23
ATOM     23  S   LIG    1        2.746  12.128   0.414  0.00  0.00    +2.710 S 
ATOM     24  O   LIG    1        3.475  11.840   1.599  0.00  0.00    -0.940 OA
ATOM     25  O   LIG    1        1.829  13.209   0.308  0.00  0.00    -0.930 OA
BRANCH  23  26
ATOM     26  C   LIG    1        3.940  12.362  -0.860  0.00  0.00    -0.690 A 
ATOM     27  C   LIG    1        5.198  11.803  -0.738  0.00  0.00    +0.190 A 
ATOM     28  C   LIG    1        6.135  11.980  -1.737  0.00  0.00    -0.010 A 
ATOM     29  C   LIG    1        5.816  12.731  -2.861  0.00  0.00    +0.210 A 
ATOM     30  C   LIG    1        4.552  13.296  -2.978  0.00  0.00    -0.050 A 
ATOM     31  C   LIG    1        3.618  13.110  -1.978  0.00  0.00    +0.220 A 
BRANCH  30  32
ATOM     32  N   LIG    1        4.207  14.096  -4.175  0.00  0.00    +0.030 N 
ATOM     33  O   LIG    1        5.031  14.260  -5.057  0.00  0.00    -0.090 OA
ATOM     34  O   LIG    1        3.099  14.591  -4.277  0.00  0.00    -0.180 OA
ENDBRANCH  30  32
BRANCH  29  35
ATOM     35  N   LIG    1        6.763  12.917  -3.870  0.00  0.00    -0.510 N 
ATOM     36  C   LIG    1        7.113  11.640  -4.506  0.00  0.00    +0.230 C 
ATOM     37  C   LIG    1        7.959  13.593  -3.352  0.00  0.00    +0.230 C 
ENDBRANCH  29  35
ENDBRANCH  23  26
ENDBRANCH  21  23
ENDBRANCH  20  21
ENDBRANCH   1  20
TORSDOF 11
