REMARK  Name = ZINCtV000002KpRm.0
REMARK                            x       y       z     vdW  Elec       q    Type
REMARK                         _______ _______ _______ _____ _____    ______ ____
ROOT
ATOM      1  C   LIG    1       -5.756   6.485  -0.426  0.00  0.00    +0.270 A 
ATOM      2  N   LIG    1       -4.624   5.855  -0.373  0.00  0.00    -0.500 NA
ATOM      3  C   LIG    1       -4.674   4.536  -0.248  0.00  0.00    +0.130 A 
ATOM      4  C   LIG    1       -5.911   4.011  -0.181  0.00  0.00    -0.110 A 
ATOM      5  S   LIG    1       -7.076   5.327  -0.296  0.00  0.00    +0.210 S 
ENDROOT
BRANCH   3   6
ATOM      6  C   LIG    1       -3.452   3.699  -0.180  0.00  0.00    -0.040 A 
ATOM      7  C   LIG    1       -2.193   4.293  -0.254  0.00  0.00    +0.080 A 
ATOM      8  C   LIG    1       -1.059   3.512  -0.191  0.00  0.00    -0.020 A 
ATOM      9  C   LIG    1       -1.169   2.134  -0.054  0.00  0.00    +0.150 A 
ATOM     10  C   LIG    1       -2.423   1.538   0.014  0.00  0.00    +0.020 A 
ATOM     11  C   LIG    1       -3.561   2.315  -0.043  0.00  0.00    +0.050 A 
BRANCH   9  12
ATOM     12  N   LIG    1       -0.016   1.344   0.009  0.00  0.00    -0.670 N 
ATOM     13  H   LIG    1        0.775   1.598  -0.491  0.00  0.00    +0.410 HD
ATOM     14  C   LIG    1       -0.006   0.225   0.762  0.00  0.00    +0.520 C 
ATOM     15  O   LIG    1       -0.961  -0.044   1.460  0.00  0.00    -0.510 OA
BRANCH  14  16
ATOM     16  C   LIG    1        1.190  -0.690   0.735  0.00  0.00    -0.080 C 
ATOM     17  C   LIG    1        2.430   0.078   1.198  0.00  0.00    +0.050 C 
ATOM     18  C   LIG    1        1.410  -1.201  -0.690  0.00  0.00    +0.050 C 
ATOM     19  C   LIG    1        0.946  -1.876   1.671  0.00  0.00    +0.060 C 
ENDBRANCH  14  16
ENDBRANCH   9  12
ENDBRANCH   3   6
BRANCH   1  21
ATOM     20  C   LIG    1       -7.136   8.404  -0.598  0.00  0.00    +0.600 C 
ATOM     21  N   LIG    1       -5.904   7.860  -0.559  0.00  0.00    -0.610 N 
ATOM     22  H   LIG    1       -5.120   8.428  -0.624  0.00  0.00    +0.430 HD
ATOM     23  O   LIG    1       -8.118   7.692  -0.517  0.00  0.00    -0.480 OA
BRANCH  20  27
ATOM     24  C   LIG    1       -7.672  13.079  -2.571  0.00  0.00    +0.200 C 
ATOM     25  C   LIG    1       -7.529  11.913  -1.626  0.00  0.00    +0.050 A 
ATOM     26  C   LIG    1       -7.395  10.628  -1.991  0.00  0.00    -0.160 A 
ATOM     27  C   LIG    1       -7.293   9.862  -0.740  0.00  0.00    -0.220 A 
ATOM     28  C   LIG    1       -7.368  10.785   0.263  0.00  0.00    +0.070 A 
ATOM     29  C   LIG    1       -7.305  10.489   1.740  0.00  0.00    +0.200 C 
ATOM     30 BR   LIG    1       -7.351   9.943  -3.752  0.00  0.00    +0.010 Br
ATOM     31  O   LIG    1       -7.508  11.995  -0.286  0.00  0.00    -0.160 OA
ENDBRANCH  20  27
ENDBRANCH   1  21
TORSDOF 5
