REMARK  Name = ZINCtV000002PDKU.0
REMARK                            x       y       z     vdW  Elec       q    Type
REMARK                         _______ _______ _______ _____ _____    ______ ____
ROOT
ATOM      1  O   LIG    1       -1.986  -1.373  -3.337  0.00  0.00    -0.910 OA
ATOM      2  S   LIG    1       -2.664  -0.185  -3.722  0.00  0.00    +2.500 S 
ATOM      3  C   LIG    1       -2.471   1.104  -2.458  0.00  0.00    -0.260 C 
ATOM      4  C   LIG    1       -3.125   0.654  -1.175  0.00  0.00    -0.090 A 
ATOM      5  C   LIG    1       -2.504   1.005   0.019  0.00  0.00    +0.040 A 
ATOM      6  C   LIG    1       -3.123   0.629   1.237  0.00  0.00    -0.070 A 
ATOM      7  C   LIG    1       -2.552   0.942   2.475  0.00  0.00    +0.060 A 
ATOM      8  C   LIG    1       -3.187   0.569   3.624  0.00  0.00    -0.020 A 
ATOM      9  C   LIG    1       -4.397  -0.120   3.579  0.00  0.00    +0.060 A 
ATOM     10  C   LIG    1       -4.977  -0.443   2.390  0.00  0.00    +0.080 A 
ATOM     11 CL   LIG    1       -2.478   0.958   5.161  0.00  0.00    -0.050 Cl
ATOM     12  C   LIG    1       -4.348  -0.080   1.185  0.00  0.00    +0.140 A 
ATOM     13  N   LIG    1       -4.884  -0.395   0.007  0.00  0.00    -0.440 NA
ATOM     14  C   LIG    1       -4.313  -0.077  -1.150  0.00  0.00    +0.190 A 
ATOM     15  C   LIG    1       -5.019  -0.511  -2.383  0.00  0.00    +0.060 A 
ATOM     16  C   LIG    1       -6.374  -0.844  -2.298  0.00  0.00    +0.030 A 
ATOM     17  C   LIG    1       -7.057  -1.249  -3.428  0.00  0.00    +0.150 A 
ATOM     18  C   LIG    1       -6.405  -1.327  -4.648  0.00  0.00    +0.000 A 
ATOM     19  C   LIG    1       -5.064  -1.000  -4.737  0.00  0.00    +0.170 A 
ATOM     20  F   LIG    1       -8.366  -1.571  -3.343  0.00  0.00    -0.120 F 
ATOM     21  O   LIG    1       -2.512   0.361  -5.025  0.00  0.00    -0.920 OA
ATOM     22  C   LIG    1       -4.377  -0.597  -3.612  0.00  0.00    -0.640 A 
ENDROOT
BRANCH   5  23
ATOM     23  C   LIG    1       -1.229   1.758   0.017  0.00  0.00    -0.060 A 
ATOM     24  C   LIG    1       -0.013   1.076   0.008  0.00  0.00    +0.050 A 
ATOM     25  C   LIG    1        1.172   1.783   0.000  0.00  0.00    +0.030 A 
ATOM     26  C   LIG    1        1.156   3.167   0.008  0.00  0.00    +0.050 A 
ATOM     27  C   LIG    1       -0.047   3.850   0.024  0.00  0.00    +0.030 A 
ATOM     28  C   LIG    1       -1.239   3.154   0.031  0.00  0.00    -0.020 A 
ATOM     29 CL   LIG    1       -2.748   4.013   0.051  0.00  0.00    -0.050 Cl
ENDBRANCH   5  23
TORSDOF 1
