REMARK  Name = ZINC9u0000000C7T.0
REMARK                            x       y       z     vdW  Elec       q    Type
REMARK                         _______ _______ _______ _____ _____    ______ ____
ROOT
ATOM      1  C   LIG    1        0.002  -0.004   0.002  0.00  0.00    +0.120 A 
ATOM      2  C   LIG    1       -0.017   1.414   0.010  0.00  0.00    +0.050 A 
ATOM      3  C   LIG    1        1.159   2.104   0.002  0.00  0.00    +0.030 A 
ATOM      4  C   LIG    1        2.371   1.426  -0.013  0.00  0.00    +0.010 A 
ATOM      5  C   LIG    1        2.406   0.037  -0.021  0.00  0.00    +0.030 A 
ATOM      6  C   LIG    1        1.248  -0.682  -0.013  0.00  0.00    -0.030 A 
ENDROOT
BRANCH   1   9
ATOM      7  S   LIG    1       -1.078  -3.492  -0.006  0.00  0.00    +0.020 S 
ATOM      8  C   LIG    1       -1.108  -1.939   0.003  0.00  0.00    +0.210 C 
ATOM      9  N   LIG    1       -1.132  -0.689   0.010  0.00  0.00    -0.450 NA
ENDBRANCH   1   9
TORSDOF 1
