REMARK  Name = ZINCqH0000033EUg.0
REMARK                            x       y       z     vdW  Elec       q    Type
REMARK                         _______ _______ _______ _____ _____    ______ ____
ROOT
ATOM      1  N   LIG    1       -5.633   2.072   1.574  0.00  0.00    -0.740 N 
ATOM      2  H   LIG    1       -5.497   2.925   2.016  0.00  0.00    +0.410 HD
ENDROOT
BRANCH   1   3
ATOM      3  C   LIG    1       -4.582   1.470   0.878  0.00  0.00    +0.240 A 
ATOM      4  C   LIG    1       -4.776   0.249   0.245  0.00  0.00    -0.050 A 
ATOM      5  C   LIG    1       -3.736  -0.346  -0.443  0.00  0.00    +0.090 A 
ATOM      6  C   LIG    1       -2.501   0.271  -0.503  0.00  0.00    -0.040 A 
ATOM      7  C   LIG    1       -2.301   1.491   0.128  0.00  0.00    +0.170 A 
ATOM      8  C   LIG    1       -3.341   2.090   0.823  0.00  0.00    -0.040 A 
BRANCH   7   9
ATOM      9  N   LIG    1       -1.047   2.116   0.066  0.00  0.00    -0.330 N 
ATOM     10  N   LIG    1       -0.367   2.771   1.109  0.00  0.00    -0.080 NA
ATOM     11  N   LIG    1        0.743   3.201   0.613  0.00  0.00    -0.030 NA
ATOM     12  N   LIG    1        0.829   2.879  -0.627  0.00  0.00    -0.330 NA
ATOM     13  C   LIG    1       -0.232   2.215  -1.006  0.00  0.00    +0.260 A 
ATOM     14  C   LIG    1       -0.498   1.669  -2.385  0.00  0.00    +0.220 C 
ENDBRANCH   7   9
ENDBRANCH   1   3
BRANCH   1  15
ATOM     15  C   LIG    1       -6.941   1.415   1.636  0.00  0.00    +0.330 C 
BRANCH  15  19
ATOM     16  C   LIG    1       -9.639   3.822   3.921  0.00  0.00    +0.100 A 
ATOM     17  C   LIG    1       -8.865   2.858   4.548  0.00  0.00    -0.080 A 
ATOM     18  C   LIG    1       -7.997   2.078   3.805  0.00  0.00    +0.040 A 
ATOM     19  C   LIG    1       -7.892   2.264   2.440  0.00  0.00    -0.070 A 
ATOM     20  C   LIG    1       -8.662   3.224   1.808  0.00  0.00    -0.020 A 
ATOM     21 BR   LIG    1       -9.001   2.605   6.417  0.00  0.00    -0.020 Br
ATOM     22  C   LIG    1       -9.537   4.005   2.546  0.00  0.00    +0.120 A 
BRANCH  22  23
ATOM     23  O   LIG    1      -10.295   4.949   1.926  0.00  0.00    -0.300 OA
ATOM     24  C   LIG    1      -10.137   5.082   0.512  0.00  0.00    +0.250 C 
ENDBRANCH  22  23
BRANCH  16  25
ATOM     25  O   LIG    1      -10.498   4.586   4.649  0.00  0.00    -0.320 OA
BRANCH  25  27
ATOM     26  C   LIG    1      -12.640   5.079   5.653  0.00  0.00    +0.070 C 
ATOM     27  C   LIG    1      -11.828   4.091   4.812  0.00  0.00    +0.170 C 
ENDBRANCH  25  27
ENDBRANCH  16  25
ENDBRANCH  15  19
ENDBRANCH   1  15
TORSDOF 7
