REMARK  Name = ZINCqH0000032C1B.0
REMARK                            x       y       z     vdW  Elec       q    Type
REMARK                         _______ _______ _______ _____ _____    ______ ____
ROOT
ATOM      1  C   LIG    1        2.783  -0.573   0.342  0.00  0.00    +0.030 C 
ATOM      2  C   LIG    1        2.198  -0.062  -0.977  0.00  0.00    +0.100 C 
ATOM      3  C   LIG    1        2.285   1.467  -1.017  0.00  0.00    +0.290 C 
ATOM      4  N   LIG    1        1.371   2.011   0.000  0.00  0.00    -0.630 N 
ATOM      5  C   LIG    1       -0.017   1.524   0.014  0.00  0.00    +0.280 C 
ATOM      6  C   LIG    1        0.008  -0.008   0.004  0.00  0.00    +0.140 C 
ATOM      7  C   LIG    1        1.794   2.929   0.892  0.00  0.00    +0.710 C 
ATOM      8  N   LIG    1        0.917   3.492   1.747  0.00  0.00    -0.740 N 
ATOM      9  H   LIG    1       -0.003   3.185   1.769  0.00  0.00    +0.400 HD
ATOM     10  O   LIG    1        2.966   3.249   0.926  0.00  0.00    -0.580 OA
ATOM     11  C   LIG    1        2.987  -0.651  -2.148  0.00  0.00    +0.080 C 
ATOM     12  O   LIG    1        0.828  -0.459  -1.077  0.00  0.00    -0.350 OA
ENDROOT
BRANCH   8  13
ATOM     13  C   LIG    1        1.353   4.566   2.642  0.00  0.00    +0.250 C 
ATOM     14  C   LIG    1        1.960   3.961   3.912  0.00  0.00    -0.020 C 
ATOM     15  C   LIG    1        2.341   5.089   4.874  0.00  0.00    +0.230 C 
ATOM     16  O   LIG    1        1.183   5.874   5.167  0.00  0.00    -0.370 OA
ATOM     17  C   LIG    1        0.600   6.503   4.024  0.00  0.00    +0.250 C 
ATOM     18  C   LIG    1        0.149   5.432   3.028  0.00  0.00    +0.020 C 
BRANCH  17  19
ATOM     19  C   LIG    1       -0.590   7.322   4.454  0.00  0.00    -0.180 A 
ATOM     20  C   LIG    1       -0.964   8.481   3.909  0.00  0.00    +0.010 A 
ATOM     21  C   LIG    1       -2.092   9.053   4.470  0.00  0.00    +0.000 A 
ATOM     22  C   LIG    1       -2.635   8.358   5.471  0.00  0.00    -0.050 A 
ATOM     23  S   LIG    1       -1.703   6.892   5.746  0.00  0.00    +0.140 S 
ENDBRANCH  17  19
ENDBRANCH   8  13
BRANCH   6  24
ATOM     24  C   LIG    1       -1.415  -0.541  -0.176  0.00  0.00    +0.470 C 
ATOM     25  F   LIG    1       -2.218  -0.096   0.879  0.00  0.00    -0.170 F 
ATOM     26  F   LIG    1       -1.391  -1.940  -0.185  0.00  0.00    -0.170 F 
ATOM     27  F   LIG    1       -1.937  -0.076  -1.388  0.00  0.00    -0.170 F 
ENDBRANCH   6  24
TORSDOF 3
