REMARK  Name = ZINCbw0000000Hfb.0
REMARK                            x       y       z     vdW  Elec       q    Type
REMARK                         _______ _______ _______ _____ _____    ______ ____
ROOT
ATOM      1  C   LIG    1        0.002  -0.004   0.002  0.00  0.00    +0.350 A 
ATOM      2  N   LIG    1       -0.016   1.313   0.009  0.00  0.00    -0.510 NA
ATOM      3  C   LIG    1        1.111   2.008   0.002  0.00  0.00    +0.350 A 
ATOM      4  C   LIG    1        2.320   1.331  -0.013  0.00  0.00    -0.060 A 
ATOM      5  C   LIG    1        2.299  -0.057  -0.021  0.00  0.00    +0.220 A 
ATOM      6 CL   LIG    1        3.782  -0.959  -0.040  0.00  0.00    -0.010 Cl
ATOM      7  N   LIG    1        1.132  -0.683  -0.013  0.00  0.00    -0.510 NA
ENDROOT
BRANCH   1   8
ATOM      8  C   LIG    1       -1.304  -0.755   0.011  0.00  0.00    +0.080 C 
ATOM      9  C   LIG    1       -1.399  -1.628  -1.243  0.00  0.00    +0.050 C 
BRANCH   8  11
ATOM     10  C   LIG    1       -2.750  -2.308   1.330  0.00  0.00    +0.030 C 
ATOM     11  C   LIG    1       -1.375  -1.641   1.256  0.00  0.00    +0.020 C 
ENDBRANCH   8  11
ENDBRANCH   1   8
TORSDOF 2
