REMARK  Name = ZINCpe00000gNiv8.0
REMARK                            x       y       z     vdW  Elec       q    Type
REMARK                         _______ _______ _______ _____ _____    ______ ____
ROOT
ATOM      1  O   LIG    1       -2.184   3.272  -2.540  0.00  0.00    -0.490 OA
ATOM      2  C   LIG    1       -2.802   2.725  -1.651  0.00  0.00    +0.540 C 
ATOM      3  N   LIG    1       -4.117   2.975  -1.492  0.00  0.00    -0.540 N 
ATOM      4  C   LIG    1       -4.907   2.478  -0.451  0.00  0.00    +0.150 A 
ATOM      5  C   LIG    1       -4.549   1.649   0.614  0.00  0.00    -0.030 A 
ATOM      6  C   LIG    1       -5.491   1.268   1.545  0.00  0.00    +0.040 A 
ATOM      7  C   LIG    1       -6.798   1.703   1.432  0.00  0.00    -0.010 A 
ATOM      8  C   LIG    1       -7.160   2.525   0.380  0.00  0.00    +0.060 A 
ATOM      9  C   LIG    1       -6.220   2.909  -0.556  0.00  0.00    -0.120 A 
ATOM     10  C   LIG    1       -6.342   3.785  -1.783  0.00  0.00    +0.110 C 
ATOM     11  C   LIG    1       -4.926   3.814  -2.380  0.00  0.00    +0.250 C 
ENDROOT
BRANCH   2  12
ATOM     12  C   LIG    1       -2.100   1.766  -0.726  0.00  0.00    +0.150 C 
ATOM     13  C   LIG    1       -1.708   2.471   0.598  0.00  0.00    +0.040 C 
ATOM     14  C   LIG    1       -0.520   1.609   1.086  0.00  0.00    +0.020 C 
ATOM     15  C   LIG    1       -0.023   0.894  -0.186  0.00  0.00    +0.150 C 
ATOM     16  O   LIG    1       -0.827   1.361  -1.282  0.00  0.00    -0.320 OA
BRANCH  15  17
ATOM     17  C   LIG    1        1.447   1.238  -0.435  0.00  0.00    +0.200 C 
BRANCH  17  18
ATOM     18  N   LIG    1        1.909   0.559  -1.653  0.00  0.00    -0.530 NA
ATOM     19  C   LIG    1        1.923  -0.900  -1.470  0.00  0.00    +0.140 C 
ATOM     20  C   LIG    1        2.352  -1.569  -2.778  0.00  0.00    +0.220 C 
ATOM     21  O   LIG    1        3.630  -1.060  -3.171  0.00  0.00    -0.390 OA
ATOM     22  C   LIG    1        3.651   0.358  -3.360  0.00  0.00    +0.220 C 
ATOM     23  C   LIG    1        3.235   1.047  -2.057  0.00  0.00    +0.150 C 
ENDBRANCH  17  18
ENDBRANCH  15  17
ENDBRANCH   2  12
BRANCH  11  24
ATOM     24  C   LIG    1       -4.937   3.233  -3.795  0.00  0.00    +0.180 C 
BRANCH  24  25
ATOM     25  O   LIG    1       -5.596   1.965  -3.783  0.00  0.00    -0.570 OA
ATOM     26  H   LIG    1       -5.641   1.537  -4.649  0.00  0.00    +0.380 HD
ENDBRANCH  24  25
ENDBRANCH  11  24
TORSDOF 5
