REMARK  Name = ZINCkj00000FU6dr.1
REMARK                            x       y       z     vdW  Elec       q    Type
REMARK                         _______ _______ _______ _____ _____    ______ ____
ROOT
ATOM      1  N   LIG    1        2.425   5.024  -1.431  0.00  0.00    -0.490 N 
ATOM      2  H   LIG    1        3.316   5.101  -0.964  0.00  0.00    +0.440 HD
ATOM      3  H   LIG    1        1.741   5.584  -0.946  0.00  0.00    +0.440 HD
ENDROOT
BRANCH   1   4
ATOM      4  C   LIG    1        1.994   3.619  -1.435  0.00  0.00    +0.160 C 
ATOM      5  C   LIG    1        3.088   2.752  -2.060  0.00  0.00    +0.090 C 
BRANCH   4   6
ATOM      6  C   LIG    1        1.739   3.160   0.002  0.00  0.00    +0.280 C 
ATOM      7  C   LIG    1        3.026   3.297   0.818  0.00  0.00    +0.080 C 
BRANCH   6   8
ATOM      8  N   LIG    1        1.309   1.760  -0.001  0.00  0.00    -0.390 N 
ATOM      9  C   LIG    1        2.119   0.681  -0.015  0.00  0.00    +0.230 A 
ATOM     10  C   LIG    1        1.337  -0.423  -0.013  0.00  0.00    -0.090 A 
ATOM     11  C   LIG    1        0.002  -0.004   0.002  0.00  0.00    +0.260 A 
ATOM     12  N   LIG    1       -0.016   1.304   0.009  0.00  0.00    -0.290 NA
ENDBRANCH   6   8
ENDBRANCH   4   6
ENDBRANCH   1   4
BRANCH   1  13
ATOM     13  C   LIG    1        2.555   5.499  -2.815  0.00  0.00    +0.310 C 
BRANCH  13  16
ATOM     14  N   LIG    1        3.183   7.591  -3.977  0.00  0.00    -0.600 N 
ATOM     15  H   LIG    1        3.032   7.132  -4.818  0.00  0.00    +0.440 HD
ATOM     16  C   LIG    1        2.997   6.940  -2.812  0.00  0.00    +0.500 C 
ATOM     17  O   LIG    1        3.185   7.514  -1.760  0.00  0.00    -0.480 OA
BRANCH  14  22
ATOM     18  C   LIG    1        4.578  12.192  -5.269  0.00  0.00    +0.180 C 
ATOM     19  C   LIG    1        4.205  10.944  -4.511  0.00  0.00    +0.040 A 
ATOM     20  N   LIG    1        4.175  10.797  -3.216  0.00  0.00    -0.350 NA
ATOM     21  O   LIG    1        3.837   9.681  -2.898  0.00  0.00    +0.120 OA
ATOM     22  C   LIG    1        3.590   8.917  -3.974  0.00  0.00    +0.170 A 
ATOM     23  C   LIG    1        3.824   9.705  -5.064  0.00  0.00    -0.050 A 
ENDBRANCH  14  22
ENDBRANCH  13  16
ENDBRANCH   1  13
TORSDOF 6
