REMARK  Name = ZINCvU0000000AeI.0
REMARK                            x       y       z     vdW  Elec       q    Type
REMARK                         _______ _______ _______ _____ _____    ______ ____
ROOT
ATOM      1  C   LIG    1       -4.632   5.039  -2.743  0.00  0.00    +0.100 A 
ATOM      2  C   LIG    1       -5.836   5.705  -2.906  0.00  0.00    -0.010 A 
ATOM      3  C   LIG    1       -6.558   6.109  -1.798  0.00  0.00    -0.130 A 
ATOM      4  C   LIG    1       -6.084   5.844  -0.527  0.00  0.00    +0.040 A 
ATOM      5  C   LIG    1       -4.887   5.174  -0.357  0.00  0.00    -0.040 A 
ATOM      6  C   LIG    1       -4.158   4.767  -1.463  0.00  0.00    +0.110 A 
ENDROOT
BRANCH   3   7
ATOM      7  C   LIG    1       -7.864   6.839  -1.976  0.00  0.00    +0.550 C 
ATOM      8  N   LIG    1       -7.831   7.591  -3.231  0.00  0.00    -0.740 N 
ATOM      9  H   LIG    1       -8.147   7.171  -4.046  0.00  0.00    +0.410 HD
ATOM     10  C   LIG    1       -7.367   8.857  -3.274  0.00  0.00    +0.580 C 
ATOM     11  C   LIG    1       -6.963   9.520  -2.021  0.00  0.00    -0.200 A 
ATOM     12  C   LIG    1       -6.227  10.702  -2.020  0.00  0.00    +0.110 A 
ATOM     13  C   LIG    1       -5.882  11.287  -0.819  0.00  0.00    -0.040 A 
ATOM     14  C   LIG    1       -6.262  10.708   0.381  0.00  0.00    +0.080 A 
ATOM     15  C   LIG    1       -6.992   9.534   0.395  0.00  0.00    -0.050 A 
ATOM     16  C   LIG    1       -7.344   8.933  -0.800  0.00  0.00    +0.240 A 
ATOM     17  O   LIG    1       -7.284   9.446  -4.335  0.00  0.00    -0.530 OA
ATOM     18  N   LIG    1       -8.071   7.749  -0.843  0.00  0.00    -0.750 N 
ATOM     19  H   LIG    1       -8.701   7.528  -0.139  0.00  0.00    +0.420 HD
ENDBRANCH   3   7
BRANCH   1  21
ATOM     20  C   LIG    1       -4.466   4.959  -5.114  0.00  0.00    +0.250 C 
ATOM     21  O   LIG    1       -3.918   4.646  -3.832  0.00  0.00    -0.300 OA
ENDBRANCH   1  21
BRANCH   6  22
ATOM     22  O   LIG    1       -2.980   4.108  -1.298  0.00  0.00    -0.300 OA
BRANCH  22  23
ATOM     23  C   LIG    1       -2.553   3.868   0.044  0.00  0.00    +0.260 C 
BRANCH  23  24
ATOM     24  C   LIG    1       -1.238   3.133   0.029  0.00  0.00    -0.100 A 
ATOM     25  C   LIG    1       -1.219   1.751   0.017  0.00  0.00    +0.080 A 
ATOM     26  C   LIG    1       -0.013   1.076   0.008  0.00  0.00    +0.020 A 
ATOM     27  C   LIG    1        1.175   1.783   0.000  0.00  0.00    +0.080 A 
ATOM     28  C   LIG    1        1.156   3.166   0.008  0.00  0.00    -0.190 A 
ATOM     29  C   LIG    1       -0.050   3.840   0.022  0.00  0.00    +0.100 A 
BRANCH  28  30
ATOM     30  C   LIG    1        2.451   3.937   0.000  0.00  0.00    +0.510 C 
ATOM     31  F   LIG    1        2.525   4.736   1.146  0.00  0.00    -0.180 F 
ATOM     32  F   LIG    1        2.503   4.748  -1.138  0.00  0.00    -0.170 F 
ATOM     33  F   LIG    1        3.526   3.042  -0.014  0.00  0.00    -0.180 F 
ENDBRANCH  28  30
ENDBRANCH  23  24
ENDBRANCH  22  23
ENDBRANCH   6  22
TORSDOF 6
