REMARK  Name = ZINCrD000000B9qC.0
REMARK                            x       y       z     vdW  Elec       q    Type
REMARK                         _______ _______ _______ _____ _____    ______ ____
ROOT
ATOM      1  C   LIG    1       -3.541   5.168  -1.270  0.00  0.00    +0.560 C 
ATOM      2  N   LIG    1       -4.591   4.335  -1.119  0.00  0.00    -0.710 N 
ATOM      3  H   LIG    1       -5.153   4.121  -1.880  0.00  0.00    +0.410 HD
ATOM      4  O   LIG    1       -2.837   5.436  -0.316  0.00  0.00    -0.530 OA
ENDROOT
BRANCH   1  11
ATOM      5  O   LIG    1       -0.464   8.927  -6.509  0.00  0.00    -0.480 OA
ATOM      6  C   LIG    1       -1.134   8.223  -5.778  0.00  0.00    +0.640 A 
ATOM      7  N   LIG    1       -0.909   8.031  -4.463  0.00  0.00    -0.650 N 
ATOM      8  H   LIG    1       -0.194   8.425  -3.939  0.00  0.00    +0.450 HD
ATOM      9  C   LIG    1       -1.893   7.160  -3.993  0.00  0.00    +0.060 A 
ATOM     10  C   LIG    1       -2.161   6.616  -2.751  0.00  0.00    +0.110 A 
ATOM     11  C   LIG    1       -3.248   5.753  -2.593  0.00  0.00    -0.110 A 
ATOM     12  C   LIG    1       -4.060   5.450  -3.689  0.00  0.00    +0.080 A 
ATOM     13  C   LIG    1       -3.785   5.990  -4.926  0.00  0.00    +0.070 A 
ATOM     14  C   LIG    1       -2.705   6.848  -5.086  0.00  0.00    +0.060 A 
ATOM     15  O   LIG    1       -2.210   7.515  -6.156  0.00  0.00    -0.230 OA
ENDBRANCH   1  11
BRANCH   2  16
ATOM     16  C   LIG    1       -4.882   3.754   0.193  0.00  0.00    +0.290 C 
BRANCH  16  17
ATOM     17  C   LIG    1       -6.187   2.958   0.121  0.00  0.00    +0.180 C 
BRANCH  17  18
ATOM     18  C   LIG    1       -7.332   3.897  -0.159  0.00  0.00    -0.070 A 
ATOM     19  C   LIG    1       -7.828   4.018  -1.443  0.00  0.00    +0.050 A 
ATOM     20  C   LIG    1       -8.883   4.875  -1.699  0.00  0.00    +0.010 A 
ATOM     21  C   LIG    1       -9.434   5.619  -0.673  0.00  0.00    +0.020 A 
ATOM     22  C   LIG    1       -8.935   5.503   0.611  0.00  0.00    +0.020 A 
ATOM     23  C   LIG    1       -7.884   4.641   0.869  0.00  0.00    -0.030 A 
ATOM     24 CL   LIG    1       -7.257   4.494   2.481  0.00  0.00    -0.070 Cl
ENDBRANCH  17  18
BRANCH  17  25
ATOM     25  N   LIG    1       -6.095   1.964  -0.956  0.00  0.00    -0.510 NA
ATOM     26  C   LIG    1       -4.901   1.097  -0.780  0.00  0.00    +0.170 C 
ATOM     27  C   LIG    1       -5.241  -0.153  -1.629  0.00  0.00    +0.030 C 
ATOM     28  C   LIG    1       -6.758  -0.332  -1.388  0.00  0.00    +0.010 C 
ATOM     29  C   LIG    1       -7.260   1.053  -0.938  0.00  0.00    +0.170 C 
ENDBRANCH  17  25
ENDBRANCH  16  17
ENDBRANCH   2  16
TORSDOF 5
