REMARK  Name = ZINCrg000000svts.0
REMARK                            x       y       z     vdW  Elec       q    Type
REMARK                         _______ _______ _______ _____ _____    ______ ____
ROOT
ATOM      1  N   LIG    1        7.870   2.069   2.079  0.00  0.00    -0.450 N 
ATOM      2  C   LIG    1        6.849   2.142   3.133  0.00  0.00    +0.230 C 
ATOM      3  C   LIG    1        5.892   0.953   2.996  0.00  0.00    +0.310 C 
ATOM      4  N   LIG    1        5.368   0.930   1.622  0.00  0.00    -0.610 N 
ATOM      5  C   LIG    1        6.329   0.987   0.510  0.00  0.00    +0.300 C 
ATOM      6  C   LIG    1        4.043   0.854   1.388  0.00  0.00    +0.520 C 
ATOM      7  O   LIG    1        3.265   0.802   2.318  0.00  0.00    -0.520 OA
ATOM      8  C   LIG    1        7.268   2.181   0.745  0.00  0.00    +0.190 C 
ENDROOT
BRANCH   1  13
ATOM      9  C   LIG    1       11.891   4.911   1.547  0.00  0.00    +0.200 C 
ATOM     10  C   LIG    1       10.610   4.293   2.047  0.00  0.00    +0.180 A 
ATOM     11  N   LIG    1        9.938   4.655   3.103  0.00  0.00    -0.280 NA
ATOM     12  N   LIG    1        8.896   3.916   3.237  0.00  0.00    -0.320 NA
ATOM     13  C   LIG    1        8.847   3.034   2.267  0.00  0.00    +0.350 A 
ATOM     14  N   LIG    1        9.941   3.244   1.480  0.00  0.00    -0.490 N 
ATOM     15  C   LIG    1       10.320   2.501   0.275  0.00  0.00    +0.350 C 
ENDBRANCH   1  13
BRANCH   6  16
ATOM     16  C   LIG    1        3.528   0.832  -0.028  0.00  0.00    +0.230 C 
BRANCH  16  17
ATOM     17  C   LIG    1        2.023   0.744  -0.013  0.00  0.00    +0.180 A 
ATOM     18  N   LIG    1        1.193   1.749   0.000  0.00  0.00    -0.260 NA
ATOM     19  N   LIG    1       -0.016   1.308   0.009  0.00  0.00    -0.270 NA
ATOM     20  C   LIG    1        0.002  -0.004   0.002  0.00  0.00    +0.220 A 
ATOM     21  O   LIG    1        1.295  -0.386  -0.012  0.00  0.00    -0.210 OA
BRANCH  20  22
ATOM     22  C   LIG    1       -1.176  -0.897   0.009  0.00  0.00    -0.030 A 
ATOM     23  C   LIG    1       -1.006  -2.282  -0.007  0.00  0.00    +0.050 A 
ATOM     24  C   LIG    1       -2.110  -3.110   0.005  0.00  0.00    +0.010 A 
ATOM     25  C   LIG    1       -3.383  -2.570   0.020  0.00  0.00    +0.040 A 
ATOM     26  C   LIG    1       -3.559  -1.198   0.030  0.00  0.00    +0.020 A 
ATOM     27  C   LIG    1       -2.464  -0.359   0.024  0.00  0.00    +0.070 A 
ENDBRANCH  20  22
ENDBRANCH  16  17
ENDBRANCH   6  16
TORSDOF 4
