REMARK  Name = ZINCpk00000ebIj1.0
REMARK                            x       y       z     vdW  Elec       q    Type
REMARK                         _______ _______ _______ _____ _____    ______ ____
ROOT
ATOM      1  O   LIG    1        0.981   6.073   1.219  0.00  0.00    -0.520 OA
ATOM      2  C   LIG    1       -0.061   5.452   1.225  0.00  0.00    +0.550 C 
ATOM      3  N   LIG    1       -0.043   4.104   1.218  0.00  0.00    -0.600 N 
ATOM      4  C   LIG    1        1.232   3.374   1.202  0.00  0.00    +0.280 C 
ATOM      5  C   LIG    1        1.234   2.417   0.003  0.00  0.00    +0.300 C 
ATOM      6  N   LIG    1       -0.020   1.652   0.011  0.00  0.00    -0.990 NA
ATOM      7  C   LIG    1       -1.296   2.382   0.021  0.00  0.00    +0.300 C 
ATOM      8  C   LIG    1       -1.297   3.339   1.225  0.00  0.00    +0.260 C 
ENDROOT
BRANCH   6   9
ATOM      9  S   LIG    1        0.002  -0.004   0.002  0.00  0.00    +2.690 S 
ATOM     10  O   LIG    1        1.252  -0.385  -0.556  0.00  0.00    -0.930 OA
ATOM     11  O   LIG    1       -1.247  -0.419  -0.533  0.00  0.00    -0.940 OA
BRANCH   9  12
ATOM     12  C   LIG    1        0.025  -0.535   1.682  0.00  0.00    -0.670 A 
ATOM     13  C   LIG    1       -1.048  -1.235   2.200  0.00  0.00    +0.150 A 
ATOM     14  C   LIG    1       -1.028  -1.656   3.517  0.00  0.00    +0.030 A 
ATOM     15  C   LIG    1        0.059  -1.367   4.320  0.00  0.00    +0.110 A 
ATOM     16  C   LIG    1        1.132  -0.662   3.804  0.00  0.00    -0.050 A 
ATOM     17 CL   LIG    1        2.499  -0.300   4.811  0.00  0.00    -0.030 Cl
ATOM     18  C   LIG    1        1.115  -0.245   2.484  0.00  0.00    +0.050 A 
ATOM     19 CL   LIG    1        2.460   0.639   1.835  0.00  0.00    -0.020 Cl
ENDBRANCH   9  12
ENDBRANCH   6   9
BRANCH   2  20
ATOM     20  C   LIG    1       -1.376   6.188   1.241  0.00  0.00    +0.000 C 
ATOM     21  C   LIG    1       -1.762   6.971  -0.015  0.00  0.00    +0.180 C 
ATOM     22  C   LIG    1       -1.330   7.717   1.249  0.00  0.00    +0.130 C 
BRANCH  22  23
ATOM     23  N   LIG    1       -2.367   8.421   2.007  0.00  0.00    +0.010 N 
ATOM     24  O   LIG    1       -3.541   8.271   1.718  0.00  0.00    -0.160 OA
ATOM     25  O   LIG    1       -2.056   9.156   2.927  0.00  0.00    -0.150 OA
ENDBRANCH  22  23
ENDBRANCH   2  20
TORSDOF 4
