REMARK  Name = ZINCnE000005tEim.0
REMARK                            x       y       z     vdW  Elec       q    Type
REMARK                         _______ _______ _______ _____ _____    ______ ____
ROOT
ATOM      1  C   LIG    1       -1.067   2.240   3.281  0.00  0.00    -0.130 A 
ATOM      2  C   LIG    1       -0.107   1.823   2.406  0.00  0.00    +0.210 A 
ATOM      3  N   LIG    1       -0.698   1.558   1.213  0.00  0.00    -0.410 N 
ATOM      4  C   LIG    1       -2.046   1.811   1.320  0.00  0.00    +0.020 A 
ATOM      5  C   LIG    1       -0.013   1.086   0.008  0.00  0.00    +0.330 C 
ATOM      6  C   LIG    1       -2.298   2.229   2.595  0.00  0.00    +0.010 A 
ENDROOT
BRANCH   1  10
ATOM      7  C   LIG    1        1.652   3.031   7.338  0.00  0.00    +0.180 C 
ATOM      8  C   LIG    1        0.392   2.982   6.513  0.00  0.00    +0.050 A 
ATOM      9  N   LIG    1        0.336   2.619   5.278  0.00  0.00    -0.470 NA
ATOM     10  C   LIG    1       -0.854   2.633   4.698  0.00  0.00    +0.170 A 
ATOM     11  C   LIG    1       -1.854   3.041   5.503  0.00  0.00    -0.080 A 
ATOM     12  S   LIG    1       -1.164   3.401   7.083  0.00  0.00    +0.090 S 
ENDBRANCH   1  10
BRANCH   4  13
ATOM     13  C   LIG    1       -3.042   1.655   0.248  0.00  0.00    +0.530 C 
ATOM     14  O   LIG    1       -4.216   1.912   0.464  0.00  0.00    -0.550 OA
BRANCH  13  15
ATOM     15  N   LIG    1       -2.662   1.231  -0.962  0.00  0.00    -0.670 NA
ATOM     16  C   LIG    1       -3.564   1.089  -1.931  0.00  0.00    +0.340 A 
ATOM     17  N   LIG    1       -4.888   1.330  -1.856  0.00  0.00    -0.400 NA
ATOM     18  N   LIG    1       -5.620   1.109  -3.002  0.00  0.00    -0.270 NA
ATOM     19  C   LIG    1       -4.980   0.693  -4.044  0.00  0.00    +0.020 A 
ATOM     20  S   LIG    1       -3.283   0.568  -3.549  0.00  0.00    -0.070 S 
BRANCH  19  21
ATOM     21  C   LIG    1       -5.556   0.382  -5.402  0.00  0.00    +0.060 C 
ATOM     22  C   LIG    1       -6.572   1.369  -5.980  0.00  0.00    +0.040 C 
ATOM     23  C   LIG    1       -7.036   0.002  -5.471  0.00  0.00    +0.040 C 
ENDBRANCH  19  21
ENDBRANCH  13  15
ENDBRANCH   4  13
TORSDOF 4
