REMARK  Name = ZINCkj000005h8I2.0
REMARK                            x       y       z     vdW  Elec       q    Type
REMARK                         _______ _______ _______ _____ _____    ______ ____
ROOT
ATOM      1  N   LIG    1        4.134   2.702  -0.466  0.00  0.00    -0.360 N 
ATOM      2  C   LIG    1        3.364   1.550  -0.834  0.00  0.00    +0.240 C 
ATOM      3  C   LIG    1        2.184   1.315   0.072  0.00  0.00    +0.120 C 
ATOM      4  C   LIG    1        1.145   2.417  -0.025  0.00  0.00    -0.100 A 
ATOM      5  C   LIG    1       -0.157   1.878   0.022  0.00  0.00    +0.010 A 
ATOM      6  C   LIG    1       -1.271   2.675  -0.052  0.00  0.00    +0.030 A 
ATOM      7  C   LIG    1       -1.111   4.044  -0.167  0.00  0.00    +0.030 A 
ATOM      8  C   LIG    1        0.159   4.563  -0.213  0.00  0.00    +0.010 A 
ATOM      9  C   LIG    1        1.300   3.739  -0.141  0.00  0.00    -0.090 A 
ATOM     10  C   LIG    1        2.567   4.571  -0.214  0.00  0.00    +0.120 C 
ATOM     11  C   LIG    1        3.642   3.918  -1.041  0.00  0.00    +0.240 C 
ATOM     12  H   LIG    1        4.124   2.791   0.539  0.00  0.00    +0.420 HD
ENDROOT
BRANCH   1  13
ATOM     13  C   LIG    1        5.522   2.500  -0.905  0.00  0.00    +0.280 C 
BRANCH  13  14
ATOM     14  C   LIG    1        5.554   2.303  -2.422  0.00  0.00    +0.060 C 
BRANCH  14  15
ATOM     15  C   LIG    1        7.006   2.197  -2.892  0.00  0.00    -0.360 C 
BRANCH  15  16
ATOM     16  S   LIG    1        7.044   1.963  -4.690  0.00  0.00    +2.610 S 
ATOM     17  O   LIG    1        6.603   3.138  -5.355  0.00  0.00    -0.940 OA
ATOM     18  O   LIG    1        6.526   0.686  -5.038  0.00  0.00    -0.940 OA
BRANCH  16  20
ATOM     19  C   LIG    1        9.329   0.564  -5.061  0.00  0.00    +0.310 C 
ATOM     20  N   LIG    1        8.655   1.865  -5.060  0.00  0.00    -1.000 NA
ATOM     21  C   LIG    1        9.407   3.079  -5.386  0.00  0.00    +0.310 C 
ENDBRANCH  16  20
ENDBRANCH  15  16
ENDBRANCH  14  15
ENDBRANCH  13  14
ENDBRANCH   1  13
TORSDOF 5
