REMARK  Name = ZINCrg00001Jdv3f.0
REMARK                            x       y       z     vdW  Elec       q    Type
REMARK                         _______ _______ _______ _____ _____    ______ ____
ROOT
ATOM      1  N   LIG    1        1.003   5.759  -0.944  0.00  0.00    -0.720 N 
ATOM      2  H   LIG    1        0.064   5.737  -1.188  0.00  0.00    +0.410 HD
ATOM      3  C   LIG    1        1.821   6.679  -1.493  0.00  0.00    +0.580 C 
ATOM      4  O   LIG    1        2.997   6.706  -1.187  0.00  0.00    -0.530 OA
ENDROOT
BRANCH   3   5
ATOM      5  C   LIG    1        1.288   7.654  -2.464  0.00  0.00    -0.200 A 
ATOM      6  C   LIG    1       -0.060   7.631  -2.821  0.00  0.00    +0.330 A 
ATOM      7  N   LIG    1       -0.545   8.499  -3.686  0.00  0.00    -0.500 NA
ATOM      8  C   LIG    1        0.219   9.420  -4.250  0.00  0.00    +0.400 A 
ATOM      9  N   LIG    1       -0.315  10.330  -5.156  0.00  0.00    -0.720 N 
ATOM     10  H   LIG    1       -1.071  10.092  -5.715  0.00  0.00    +0.420 HD
ATOM     11  C   LIG    1        0.301  11.662  -5.242  0.00  0.00    +0.350 C 
ATOM     12  C   LIG    1        1.801  11.515  -5.209  0.00  0.00    +0.510 C 
ATOM     13  N   LIG    1        2.374  10.483  -4.560  0.00  0.00    -0.650 N 
ATOM     14  H   LIG    1        3.341  10.419  -4.517  0.00  0.00    +0.420 HD
ATOM     15  O   LIG    1        2.497  12.333  -5.773  0.00  0.00    -0.510 OA
ATOM     16  C   LIG    1        1.584   9.505  -3.945  0.00  0.00    +0.050 A 
ATOM     17  C   LIG    1        2.131   8.620  -3.037  0.00  0.00    +0.140 A 
ENDBRANCH   3   5
BRANCH   1  18
ATOM     18  C   LIG    1        1.531   4.791   0.020  0.00  0.00    +0.350 C 
ATOM     19  C   LIG    1        1.530   5.412   1.419  0.00  0.00    +0.060 C 
BRANCH  18  25
ATOM     20  C   LIG    1        0.002  -0.004   0.002  0.00  0.00    +0.270 C 
ATOM     21  C   LIG    1        1.415  -0.465   0.385  0.00  0.00    +0.060 C 
ATOM     22  C   LIG    1        2.442   0.303  -0.453  0.00  0.00    +0.060 C 
ATOM     23  C   LIG    1        2.467   1.772  -0.016  0.00  0.00    +0.290 C 
ATOM     24  N   LIG    1        1.095   2.279   0.004  0.00  0.00    -0.460 N 
ATOM     25  C   LIG    1        0.667   3.556   0.018  0.00  0.00    +0.170 A 
ATOM     26  N   LIG    1       -0.641   3.523   0.030  0.00  0.00    -0.280 NA
ATOM     27  N   LIG    1       -1.045   2.299   0.030  0.00  0.00    -0.270 NA
ATOM     28  C   LIG    1       -0.018   1.504   0.010  0.00  0.00    +0.160 A 
BRANCH  20  30
ATOM     29  C   LIG    1       -2.249  -0.716   0.414  0.00  0.00    +0.210 C 
ATOM     30  O   LIG    1       -0.942  -0.505   0.951  0.00  0.00    -0.360 OA
ENDBRANCH  20  30
ENDBRANCH  18  25
ENDBRANCH   1  18
TORSDOF 4
