REMARK  Name = ZINCnE000001Shrz.1
REMARK                            x       y       z     vdW  Elec       q    Type
REMARK                         _______ _______ _______ _____ _____    ______ ____
ROOT
ATOM      1  O   LIG    1        2.214   6.305   0.602  0.00  0.00    -0.550 OA
ATOM      2  C   LIG    1        2.043   5.685   1.630  0.00  0.00    +0.520 C 
ATOM      3  N   LIG    1        1.656   6.328   2.749  0.00  0.00    -0.710 N 
ATOM      4  H   LIG    1        1.519   5.832   3.571  0.00  0.00    +0.420 HD
ENDROOT
BRANCH   3   5
ATOM      5  C   LIG    1        1.443   7.777   2.724  0.00  0.00    +0.380 C 
BRANCH   5   6
ATOM      6  C   LIG    1        1.019   8.246   4.092  0.00  0.00    +0.160 A 
ATOM      7  N   LIG    1        0.859   7.492   5.131  0.00  0.00    -0.330 NA
ATOM      8  N   LIG    1        0.464   8.303   6.204  0.00  0.00    -0.380 NA
ATOM      9  C   LIG    1        0.391   9.569   5.743  0.00  0.00    +0.380 A 
ATOM     10  S   LIG    1       -0.053  10.953   6.648  0.00  0.00    -0.760 S 
ATOM     11  N   LIG    1        0.733   9.544   4.439  0.00  0.00    -0.470 N 
BRANCH  11  12
ATOM     12  C   LIG    1        0.789  10.703   3.545  0.00  0.00    +0.170 C 
ATOM     13  C   LIG    1        0.808  12.091   4.187  0.00  0.00    +0.060 C 
ATOM     14  C   LIG    1       -0.450  11.598   3.469  0.00  0.00    +0.020 C 
ENDBRANCH  11  12
ENDBRANCH   5   6
ENDBRANCH   3   5
BRANCH   2  15
ATOM     15  C   LIG    1        2.262   4.194   1.656  0.00  0.00    +0.070 C 
BRANCH  15  16
ATOM     16  C   LIG    1        2.692   3.718   0.267  0.00  0.00    +0.110 C 
BRANCH  16  17
ATOM     17  C   LIG    1        2.912   2.227   0.292  0.00  0.00    -0.060 A 
ATOM     18  C   LIG    1        4.180   1.719   0.497  0.00  0.00    +0.040 A 
ATOM     19  C   LIG    1        4.383   0.351   0.521  0.00  0.00    +0.040 A 
ATOM     20  C   LIG    1        3.316  -0.509   0.339  0.00  0.00    +0.030 A 
ATOM     21  C   LIG    1        2.046  -0.002   0.134  0.00  0.00    -0.030 A 
ATOM     22 CL   LIG    1        0.706  -1.082  -0.096  0.00  0.00    -0.050 Cl
ATOM     23  C   LIG    1        1.843   1.367   0.110  0.00  0.00    -0.030 A 
ATOM     24 CL   LIG    1        0.251   2.006  -0.155  0.00  0.00    -0.040 Cl
ENDBRANCH  16  17
ENDBRANCH  15  16
ENDBRANCH   2  15
TORSDOF 6
