REMARK  Name = ZINCrH00000No4BM.0
REMARK                            x       y       z     vdW  Elec       q    Type
REMARK                         _______ _______ _______ _____ _____    ______ ____
ROOT
ATOM      1  O   LIG    1       -1.221  -2.317   0.205  0.00  0.00    -0.530 OA
ATOM      2  C   LIG    1       -2.200  -3.041   0.164  0.00  0.00    +0.560 C 
ATOM      3  N   LIG    1       -2.047  -4.378   0.101  0.00  0.00    -0.600 N 
ENDROOT
BRANCH   3   4
ATOM      4  C   LIG    1       -0.709  -4.968   0.195  0.00  0.00    +0.270 C 
ATOM      5  C   LIG    1        0.158  -4.472  -0.976  0.00  0.00    +0.070 C 
ATOM      6  C   LIG    1        1.621  -4.857  -0.640  0.00  0.00    -0.300 C 
ATOM      7  S   LIG    1        1.744  -4.434   1.139  0.00  0.00    +2.400 S 
ATOM      8  O   LIG    1        2.429  -5.473   1.824  0.00  0.00    -0.940 OA
ATOM      9  O   LIG    1        2.178  -3.088   1.274  0.00  0.00    -0.920 OA
ATOM     10  C   LIG    1       -0.043  -4.536   1.517  0.00  0.00    -0.320 C 
ENDBRANCH   3   4
BRANCH   2  11
ATOM     11  C   LIG    1       -3.500  -2.476   0.183  0.00  0.00    -0.080 C 
ATOM     12  C   LIG    1       -3.657  -1.142   0.356  0.00  0.00    +0.190 C 
BRANCH  12  13
ATOM     13  C   LIG    1       -4.997  -0.560   0.375  0.00  0.00    +0.030 A 
ATOM     14  C   LIG    1       -5.276   0.764   0.541  0.00  0.00    +0.020 A 
ATOM     15  C   LIG    1       -6.732   0.879   0.491  0.00  0.00    -0.140 A 
ATOM     16  C   LIG    1       -7.628   1.946   0.596  0.00  0.00    +0.070 A 
ATOM     17  C   LIG    1       -8.972   1.714   0.505  0.00  0.00    -0.010 A 
ATOM     18  C   LIG    1       -9.451   0.426   0.311  0.00  0.00    +0.060 A 
ATOM     19  C   LIG    1       -8.583  -0.640   0.204  0.00  0.00    +0.020 A 
ATOM     20  C   LIG    1       -7.213  -0.429   0.294  0.00  0.00    +0.070 A 
ATOM     21  O   LIG    1       -6.147  -1.252   0.231  0.00  0.00    -0.190 OA
ENDBRANCH  12  13
ENDBRANCH   2  11
BRANCH   3  22
ATOM     22  C   LIG    1       -3.218  -5.243  -0.061  0.00  0.00    +0.390 C 
BRANCH  22  23
ATOM     23  C   LIG    1       -3.485  -5.457  -1.529  0.00  0.00    -0.220 A 
ATOM     24  C   LIG    1       -2.971  -6.441  -2.268  0.00  0.00    +0.030 A 
ATOM     25  C   LIG    1       -3.361  -6.438  -3.596  0.00  0.00    +0.000 A 
ATOM     26  C   LIG    1       -4.186  -5.447  -3.937  0.00  0.00    -0.030 A 
ATOM     27  S   LIG    1       -4.516  -4.444  -2.531  0.00  0.00    +0.120 S 
ENDBRANCH  22  23
ENDBRANCH   3  22
TORSDOF 5
