REMARK  Name = ZINCrH000004rKRt.0
REMARK                            x       y       z     vdW  Elec       q    Type
REMARK                         _______ _______ _______ _____ _____    ______ ____
ROOT
ATOM      1  C   LIG    1       -4.663  -3.455   1.106  0.00  0.00    +0.550 C 
ATOM      2  N   LIG    1       -4.378  -2.934  -0.104  0.00  0.00    -0.600 N 
ATOM      3  C   LIG    1       -3.200  -3.373  -0.867  0.00  0.00    +0.300 C 
ATOM      4  C   LIG    1       -2.520  -2.171  -1.460  0.00  0.00    -0.060 C 
ATOM      5  C   LIG    1       -3.051  -0.968  -1.467  0.00  0.00    -0.010 C 
ATOM      6  C   LIG    1       -4.392  -0.632  -0.884  0.00  0.00    +0.070 C 
ATOM      7  C   LIG    1       -5.232  -1.901  -0.714  0.00  0.00    +0.290 C 
ATOM      8  O   LIG    1       -5.707  -3.170   1.660  0.00  0.00    -0.510 OA
ENDROOT
BRANCH   5   9
ATOM      9  C   LIG    1       -2.282   0.121  -2.094  0.00  0.00    -0.200 A 
ATOM     10  C   LIG    1       -1.941   0.252  -3.432  0.00  0.00    +0.250 A 
ATOM     11  N   LIG    1       -1.244   1.369  -3.607  0.00  0.00    -0.550 NA
ATOM     12  C   LIG    1       -1.071   2.033  -2.475  0.00  0.00    +0.260 A 
ATOM     13  N   LIG    1       -0.434   3.207  -2.162  0.00  0.00    -0.500 N 
ATOM     14  H   LIG    1        0.005   3.716  -2.861  0.00  0.00    +0.430 HD
ATOM     15  C   LIG    1       -0.413   3.660  -0.898  0.00  0.00    +0.330 A 
ATOM     16  C   LIG    1       -1.014   2.982   0.117  0.00  0.00    -0.070 A 
ATOM     17  C   LIG    1       -1.676   1.784  -0.136  0.00  0.00    +0.180 A 
ATOM     18  C   LIG    1       -1.704   1.298  -1.437  0.00  0.00    -0.150 A 
ENDBRANCH   5   9
BRANCH   1  24
ATOM     19  C   LIG    1       -3.778  -7.413   4.013  0.00  0.00    +0.110 C 
ATOM     20  C   LIG    1       -3.276  -6.279   3.157  0.00  0.00    -0.040 A 
ATOM     21  C   LIG    1       -1.916  -6.096   2.982  0.00  0.00    +0.060 A 
ATOM     22  C   LIG    1       -1.446  -5.057   2.199  0.00  0.00    +0.070 A 
ATOM     23  C   LIG    1       -2.333  -4.195   1.587  0.00  0.00    +0.070 A 
ATOM     24  C   LIG    1       -3.707  -4.374   1.759  0.00  0.00    -0.080 A 
ATOM     25  C   LIG    1       -4.173  -5.421   2.555  0.00  0.00    +0.020 A 
BRANCH  25  26
ATOM     26  N   LIG    1       -5.628  -5.615   2.748  0.00  0.00    +0.020 N 
ATOM     27  O   LIG    1       -6.198  -5.064   3.674  0.00  0.00    -0.110 OA
ATOM     28  O   LIG    1       -6.255  -6.324   1.983  0.00  0.00    -0.150 OA
ENDBRANCH  25  26
ENDBRANCH   1  24
TORSDOF 3
