REMARK  Name = ZINCrH000004rKRt.1
REMARK                            x       y       z     vdW  Elec       q    Type
REMARK                         _______ _______ _______ _____ _____    ______ ____
ROOT
ATOM      1  C   LIG    1        1.603  -1.480  -1.136  0.00  0.00    +0.550 C 
ATOM      2  N   LIG    1        1.383  -0.602  -0.138  0.00  0.00    -0.600 N 
ATOM      3  C   LIG    1        0.021  -0.278   0.309  0.00  0.00    +0.320 C 
ATOM      4  C   LIG    1       -0.090   1.207   0.517  0.00  0.00    -0.050 C 
ATOM      5  C   LIG    1        0.944   2.016   0.521  0.00  0.00    -0.020 C 
ATOM      6  C   LIG    1        2.362   1.578   0.306  0.00  0.00    +0.070 C 
ATOM      7  C   LIG    1        2.499   0.072   0.549  0.00  0.00    +0.290 C 
ATOM      8  O   LIG    1        2.732  -1.661  -1.549  0.00  0.00    -0.510 OA
ENDROOT
BRANCH   5   9
ATOM      9  C   LIG    1        0.695   3.452   0.755  0.00  0.00    -0.140 A 
ATOM     10  C   LIG    1        0.945   4.145   1.895  0.00  0.00    +0.260 A 
ATOM     11  N   LIG    1        0.583   5.451   1.729  0.00  0.00    -0.580 N 
ATOM     12  H   LIG    1        0.667   6.139   2.407  0.00  0.00    +0.420 HD
ATOM     13  C   LIG    1        0.080   5.651   0.465  0.00  0.00    +0.280 A 
ATOM     14  N   LIG    1       -0.393   6.720  -0.161  0.00  0.00    -0.500 NA
ATOM     15  C   LIG    1       -0.827   6.659  -1.403  0.00  0.00    +0.300 A 
ATOM     16  C   LIG    1       -0.810   5.473  -2.119  0.00  0.00    -0.060 A 
ATOM     17  C   LIG    1       -0.327   4.325  -1.518  0.00  0.00    +0.100 A 
ATOM     18  C   LIG    1        0.131   4.415  -0.205  0.00  0.00    -0.140 A 
ENDBRANCH   5   9
BRANCH   1  24
ATOM     19  C   LIG    1       -0.823  -3.163  -5.160  0.00  0.00    +0.110 C 
ATOM     20  C   LIG    1       -0.700  -3.035  -3.663  0.00  0.00    -0.040 A 
ATOM     21  C   LIG    1       -1.649  -3.615  -2.841  0.00  0.00    +0.060 A 
ATOM     22  C   LIG    1       -1.544  -3.503  -1.466  0.00  0.00    +0.070 A 
ATOM     23  C   LIG    1       -0.490  -2.811  -0.906  0.00  0.00    +0.060 A 
ATOM     24  C   LIG    1        0.471  -2.223  -1.730  0.00  0.00    -0.080 A 
ATOM     25  C   LIG    1        0.356  -2.336  -3.116  0.00  0.00    +0.020 A 
BRANCH  25  26
ATOM     26  N   LIG    1        1.368  -1.710  -3.997  0.00  0.00    +0.020 N 
ATOM     27  O   LIG    1        1.214  -0.566  -4.384  0.00  0.00    -0.150 OA
ATOM     28  O   LIG    1        2.354  -2.340  -4.335  0.00  0.00    -0.110 OA
ENDBRANCH  25  26
ENDBRANCH   1  24
TORSDOF 3
