REMARK  Name = ZINCrg00000fRmft.0
REMARK                            x       y       z     vdW  Elec       q    Type
REMARK                         _______ _______ _______ _____ _____    ______ ____
ROOT
ATOM      1  C   LIG    1       -8.659   4.631   1.718  0.00  0.00    +0.660 C 
ATOM      2  N   LIG    1       -7.331   4.622   1.488  0.00  0.00    -0.600 N 
ATOM      3  C   LIG    1       -6.363   4.693   2.594  0.00  0.00    +0.330 C 
ATOM      4  C   LIG    1       -5.576   3.384   2.626  0.00  0.00    +0.130 C 
ATOM      5  C   LIG    1       -5.085   3.024   1.248  0.00  0.00    +0.080 A 
ATOM      6  N   LIG    1       -4.083   2.182   1.152  0.00  0.00    -0.210 NA
ATOM      7  N   LIG    1       -3.608   1.789   0.029  0.00  0.00    -0.320 N 
ATOM      8  C   LIG    1       -4.115   2.220  -1.143  0.00  0.00    +0.490 A 
ATOM      9  C   LIG    1       -5.189   3.134  -1.128  0.00  0.00    -0.010 A 
ATOM     10  O   LIG    1       -3.654   1.822  -2.201  0.00  0.00    -0.530 OA
ATOM     11  C   LIG    1       -5.667   3.542   0.088  0.00  0.00    -0.040 A 
ATOM     12  C   LIG    1       -6.795   4.539   0.124  0.00  0.00    +0.370 C 
ATOM     13  O   LIG    1       -9.077   4.700   2.857  0.00  0.00    -0.560 OA
ENDROOT
BRANCH   1  14
ATOM     14  O   LIG    1       -9.521   4.564   0.686  0.00  0.00    -0.370 OA
BRANCH  14  16
ATOM     15  C   LIG    1      -11.755   4.496  -0.281  0.00  0.00    +0.070 C 
ATOM     16  C   LIG    1      -10.937   4.579   1.009  0.00  0.00    +0.220 C 
ENDBRANCH  14  16
ENDBRANCH   1  14
BRANCH   7  17
ATOM     17  C   LIG    1       -2.482   0.853   0.018  0.00  0.00    +0.360 C 
BRANCH  17  18
ATOM     18  C   LIG    1       -1.187   1.624   0.017  0.00  0.00    +0.510 C 
ATOM     19  N   LIG    1       -0.011   0.966   0.007  0.00  0.00    -0.720 N 
ATOM     20  H   LIG    1        0.002  -0.004   0.002  0.00  0.00    +0.400 HD
ATOM     21  O   LIG    1       -1.204   2.837   0.023  0.00  0.00    -0.520 OA
BRANCH  19  22
ATOM     22  C   LIG    1        1.248   1.716  -0.001  0.00  0.00    +0.320 C 
BRANCH  22  23
ATOM     23  C   LIG    1        2.406   0.752  -0.017  0.00  0.00    -0.110 A 
ATOM     24  C   LIG    1        2.953   0.308   1.173  0.00  0.00    +0.020 A 
ATOM     25  C   LIG    1        4.012  -0.580   1.158  0.00  0.00    +0.010 A 
ATOM     26  C   LIG    1        4.532  -1.015  -0.047  0.00  0.00    +0.010 A 
ATOM     27  C   LIG    1        3.989  -0.567  -1.236  0.00  0.00    +0.010 A 
ATOM     28  C   LIG    1        2.926   0.316  -1.221  0.00  0.00    +0.020 A 
ENDBRANCH  22  23
ENDBRANCH  19  22
ENDBRANCH  17  18
ENDBRANCH   7  17
TORSDOF 6
