REMARK  Name = ZINCvU000000060P.0
REMARK                            x       y       z     vdW  Elec       q    Type
REMARK                         _______ _______ _______ _____ _____    ______ ____
ROOT
ATOM      1  S   LIG    1       -2.124   7.500   0.031  0.00  0.00    +0.120 S 
ENDROOT
BRANCH   1   5
ATOM      2  C   LIG    1       -0.005   4.250   0.013  0.00  0.00    +0.230 A 
ATOM      3  N   LIG    1       -1.227   3.775   0.022  0.00  0.00    -0.250 NA
ATOM      4  N   LIG    1       -2.065   4.751   0.029  0.00  0.00    -0.290 NA
ATOM      5  C   LIG    1       -1.411   5.889   0.025  0.00  0.00    +0.110 A 
ATOM      6  O   LIG    1       -0.096   5.599   0.021  0.00  0.00    -0.200 OA
BRANCH   2  10
ATOM      7  C   LIG    1        3.583   1.970  -0.021  0.00  0.00    +0.200 A 
ATOM      8  C   LIG    1        3.641   3.358  -0.015  0.00  0.00    -0.110 A 
ATOM      9  C   LIG    1        2.480   4.101   0.000  0.00  0.00    +0.140 A 
ATOM     10  C   LIG    1        1.241   3.458   0.003  0.00  0.00    -0.100 A 
ATOM     11  C   LIG    1        1.184   2.058   0.002  0.00  0.00    +0.220 A 
ATOM     12  C   LIG    1        2.356   1.322  -0.013  0.00  0.00    -0.100 A 
BRANCH   7  14
ATOM     13  C   LIG    1        5.960   1.975  -0.045  0.00  0.00    +0.250 C 
ATOM     14  O   LIG    1        4.732   1.245  -0.037  0.00  0.00    -0.310 OA
ENDBRANCH   7  14
BRANCH  11  15
ATOM     15  O   LIG    1       -0.017   1.425   0.010  0.00  0.00    -0.280 OA
ATOM     16  C   LIG    1        0.002  -0.004   0.002  0.00  0.00    +0.250 C 
ENDBRANCH  11  15
ENDBRANCH   2  10
ENDBRANCH   1   5
BRANCH   1  17
ATOM     17  C   LIG    1       -3.881   7.067   0.044  0.00  0.00    +0.100 C 
BRANCH  17  18
ATOM     18  C   LIG    1       -4.709   8.326   0.051  0.00  0.00    +0.420 C 
ATOM     19  O   LIG    1       -4.164   9.410   0.048  0.00  0.00    -0.440 OA
BRANCH  18  20
ATOM     20  C   LIG    1       -6.178   8.241   0.062  0.00  0.00    -0.170 A 
ATOM     21  C   LIG    1       -6.810   6.994   0.061  0.00  0.00    +0.060 A 
ATOM     22  C   LIG    1       -8.187   6.922   0.078  0.00  0.00    +0.000 A 
ATOM     23  C   LIG    1       -8.943   8.081   0.084  0.00  0.00    -0.040 A 
ATOM     24  C   LIG    1       -8.325   9.320   0.079  0.00  0.00    +0.000 A 
ATOM     25  C   LIG    1       -6.949   9.408   0.069  0.00  0.00    +0.090 A 
BRANCH  23  26
ATOM     26  C   LIG    1      -10.448   7.994   0.097  0.00  0.00    +0.030 C 
ATOM     27  C   LIG    1      -10.905   7.244   1.349  0.00  0.00    +0.020 C 
ATOM     28  C   LIG    1      -12.432   7.155   1.362  0.00  0.00    +0.000 C 
ATOM     29  C   LIG    1      -12.910   6.406   0.116  0.00  0.00    +0.000 C 
ATOM     30  C   LIG    1      -12.453   7.156  -1.136  0.00  0.00    +0.000 C 
ATOM     31  C   LIG    1      -10.925   7.245  -1.149  0.00  0.00    +0.020 C 
ENDBRANCH  23  26
ENDBRANCH  18  20
ENDBRANCH  17  18
ENDBRANCH   1  17
TORSDOF 8
