REMARK  Name = ZINCvU00000008Wd.0
REMARK                            x       y       z     vdW  Elec       q    Type
REMARK                         _______ _______ _______ _____ _____    ______ ____
ROOT
ATOM      1  C   LIG    1        5.917   2.702  -0.349  0.00  0.00    +0.010 A 
ATOM      2  N   LIG    1        4.982   3.595  -0.254  0.00  0.00    -0.250 NA
ATOM      3  N   LIG    1        3.701   3.104  -0.132  0.00  0.00    -0.330 NA
ATOM      4  C   LIG    1        3.593   1.813  -0.127  0.00  0.00    +0.300 A 
ATOM      5  S   LIG    1        5.195   1.098  -0.278  0.00  0.00    +0.110 S 
ENDROOT
BRANCH   4   6
ATOM      6  N   LIG    1        2.402   1.104  -0.015  0.00  0.00    -0.620 N 
ATOM      7  H   LIG    1        2.419   0.138   0.066  0.00  0.00    +0.430 HD
BRANCH   6   8
ATOM      8  C   LIG    1        1.180   1.785  -0.017  0.00  0.00    +0.140 A 
ATOM      9  C   LIG    1        1.053   2.982  -0.711  0.00  0.00    +0.070 A 
ATOM     10  C   LIG    1       -0.153   3.656  -0.708  0.00  0.00    -0.020 A 
ATOM     11  C   LIG    1       -1.239   3.133  -0.024  0.00  0.00    +0.090 A 
ATOM     12  C   LIG    1       -1.113   1.937   0.669  0.00  0.00    +0.050 A 
ATOM     13  C   LIG    1        0.093   1.265   0.673  0.00  0.00    +0.030 A 
BRANCH  11  14
ATOM     14  O   LIG    1       -2.428   3.794  -0.027  0.00  0.00    -0.310 OA
BRANCH  14  15
ATOM     15  C   LIG    1       -2.486   5.019  -0.761  0.00  0.00    +0.600 C 
ATOM     16  F   LIG    1       -1.555   5.922  -0.236  0.00  0.00    -0.160 F 
ATOM     17  F   LIG    1       -3.771   5.562  -0.659  0.00  0.00    -0.130 F 
ATOM     18  F   LIG    1       -2.190   4.771  -2.106  0.00  0.00    -0.160 F 
ENDBRANCH  14  15
ENDBRANCH  11  14
ENDBRANCH   6   8
ENDBRANCH   4   6
BRANCH   1  19
ATOM     19  S   LIG    1        7.639   3.040  -0.514  0.00  0.00    +0.070 S 
BRANCH  19  20
ATOM     20  C   LIG    1        7.701   4.853  -0.512  0.00  0.00    +0.260 C 
BRANCH  20  24
ATOM     21  C   LIG    1       11.014   5.924  -1.403  0.00  0.00    +0.220 A 
ATOM     22  N   LIG    1       11.060   5.892  -0.097  0.00  0.00    -0.360 NA
ATOM     23  O   LIG    1        9.989   5.540   0.350  0.00  0.00    +0.090 OA
ATOM     24  C   LIG    1        9.131   5.306  -0.649  0.00  0.00    +0.190 A 
ATOM     25  N   LIG    1        9.770   5.541  -1.768  0.00  0.00    -0.450 NA
BRANCH  21  32
ATOM     26  C   LIG    1       13.578   6.691  -0.304  0.00  0.00    +0.110 C 
ATOM     27  C   LIG    1       13.360   6.675  -1.795  0.00  0.00    -0.050 A 
ATOM     28  C   LIG    1       14.386   7.027  -2.647  0.00  0.00    +0.000 A 
ATOM     29  C   LIG    1       14.187   7.013  -4.016  0.00  0.00    +0.040 A 
ATOM     30  C   LIG    1       12.960   6.646  -4.538  0.00  0.00    +0.000 A 
ATOM     31  C   LIG    1       11.928   6.287  -3.695  0.00  0.00    +0.070 A 
ATOM     32  C   LIG    1       12.121   6.304  -2.315  0.00  0.00    -0.040 A 
ENDBRANCH  21  32
ENDBRANCH  20  24
ENDBRANCH  19  20
ENDBRANCH   1  19
TORSDOF 8
