REMARK  Name = ZINCrD00000sfots.1
REMARK                            x       y       z     vdW  Elec       q    Type
REMARK                         _______ _______ _______ _____ _____    ______ ____
ROOT
ATOM      1  C   LIG    1       -0.481   1.909   3.633  0.00  0.00    +0.150 A 
ATOM      2  C   LIG    1       -1.671   2.611   3.704  0.00  0.00    -0.080 A 
ATOM      3  C   LIG    1       -2.183   2.983   4.949  0.00  0.00    +0.150 A 
ATOM      4  C   LIG    1       -1.488   2.645   6.114  0.00  0.00    +0.050 A 
ATOM      5  C   LIG    1       -0.302   1.945   6.029  0.00  0.00    -0.130 A 
ATOM      6  C   LIG    1        0.199   1.572   4.796  0.00  0.00    +0.040 A 
ENDROOT
BRANCH   3   7
ATOM      7  N   LIG    1       -3.358   3.677   5.029  0.00  0.00    -0.520 NA
ATOM      8  C   LIG    1       -3.578   4.697   4.220  0.00  0.00    +0.430 A 
ATOM      9  C   LIG    1       -2.577   5.106   3.228  0.00  0.00    -0.050 A 
ATOM     10  C   LIG    1       -2.967   5.816   2.142  0.00  0.00    +0.360 A 
ATOM     11  N   LIG    1       -4.306   6.135   2.036  0.00  0.00    -0.340 N 
ATOM     12  N   LIG    1       -5.013   6.668   0.966  0.00  0.00    -0.270 NA
ATOM     13  C   LIG    1       -6.268   6.813   1.310  0.00  0.00    +0.360 A 
ATOM     14  C   LIG    1       -6.423   6.367   2.646  0.00  0.00    -0.190 A 
ATOM     15  C   LIG    1       -5.182   5.948   3.074  0.00  0.00    +0.390 A 
ATOM     16  N   LIG    1       -4.771   5.417   4.278  0.00  0.00    -0.610 N 
ATOM     17  H   LIG    1       -5.272   5.537   5.100  0.00  0.00    +0.450 HD
BRANCH  14  18
ATOM     18  C   LIG    1       -7.637   6.354   3.405  0.00  0.00    +0.280 C 
ATOM     19  N   LIG    1       -8.600   6.344   4.007  0.00  0.00    -0.410 NA
ENDBRANCH  14  18
ENDBRANCH   3   7
BRANCH   5  20
ATOM     20  C   LIG    1        0.445   1.580   7.286  0.00  0.00    +0.510 C 
ATOM     21  F   LIG    1        1.719   2.158   7.254  0.00  0.00    -0.170 F 
ATOM     22  F   LIG    1        0.566   0.189   7.370  0.00  0.00    -0.170 F 
ATOM     23  F   LIG    1       -0.255   2.056   8.400  0.00  0.00    -0.170 F 
ENDBRANCH   5  20
BRANCH   1  24
ATOM     24  O   LIG    1        0.021   1.544   2.423  0.00  0.00    -0.300 OA
BRANCH  24  25
ATOM     25  C   LIG    1       -0.733   1.918   1.269  0.00  0.00    +0.210 C 
BRANCH  25  26
ATOM     26  C   LIG    1       -0.017   1.425   0.010  0.00  0.00    +0.190 C 
BRANCH  26  28
ATOM     27  C   LIG    1        0.652  -0.570  -1.138  0.00  0.00    +0.200 C 
ATOM     28  O   LIG    1        0.002  -0.004   0.002  0.00  0.00    -0.390 OA
ENDBRANCH  26  28
ENDBRANCH  25  26
ENDBRANCH  24  25
ENDBRANCH   1  24
TORSDOF 7
