REMARK  Name = ZINCrD00000sfots.0
REMARK                            x       y       z     vdW  Elec       q    Type
REMARK                         _______ _______ _______ _____ _____    ______ ____
ROOT
ATOM      1  C   LIG    1       -0.386   1.957   3.938  0.00  0.00    +0.160 A 
ATOM      2  C   LIG    1       -1.700   2.394   3.884  0.00  0.00    -0.060 A 
ATOM      3  C   LIG    1       -2.359   2.750   5.053  0.00  0.00    +0.190 A 
ATOM      4  C   LIG    1       -1.699   2.668   6.272  0.00  0.00    +0.050 A 
ATOM      5  C   LIG    1       -0.389   2.231   6.322  0.00  0.00    -0.120 A 
ATOM      6  C   LIG    1        0.266   1.871   5.160  0.00  0.00    +0.040 A 
ENDROOT
BRANCH   5   7
ATOM      7  C   LIG    1        0.324   2.142   7.646  0.00  0.00    +0.510 C 
ATOM      8  F   LIG    1       -0.184   3.113   8.516  0.00  0.00    -0.170 F 
ATOM      9  F   LIG    1        1.693   2.358   7.454  0.00  0.00    -0.170 F 
ATOM     10  F   LIG    1        0.125   0.872   8.199  0.00  0.00    -0.170 F 
ENDBRANCH   5   7
BRANCH   3  11
ATOM     11  N   LIG    1       -3.684   3.191   5.002  0.00  0.00    -0.630 N 
ATOM     12  H   LIG    1       -3.986   3.739   4.261  0.00  0.00    +0.430 HD
BRANCH  11  13
ATOM     13  C   LIG    1       -4.567   2.845   6.010  0.00  0.00    +0.460 A 
ATOM     14  N   LIG    1       -4.190   2.007   6.961  0.00  0.00    -0.530 NA
ATOM     15  C   LIG    1       -5.027   1.669   7.942  0.00  0.00    +0.360 A 
ATOM     16  C   LIG    1       -4.889   0.821   9.058  0.00  0.00    -0.200 A 
ATOM     17  C   LIG    1       -6.117   0.846   9.746  0.00  0.00    +0.370 A 
ATOM     18  N   LIG    1       -6.938   1.639   9.110  0.00  0.00    -0.310 NA
ATOM     19  N   LIG    1       -6.299   2.169   7.984  0.00  0.00    -0.330 N 
ATOM     20  C   LIG    1       -6.722   3.033   7.013  0.00  0.00    +0.400 A 
ATOM     21  C   LIG    1       -5.871   3.381   6.021  0.00  0.00    -0.070 A 
BRANCH  16  22
ATOM     22  C   LIG    1       -3.722   0.076   9.424  0.00  0.00    +0.290 C 
ATOM     23  N   LIG    1       -2.796  -0.514   9.714  0.00  0.00    -0.420 NA
ENDBRANCH  16  22
ENDBRANCH  11  13
ENDBRANCH   3  11
BRANCH   1  24
ATOM     24  O   LIG    1        0.262   1.608   2.795  0.00  0.00    -0.300 OA
BRANCH  24  25
ATOM     25  C   LIG    1       -0.433   1.819   1.565  0.00  0.00    +0.210 C 
BRANCH  25  26
ATOM     26  C   LIG    1        0.421   1.310   0.403  0.00  0.00    +0.190 C 
BRANCH  26  28
ATOM     27  C   LIG    1        1.351  -0.688  -0.541  0.00  0.00    +0.200 C 
ATOM     28  O   LIG    1        0.566  -0.108   0.503  0.00  0.00    -0.390 OA
ENDBRANCH  26  28
ENDBRANCH  25  26
ENDBRANCH  24  25
ENDBRANCH   1  24
TORSDOF 8
