REMARK  Name = ZINCvU0000000ID4.0
REMARK                            x       y       z     vdW  Elec       q    Type
REMARK                         _______ _______ _______ _____ _____    ______ ____
ROOT
ATOM      1  O   LIG    1        9.271  -2.578   0.601  0.00  0.00    -0.530 OA
ATOM      2  C   LIG    1        8.789  -1.966   1.532  0.00  0.00    +0.520 C 
ATOM      3  N   LIG    1        7.963  -0.927   1.300  0.00  0.00    -0.730 N 
ATOM      4  H   LIG    1        7.578  -0.439   2.044  0.00  0.00    +0.410 HD
ENDROOT
BRANCH   3   5
ATOM      5  C   LIG    1        7.646  -0.536  -0.076  0.00  0.00    +0.400 C 
BRANCH   5   6
ATOM      6  C   LIG    1        6.708   0.644  -0.059  0.00  0.00    -0.010 A 
ATOM      7  C   LIG    1        7.078   1.941  -0.054  0.00  0.00    -0.020 A 
ATOM      8  C   LIG    1        5.898   2.707  -0.044  0.00  0.00    +0.000 A 
ATOM      9  C   LIG    1        4.859   1.825  -0.034  0.00  0.00    +0.050 A 
ATOM     10  O   LIG    1        5.368   0.578  -0.047  0.00  0.00    -0.140 OA
BRANCH   9  11
ATOM     11  C   LIG    1        3.431   2.175  -0.018  0.00  0.00    +0.170 A 
ATOM     12  N   LIG    1        2.461   1.319  -0.014  0.00  0.00    -0.450 NA
ATOM     13  C   LIG    1        1.204   1.794   0.000  0.00  0.00    +0.080 A 
ATOM     14  C   LIG    1       -0.013   1.076   0.008  0.00  0.00    +0.080 A 
ATOM     15  C   LIG    1       -1.212   1.741   0.017  0.00  0.00    +0.030 A 
ATOM     16  C   LIG    1       -1.251   3.128   0.031  0.00  0.00    +0.050 A 
ATOM     17  C   LIG    1       -0.079   3.850   0.024  0.00  0.00    +0.060 A 
ATOM     18  C   LIG    1        1.149   3.193   0.008  0.00  0.00    -0.170 A 
ATOM     19  S   LIG    1        2.798   3.815  -0.004  0.00  0.00    +0.120 S 
ENDBRANCH   9  11
ENDBRANCH   5   6
ENDBRANCH   3   5
BRANCH   2  20
ATOM     20  C   LIG    1        9.116  -2.369   2.947  0.00  0.00    +0.060 C 
BRANCH  20  21
ATOM     21  C   LIG    1       10.067  -3.567   2.930  0.00  0.00    +0.040 C 
BRANCH  21  22
ATOM     22  C   LIG    1       10.399  -3.975   4.366  0.00  0.00    +0.260 C 
BRANCH  22  23
ATOM     23  N   LIG    1       11.310  -5.123   4.350  0.00  0.00    -0.730 N 
ATOM     24  H   LIG    1       11.603  -5.497   3.505  0.00  0.00    +0.400 HD
ATOM     25  C   LIG    1       11.740  -5.658   5.510  0.00  0.00    +0.560 C 
ATOM     26  O   LIG    1       11.373  -5.189   6.569  0.00  0.00    -0.530 OA
BRANCH  25  27
ATOM     27  C   LIG    1       12.659  -6.815   5.493  0.00  0.00    -0.130 A 
ATOM     28  C   LIG    1       13.079  -7.359   4.278  0.00  0.00    +0.070 A 
ATOM     29  C   LIG    1       13.940  -8.437   4.269  0.00  0.00    +0.020 A 
ATOM     30  C   LIG    1       14.381  -8.984   5.462  0.00  0.00    -0.010 A 
ATOM     31  C   LIG    1       13.964  -8.451   6.671  0.00  0.00    +0.020 A 
ATOM     32 CL   LIG    1       15.459 -10.344   5.443  0.00  0.00    -0.060 Cl
ATOM     33  C   LIG    1       13.107  -7.371   6.693  0.00  0.00    +0.100 A 
ENDBRANCH  25  27
ENDBRANCH  22  23
ENDBRANCH  21  22
ENDBRANCH  20  21
ENDBRANCH   2  20
TORSDOF 8
