REMARK  Name = ZINCpe00000bm5ux.0
REMARK                            x       y       z     vdW  Elec       q    Type
REMARK                         _______ _______ _______ _____ _____    ______ ____
ROOT
ATOM      1  C   LIG    1       -4.069   1.750   3.711  0.00  0.00    +0.520 C 
ATOM      2  N   LIG    1       -2.992   1.844   2.907  0.00  0.00    -0.600 N 
ATOM      3  C   LIG    1       -2.796   3.024   2.053  0.00  0.00    +0.280 C 
ATOM      4  C   LIG    1       -2.603   2.558   0.606  0.00  0.00    +0.020 C 
ATOM      5  C   LIG    1       -1.470   1.535   0.550  0.00  0.00    -0.070 C 
ATOM      6  C   LIG    1       -1.803   0.322   1.416  0.00  0.00    +0.040 C 
ATOM      7  C   LIG    1       -0.161   2.181   1.041  0.00  0.00    +0.020 C 
ATOM      8  C   LIG    1        0.929   1.569   0.124  0.00  0.00    +0.020 C 
ATOM      9  C   LIG    1        0.218   1.490  -1.249  0.00  0.00    +0.010 C 
ATOM     10  C   LIG    1       -1.233   1.094  -0.902  0.00  0.00    +0.250 C 
ATOM     11  C   LIG    1       -1.990   0.770   2.869  0.00  0.00    +0.270 C 
ATOM     12  O   LIG    1       -4.839   2.682   3.805  0.00  0.00    -0.540 OA
ENDROOT
BRANCH  10  13
ATOM     13  N   LIG    1       -2.169   1.781  -1.795  0.00  0.00    -0.730 N 
ATOM     14  H   LIG    1       -2.557   2.630  -1.532  0.00  0.00    +0.400 HD
ATOM     15  C   LIG    1       -2.492   1.233  -2.984  0.00  0.00    +0.510 C 
ATOM     16  O   LIG    1       -2.007   0.171  -3.313  0.00  0.00    -0.510 OA
BRANCH  15  17
ATOM     17  C   LIG    1       -3.454   1.939  -3.903  0.00  0.00    +0.200 C 
BRANCH  17  18
ATOM     18  O   LIG    1       -3.634   1.165  -5.091  0.00  0.00    -0.370 OA
ATOM     19  C   LIG    1       -4.534   1.750  -6.035  0.00  0.00    +0.200 C 
ENDBRANCH  17  18
ENDBRANCH  15  17
ENDBRANCH  10  13
BRANCH   1  20
ATOM     20  C   LIG    1       -4.317   0.486   4.494  0.00  0.00    +0.230 C 
ATOM     21  C   LIG    1       -3.489   0.511   5.779  0.00  0.00    +0.060 C 
BRANCH  20  23
ATOM     22  C   LIG    1       -6.300  -0.812   5.062  0.00  0.00    +0.520 C 
ATOM     23  N   LIG    1       -5.740   0.392   4.831  0.00  0.00    -0.720 N 
ATOM     24  H   LIG    1       -6.279   1.197   4.889  0.00  0.00    +0.410 HD
ATOM     25  O   LIG    1       -5.626  -1.818   4.991  0.00  0.00    -0.540 OA
BRANCH  22  27
ATOM     26  C   LIG    1       -8.141  -2.376   5.621  0.00  0.00    +0.040 C 
ATOM     27  C   LIG    1       -7.763  -0.908   5.410  0.00  0.00    +0.050 C 
ENDBRANCH  22  27
ENDBRANCH  20  23
ENDBRANCH   1  20
TORSDOF 6
