REMARK  Name = ZINCqH00000026fh.2
REMARK                            x       y       z     vdW  Elec       q    Type
REMARK                         _______ _______ _______ _____ _____    ______ ____
ROOT
ATOM      1  C   LIG    1        1.627   0.800  -7.189  0.00  0.00    -0.140 A 
ATOM      2  C   LIG    1        0.337   1.338  -7.248  0.00  0.00    +0.070 A 
ATOM      3  C   LIG    1       -0.298   1.462  -8.456  0.00  0.00    -0.010 A 
ATOM      4  C   LIG    1        0.336   1.043  -9.624  0.00  0.00    -0.060 A 
ATOM      5  C   LIG    1        1.619   0.502  -9.568  0.00  0.00    +0.030 A 
ATOM      6  C   LIG    1        2.260   0.381  -8.363  0.00  0.00    +0.100 A 
ENDROOT
BRANCH   1   9
ATOM      7  N   LIG    1        1.702   1.075  -4.760  0.00  0.00    -0.730 N 
ATOM      8  H   LIG    1        0.809   1.452  -4.801  0.00  0.00    +0.400 HD
ATOM      9  C   LIG    1        2.314   0.670  -5.891  0.00  0.00    +0.560 C 
ATOM     10  O   LIG    1        3.434   0.198  -5.840  0.00  0.00    -0.530 OA
BRANCH   7  11
ATOM     11  C   LIG    1        2.385   0.946  -3.471  0.00  0.00    +0.270 C 
BRANCH  11  12
ATOM     12  C   LIG    1        1.478   1.475  -2.358  0.00  0.00    +0.170 C 
BRANCH  12  17
ATOM     13  C   LIG    1       -1.254  -0.744   0.386  0.00  0.00    +0.060 C 
ATOM     14  C   LIG    1        0.002  -0.004   0.002  0.00  0.00    -0.120 C 
ATOM     15  C   LIG    1        1.054  -0.693  -0.322  0.00  0.00    -0.080 C 
ATOM     16  C   LIG    1        2.361  -0.067  -0.713  0.00  0.00    +0.250 C 
ATOM     17  N   LIG    1        2.163   1.345  -1.065  0.00  0.00    -0.520 NA
ATOM     18  C   LIG    1        1.416   2.035  -0.001  0.00  0.00    +0.210 C 
ATOM     19  C   LIG    1       -0.018   1.499   0.010  0.00  0.00    +0.030 C 
ENDBRANCH  12  17
ENDBRANCH  11  12
ENDBRANCH   7  11
ENDBRANCH   1   9
BRANCH   4  20
ATOM     20  S   LIG    1       -0.486   1.197 -11.175  0.00  0.00    -0.090 S 
BRANCH  20  21
ATOM     21  C   LIG    1       -2.079   1.936 -10.720  0.00  0.00    +0.130 C 
BRANCH  21  22
ATOM     22  C   LIG    1       -2.913   2.134 -11.960  0.00  0.00    -0.140 A 
ATOM     23  C   LIG    1       -2.839   3.320 -12.673  0.00  0.00    +0.080 A 
ATOM     24  C   LIG    1       -3.620   3.456 -13.811  0.00  0.00    -0.030 A 
ATOM     25  C   LIG    1       -4.449   2.417 -14.186  0.00  0.00    +0.270 A 
ATOM     26  N   LIG    1       -4.498   1.304 -13.480  0.00  0.00    -0.480 NA
ATOM     27  C   LIG    1       -3.765   1.137 -12.397  0.00  0.00    +0.280 A 
ENDBRANCH  21  22
ENDBRANCH  20  21
ENDBRANCH   4  20
TORSDOF 7
