REMARK  Name = ZINCqH0000001KpY.0
REMARK                            x       y       z     vdW  Elec       q    Type
REMARK                         _______ _______ _______ _____ _____    ______ ____
ROOT
ATOM      1  C   LIG    1        6.945   4.902   0.171  0.00  0.00    +0.070 A 
ATOM      2  C   LIG    1        7.263   6.220  -0.032  0.00  0.00    -0.230 A 
ATOM      3  C   LIG    1        8.676   6.429  -0.255  0.00  0.00    +0.060 A 
ATOM      4  C   LIG    1        9.381   5.307  -0.220  0.00  0.00    -0.110 A 
ATOM      5  S   LIG    1        8.343   3.929   0.099  0.00  0.00    +0.300 S 
ENDROOT
BRANCH   2   6
ATOM      6  C   LIG    1        6.274   7.303  -0.024  0.00  0.00    +0.590 C 
ATOM      7  N   LIG    1        6.311   8.256  -0.975  0.00  0.00    -0.610 N 
ATOM      8  C   LIG    1        7.260   8.162  -2.093  0.00  0.00    +0.270 C 
ATOM      9  C   LIG    1        6.478   8.280  -3.410  0.00  0.00    -0.010 C 
ATOM     10  C   LIG    1        5.653   9.569  -3.393  0.00  0.00    +0.160 C 
ATOM     11  C   LIG    1        4.649   9.519  -2.240  0.00  0.00    +0.030 C 
ATOM     12  C   LIG    1        5.406   9.412  -0.912  0.00  0.00    +0.280 C 
ATOM     13  O   LIG    1        5.420   7.341   0.843  0.00  0.00    -0.550 OA
BRANCH  10  14
ATOM     14  O   LIG    1        4.951   9.700  -4.631  0.00  0.00    -0.570 OA
ATOM     15  H   LIG    1        5.526   9.738  -5.407  0.00  0.00    +0.380 HD
ENDBRANCH  10  14
ENDBRANCH   2   6
BRANCH   1  17
ATOM     16  C   LIG    1        5.460   3.108   0.594  0.00  0.00    +0.560 C 
ATOM     17  N   LIG    1        5.666   4.427   0.407  0.00  0.00    -0.620 N 
ATOM     18  H   LIG    1        4.917   5.043   0.438  0.00  0.00    +0.420 HD
ATOM     19  O   LIG    1        6.398   2.335   0.555  0.00  0.00    -0.500 OA
BRANCH  16  23
ATOM     20  C   LIG    1        1.537   1.651   1.318  0.00  0.00    -0.040 A 
ATOM     21  C   LIG    1        1.744   3.005   1.121  0.00  0.00    +0.010 A 
ATOM     22  C   LIG    1        3.016   3.485   0.891  0.00  0.00    +0.050 A 
ATOM     23  C   LIG    1        4.095   2.601   0.846  0.00  0.00    -0.150 A 
ATOM     24  C   LIG    1        3.879   1.235   1.040  0.00  0.00    +0.090 A 
ATOM     25  C   LIG    1        2.602   0.769   1.275  0.00  0.00    +0.000 A 
BRANCH  20  27
ATOM     26  C   LIG    1       -0.755   1.484   0.387  0.00  0.00    +0.030 C 
ATOM     27  C   LIG    1        0.145   1.134   1.574  0.00  0.00    +0.020 C 
ATOM     28  C   LIG    1       -0.413   1.778   2.844  0.00  0.00    +0.030 C 
ENDBRANCH  20  27
ENDBRANCH  16  23
ENDBRANCH   1  17
TORSDOF 5
