REMARK  Name = ZINCfA000000bkJV.0
REMARK                            x       y       z     vdW  Elec       q    Type
REMARK                         _______ _______ _______ _____ _____    ______ ____
ROOT
ATOM      1  N   LIG    1       -2.107   1.071   1.277  0.00  0.00    -0.510 N 
ATOM      2  H   LIG    1       -2.553   1.327   2.145  0.00  0.00    +0.420 HD
ATOM      3  H   LIG    1       -2.095   0.066   1.189  0.00  0.00    +0.430 HD
ENDROOT
BRANCH   1   5
ATOM      4  C   LIG    1       -0.013   1.086   0.008  0.00  0.00    +0.100 C 
ATOM      5  C   LIG    1       -0.729   1.579   1.267  0.00  0.00    +0.170 C 
BRANCH   5   6
ATOM      6  C   LIG    1        0.011   1.072   2.506  0.00  0.00    -0.080 C 
ATOM      7  C   LIG    1        0.032  -0.457   2.498  0.00  0.00    +0.050 C 
ATOM      8  C   LIG    1       -0.705   1.566   3.765  0.00  0.00    +0.060 C 
BRANCH   6   9
ATOM      9  C   LIG    1        1.446   1.602   2.495  0.00  0.00    +0.210 C 
BRANCH   9  10
ATOM     10  O   LIG    1        2.138   1.129   3.653  0.00  0.00    -0.560 OA
ATOM     11  H   LIG    1        3.056   1.426   3.712  0.00  0.00    +0.400 HD
ENDBRANCH   9  10
ENDBRANCH   6   9
ENDBRANCH   5   6
ENDBRANCH   1   5
BRANCH   1  12
ATOM     12  C   LIG    1       -2.852   1.653   0.153  0.00  0.00    +0.350 C 
BRANCH  12  13
ATOM     13  C   LIG    1       -4.266   1.131   0.164  0.00  0.00    -0.160 A 
ATOM     14  C   LIG    1       -4.671   0.141  -0.633  0.00  0.00    +0.010 A 
ATOM     15  S   LIG    1       -6.373  -0.193  -0.340  0.00  0.00    +0.240 S 
ATOM     16  C   LIG    1       -6.441   1.069   0.884  0.00  0.00    +0.020 A 
ATOM     17  C   LIG    1       -5.241   1.640   1.005  0.00  0.00    -0.120 A 
ATOM     18 BR   LIG    1       -4.900   3.041   2.228  0.00  0.00    -0.010 Br
ENDBRANCH  12  13
ENDBRANCH   1  12
TORSDOF 6
