REMARK  Name = ZINCrH00000No51s.0
REMARK                            x       y       z     vdW  Elec       q    Type
REMARK                         _______ _______ _______ _____ _____    ______ ____
ROOT
ATOM      1  C   LIG    1        2.397   0.036  -0.020  0.00  0.00    -0.080 A 
ATOM      2  C   LIG    1        2.380   1.437  -0.013  0.00  0.00    +0.110 A 
ATOM      3  C   LIG    1        1.177   2.105   0.002  0.00  0.00    +0.000 A 
ATOM      4  C   LIG    1       -0.017   1.388   0.010  0.00  0.00    +0.170 A 
ATOM      5  C   LIG    1        0.002  -0.004   0.002  0.00  0.00    -0.020 A 
ATOM      6  C   LIG    1        1.191  -0.675  -0.013  0.00  0.00    +0.130 A 
ENDROOT
BRANCH   5   7
ATOM      7  N   LIG    1       -1.271  -0.759   0.010  0.00  0.00    +0.020 N 
ATOM      8  O   LIG    1       -2.333  -0.162   0.023  0.00  0.00    -0.090 OA
ATOM      9  O   LIG    1       -1.257  -1.977   0.003  0.00  0.00    -0.190 OA
ENDBRANCH   5   7
BRANCH   1  11
ATOM     10  C   LIG    1        4.840   0.004  -0.044  0.00  0.00    -0.050 C 
ATOM     11  C   LIG    1        3.677  -0.684  -0.036  0.00  0.00    +0.150 C 
BRANCH  10  12
ATOM     12  C   LIG    1        6.075  -0.691  -0.059  0.00  0.00    +0.500 C 
ATOM     13  O   LIG    1        6.088  -1.907  -0.066  0.00  0.00    -0.510 OA
BRANCH  12  15
ATOM     14  C   LIG    1        8.443  -0.769  -0.082  0.00  0.00    +0.250 C 
ATOM     15  O   LIG    1        7.236  -0.004  -0.067  0.00  0.00    -0.350 OA
ENDBRANCH  12  15
ENDBRANCH  10  12
ENDBRANCH   1  11
BRANCH   4  16
ATOM     16  N   LIG    1       -1.232   2.065   0.019  0.00  0.00    -0.500 N 
ATOM     17  C   LIG    1       -1.393   2.841   1.256  0.00  0.00    +0.230 C 
BRANCH  16  18
ATOM     18  C   LIG    1       -1.363   2.927  -1.163  0.00  0.00    +0.200 C 
BRANCH  18  19
ATOM     19  C   LIG    1       -2.796   3.458  -1.250  0.00  0.00    +0.030 C 
BRANCH  19  20
ATOM     20  C   LIG    1       -2.933   4.356  -2.482  0.00  0.00    +0.250 C 
BRANCH  20  21
ATOM     21  N   LIG    1       -4.304   4.864  -2.565  0.00  0.00    -0.750 N 
ATOM     22  H   LIG    1       -4.956   4.613  -1.893  0.00  0.00    +0.400 HD
BRANCH  21  23
ATOM     23  C   LIG    1       -4.673   5.711  -3.613  0.00  0.00    +0.210 A 
ATOM     24  C   LIG    1       -3.739   6.076  -4.574  0.00  0.00    -0.080 A 
ATOM     25  C   LIG    1       -4.107   6.909  -5.612  0.00  0.00    +0.050 A 
ATOM     26  C   LIG    1       -5.402   7.388  -5.689  0.00  0.00    -0.060 A 
ATOM     27  C   LIG    1       -6.333   7.031  -4.731  0.00  0.00    +0.050 A 
ATOM     28  C   LIG    1       -5.973   6.194  -3.694  0.00  0.00    -0.080 A 
ENDBRANCH  21  23
ENDBRANCH  20  21
ENDBRANCH  19  20
ENDBRANCH  18  19
ENDBRANCH  16  18
ENDBRANCH   4  16
TORSDOF 10
