REMARK  Name = ZINCpk00000eaKsP.0
REMARK                            x       y       z     vdW  Elec       q    Type
REMARK                         _______ _______ _______ _____ _____    ______ ____
ROOT
ATOM      1  N   LIG    1       -1.922   0.036   1.511  0.00  0.00    -0.710 N 
ATOM      2  H   LIG    1       -1.305   0.336   2.197  0.00  0.00    +0.400 HD
ATOM      3  C   LIG    1       -3.251   0.143   1.707  0.00  0.00    +0.560 C 
ATOM      4  O   LIG    1       -4.024  -0.233   0.847  0.00  0.00    -0.540 OA
ENDROOT
BRANCH   3   5
ATOM      5  C   LIG    1       -3.768   0.718   2.964  0.00  0.00    -0.170 A 
ATOM      6  C   LIG    1       -2.881   1.146   3.955  0.00  0.00    +0.090 A 
ATOM      7  C   LIG    1       -3.367   1.687   5.125  0.00  0.00    -0.090 A 
ATOM      8  C   LIG    1       -4.738   1.796   5.325  0.00  0.00    +0.150 A 
ATOM      9  C   LIG    1       -5.624   1.367   4.343  0.00  0.00    -0.020 A 
ATOM     10  C   LIG    1       -5.146   0.830   3.169  0.00  0.00    +0.120 A 
BRANCH   8  11
ATOM     11  O   LIG    1       -5.214   2.324   6.481  0.00  0.00    -0.290 OA
BRANCH  11  12
ATOM     12  C   LIG    1       -4.248   2.745   7.447  0.00  0.00    +0.210 C 
BRANCH  12  13
ATOM     13  C   LIG    1       -4.956   3.300   8.656  0.00  0.00    +0.380 C 
ATOM     14  O   LIG    1       -6.163   3.332   8.687  0.00  0.00    -0.430 OA
BRANCH  13  15
ATOM     15  C   LIG    1       -4.159   3.816   9.826  0.00  0.00    -0.090 C 
ATOM     16  C   LIG    1       -4.628   3.426  11.228  0.00  0.00    +0.060 C 
ATOM     17  C   LIG    1       -4.821   4.859  10.728  0.00  0.00    +0.070 C 
ENDBRANCH  13  15
ENDBRANCH  12  13
ENDBRANCH  11  12
ENDBRANCH   8  11
ENDBRANCH   3   5
BRANCH   1  19
ATOM     18  C   LIG    1       -1.367  -2.060   0.379  0.00  0.00    +0.040 C 
ATOM     19  C   LIG    1       -1.409  -0.535   0.263  0.00  0.00    +0.240 C 
BRANCH  19  20
ATOM     20  C   LIG    1        0.002  -0.004   0.002  0.00  0.00    +0.170 C 
BRANCH  20  21
ATOM     21  N   LIG    1       -0.018   1.465   0.010  0.00  0.00    -0.530 NA
ATOM     22  C   LIG    1       -0.796   1.987  -1.123  0.00  0.00    +0.140 C 
ATOM     23  C   LIG    1       -0.841   3.516  -1.042  0.00  0.00    +0.220 C 
ATOM     24  O   LIG    1        0.495   4.026  -1.021  0.00  0.00    -0.380 OA
ATOM     25  C   LIG    1        1.281   3.538   0.069  0.00  0.00    +0.220 C 
ATOM     26  C   LIG    1        1.347   2.010   0.000  0.00  0.00    +0.150 C 
ENDBRANCH  20  21
ENDBRANCH  19  20
ENDBRANCH   1  19
TORSDOF 8
