REMARK  Name = ZINCah0000002zbx.0
REMARK                            x       y       z     vdW  Elec       q    Type
REMARK                         _______ _______ _______ _____ _____    ______ ____
ROOT
ATOM      1  C   LIG    1       -1.345   3.095   0.031  0.00  0.00    -0.190 A 
ATOM      2  C   LIG    1       -2.635   3.531   0.035  0.00  0.00    +0.020 A 
ATOM      3  S   LIG    1       -3.722   2.218   0.033  0.00  0.00    +0.230 S 
ATOM      4  C   LIG    1       -2.421   1.041   0.020  0.00  0.00    -0.190 A 
ATOM      5  C   LIG    1       -1.236   1.651   0.017  0.00  0.00    +0.240 A 
ENDROOT
BRANCH   5   6
ATOM      6  N   LIG    1       -0.011   0.966   0.007  0.00  0.00    -0.860 N 
ATOM      7  H   LIG    1        0.822   1.462   0.002  0.00  0.00    +0.410 HD
ATOM      8  H   LIG    1        0.002  -0.004   0.002  0.00  0.00    +0.400 HD
ENDBRANCH   5   6
BRANCH   1   9
ATOM      9  C   LIG    1       -0.184   3.994   0.036  0.00  0.00    +0.530 C 
ATOM     10  O   LIG    1        0.941   3.535   0.028  0.00  0.00    -0.510 OA
BRANCH   9  12
ATOM     11  C   LIG    1        0.825   6.159   0.053  0.00  0.00    +0.260 C 
ATOM     12  O   LIG    1       -0.367   5.330   0.049  0.00  0.00    -0.350 OA
ENDBRANCH   9  12
ENDBRANCH   1   9
TORSDOF 3
