REMARK  Name = ZINCnE000001L75g.1
REMARK                            x       y       z     vdW  Elec       q    Type
REMARK                         _______ _______ _______ _____ _____    ______ ____
ROOT
ATOM      1  N   LIG    1       -3.685   3.119   0.053  0.00  0.00    -0.750 N 
ATOM      2  H   LIG    1       -3.651   2.150   0.048  0.00  0.00    +0.390 HD
ATOM      3  C   LIG    1       -2.542   3.834   0.046  0.00  0.00    +0.570 C 
ATOM      4  O   LIG    1       -2.585   5.049   0.053  0.00  0.00    -0.530 OA
ENDROOT
BRANCH   3   5
ATOM      5  C   LIG    1       -1.242   3.142   0.031  0.00  0.00    -0.360 A 
ATOM      6  C   LIG    1       -0.063   3.884   0.024  0.00  0.00    +0.340 A 
ATOM      7  C   LIG    1        1.176   3.211   0.008  0.00  0.00    -0.150 A 
ATOM      8  C   LIG    1        2.387   3.921   0.001  0.00  0.00    +0.080 A 
ATOM      9  C   LIG    1        3.567   3.241  -0.014  0.00  0.00    -0.080 A 
ATOM     10  C   LIG    1        3.591   1.849  -0.021  0.00  0.00    +0.010 A 
ATOM     11  C   LIG    1        2.435   1.128  -0.015  0.00  0.00    -0.050 A 
ATOM     12  C   LIG    1        1.199   1.794   0.000  0.00  0.00    +0.020 A 
ATOM     13  C   LIG    1       -0.013   1.076   0.008  0.00  0.00    -0.180 A 
ATOM     14  O   LIG    1       -0.106   5.238   0.032  0.00  0.00    -0.640 OA
ATOM     15  C   LIG    1       -1.197   1.735   0.017  0.00  0.00    +0.090 A 
ENDBRANCH   3   5
BRANCH   1  16
ATOM     16  C   LIG    1       -4.979   3.807   0.069  0.00  0.00    +0.310 C 
BRANCH  16  20
ATOM     17  C   LIG    1       -8.128   0.918   0.084  0.00  0.00    +0.120 A 
ATOM     18  C   LIG    1       -7.605   1.382   1.282  0.00  0.00    -0.020 A 
ATOM     19  C   LIG    1       -6.587   2.316   1.275  0.00  0.00    +0.070 A 
ATOM     20  C   LIG    1       -6.089   2.788   0.074  0.00  0.00    -0.130 A 
ATOM     21  C   LIG    1       -6.613   2.332  -1.121  0.00  0.00    +0.070 A 
ATOM     22  C   LIG    1       -7.627   1.394  -1.119  0.00  0.00    -0.080 A 
BRANCH  17  24
ATOM     23  C   LIG    1       -9.620  -0.432  -1.182  0.00  0.00    +0.240 C 
ATOM     24  O   LIG    1       -9.130   0.000   0.089  0.00  0.00    -0.320 OA
ENDBRANCH  17  24
ENDBRANCH  16  20
ENDBRANCH   1  16
TORSDOF 4
