REMARK  Name = ZINCrD00000F5LkO.0
REMARK                            x       y       z     vdW  Elec       q    Type
REMARK                         _______ _______ _______ _____ _____    ______ ____
ROOT
ATOM      1  N   LIG    1        4.885  -4.264  -0.064  0.00  0.00    -0.720 N 
ATOM      2  H   LIG    1        4.037  -4.735  -0.059  0.00  0.00    +0.400 HD
ATOM      3  C   LIG    1        4.907  -2.916  -0.057  0.00  0.00    +0.550 C 
ATOM      4  O   LIG    1        5.970  -2.324  -0.064  0.00  0.00    -0.540 OA
ENDROOT
BRANCH   1   6
ATOM      5  C   LIG    1        6.631  -5.163  -1.521  0.00  0.00    +0.040 C 
ATOM      6  C   LIG    1        6.142  -5.016  -0.079  0.00  0.00    +0.280 C 
BRANCH   6   7
ATOM      7  C   LIG    1        5.916  -6.382   0.517  0.00  0.00    -0.030 A 
ATOM      8  C   LIG    1        4.754  -7.076   0.235  0.00  0.00    -0.010 A 
ATOM      9  C   LIG    1        4.549  -8.330   0.778  0.00  0.00    +0.140 A 
ATOM     10  C   LIG    1        5.502  -8.887   1.610  0.00  0.00    -0.680 A 
ATOM     11  C   LIG    1        6.662  -8.192   1.895  0.00  0.00    +0.130 A 
ATOM     12  C   LIG    1        6.869  -6.939   1.349  0.00  0.00    +0.010 A 
BRANCH  10  13
ATOM     13  S   LIG    1        5.239 -10.484   2.306  0.00  0.00    +2.700 S 
ATOM     14  O   LIG    1        6.524 -11.004   2.617  0.00  0.00    -0.960 OA
ATOM     15  O   LIG    1        4.318 -11.148   1.451  0.00  0.00    -0.960 OA
BRANCH  13  16
ATOM     16  N   LIG    1        4.461 -10.267   3.752  0.00  0.00    -1.250 NA
ATOM     17  H   LIG    1        4.611  -9.459   4.267  0.00  0.00    +0.420 HD
ATOM     18  H   LIG    1        3.854 -10.947   4.083  0.00  0.00    +0.420 HD
ENDBRANCH  13  16
ENDBRANCH  10  13
ENDBRANCH   6   7
ENDBRANCH   1   6
BRANCH   3  19
ATOM     19  C   LIG    1        3.652  -2.164  -0.042  0.00  0.00    -0.090 C 
ATOM     20  C   LIG    1        3.674  -0.813  -0.036  0.00  0.00    +0.130 C 
BRANCH  20  21
ATOM     21  C   LIG    1        2.415  -0.059  -0.021  0.00  0.00    -0.070 A 
ATOM     22  C   LIG    1        1.190  -0.721  -0.013  0.00  0.00    +0.040 A 
ATOM     23  C   LIG    1        0.002  -0.004   0.002  0.00  0.00    +0.010 A 
ATOM     24  C   LIG    1       -0.016   1.357   0.009  0.00  0.00    +0.040 A 
ATOM     25  C   LIG    1        1.182   2.091   0.002  0.00  0.00    -0.060 A 
ATOM     26  C   LIG    1        1.178   3.497   0.009  0.00  0.00    +0.030 A 
ATOM     27  C   LIG    1        2.360   4.173   0.002  0.00  0.00    +0.010 A 
ATOM     28  C   LIG    1        3.575   3.494  -0.013  0.00  0.00    +0.020 A 
ATOM     29  C   LIG    1        3.615   2.131  -0.021  0.00  0.00    +0.020 A 
ATOM     30  C   LIG    1        2.420   1.404  -0.013  0.00  0.00    -0.030 A 
ENDBRANCH  20  21
ENDBRANCH   3  19
TORSDOF 6
