REMARK  Name = ZINCpk00000KfKgo.0
REMARK                            x       y       z     vdW  Elec       q    Type
REMARK                         _______ _______ _______ _____ _____    ______ ____
ROOT
ATOM      1  N   LIG    1        1.412   5.589  -0.621  0.00  0.00    -0.450 N 
ATOM      2  C   LIG    1        0.799   6.069   0.631  0.00  0.00    +0.220 C 
ATOM      3  C   LIG    1       -0.382   6.979   0.238  0.00  0.00    +0.040 C 
ATOM      4  C   LIG    1       -0.015   7.444  -1.194  0.00  0.00    +0.020 C 
ATOM      5  C   LIG    1       -1.312   7.527  -2.022  0.00  0.00    +0.280 C 
ATOM      6  N   LIG    1       -1.567   6.196  -2.588  0.00  0.00    -0.600 N 
ATOM      7  C   LIG    1       -0.520   5.273  -2.118  0.00  0.00    +0.240 C 
ATOM      8  C   LIG    1       -2.590   5.873  -3.404  0.00  0.00    +0.610 C 
ATOM      9  O   LIG    1       -3.349   6.738  -3.800  0.00  0.00    -0.540 OA
ATOM     10  C   LIG    1        0.686   6.170  -1.764  0.00  0.00    +0.200 C 
ENDROOT
BRANCH   1  15
ATOM     11  C   LIG    1        2.350   2.263  -1.470  0.00  0.00    +0.200 A 
ATOM     12  C   LIG    1        1.389   1.531  -0.791  0.00  0.00    -0.090 A 
ATOM     13  C   LIG    1        0.439   2.215  -0.048  0.00  0.00    +0.200 A 
ATOM     14  N   LIG    1        0.475   3.536  -0.013  0.00  0.00    -0.550 NA
ATOM     15  C   LIG    1        1.404   4.206  -0.679  0.00  0.00    +0.490 A 
ATOM     16  C   LIG    1       -0.622   1.460   0.712  0.00  0.00    +0.140 C 
ATOM     17  N   LIG    1        2.326   3.584  -1.398  0.00  0.00    -0.510 NA
BRANCH  11  19
ATOM     18  C   LIG    1        3.304   2.009  -3.745  0.00  0.00    +0.040 C 
ATOM     19  C   LIG    1        3.406   1.563  -2.286  0.00  0.00    +0.100 C 
ENDBRANCH  11  19
ENDBRANCH   1  15
BRANCH   8  20
ATOM     20  C   LIG    1       -2.788   4.478  -3.815  0.00  0.00    -0.090 A 
ATOM     21  C   LIG    1       -2.108   3.385  -3.358  0.00  0.00    +0.210 A 
ATOM     22  N   LIG    1       -2.595   2.312  -3.982  0.00  0.00    -0.490 NA
ATOM     23  C   LIG    1       -3.539   2.675  -4.812  0.00  0.00    +0.430 A 
ATOM     24  N   LIG    1       -3.696   4.010  -4.744  0.00  0.00    -0.430 N 
ATOM     25  C   LIG    1       -4.650   4.814  -5.512  0.00  0.00    +0.340 C 
ENDBRANCH   8  20
TORSDOF 3
