REMARK  Name = ZINCpe00000c65yt.0
REMARK                            x       y       z     vdW  Elec       q    Type
REMARK                         _______ _______ _______ _____ _____    ______ ____
ROOT
ATOM      1  N   LIG    1        3.230  -2.709   2.895  0.00  0.00    -0.520 N 
ATOM      2  C   LIG    1        3.269  -2.239   4.274  0.00  0.00    +0.260 C 
ATOM      3  C   LIG    1        3.709  -0.775   4.328  0.00  0.00    +0.040 C 
ATOM      4  C   LIG    1        2.849   0.033   3.348  0.00  0.00    +0.000 C 
ATOM      5  C   LIG    1        3.195  -0.407   1.924  0.00  0.00    +0.200 C 
ATOM      6  C   LIG    1        3.175  -1.906   1.832  0.00  0.00    +0.520 C 
ATOM      7  O   LIG    1        3.105  -2.413   0.732  0.00  0.00    -0.510 OA
ENDROOT
BRANCH   5   8
ATOM      8  N   LIG    1        2.212   0.153   0.987  0.00  0.00    -0.510 NA
ATOM      9  C   LIG    1        0.858  -0.326   1.298  0.00  0.00    +0.170 C 
ATOM     10  C   LIG    1       -0.106   0.131   0.198  0.00  0.00    +0.300 C 
ATOM     11  N   LIG    1        0.018   1.588   0.043  0.00  0.00    -0.610 N 
ATOM     12  C   LIG    1        1.363   2.157  -0.134  0.00  0.00    +0.280 C 
ATOM     13  C   LIG    1       -1.072   2.381   0.058  0.00  0.00    +0.520 C 
ATOM     14  O   LIG    1       -2.174   1.894   0.201  0.00  0.00    -0.540 OA
ATOM     15  C   LIG    1        2.269   1.621   0.979  0.00  0.00    +0.180 C 
BRANCH  13  16
ATOM     16  C   LIG    1       -0.922   3.872  -0.102  0.00  0.00    -0.030 C 
ATOM     17  C   LIG    1       -0.521   4.593   1.196  0.00  0.00    +0.040 C 
ATOM     18  C   LIG    1       -1.503   5.706   0.786  0.00  0.00    +0.010 C 
ATOM     19  C   LIG    1       -2.254   4.637  -0.025  0.00  0.00    +0.040 C 
ENDBRANCH  13  16
ENDBRANCH   5   8
BRANCH   1  23
ATOM     20  C   LIG    1        3.205  -7.579   3.643  0.00  0.00    +0.370 C 
ATOM     21  N   LIG    1        3.240  -6.265   2.996  0.00  0.00    -0.380 N 
ATOM     22  C   LIG    1        3.194  -5.063   3.625  0.00  0.00    +0.190 A 
ATOM     23  C   LIG    1        3.251  -4.099   2.671  0.00  0.00    -0.010 A 
ATOM     24  C   LIG    1        3.328  -4.733   1.423  0.00  0.00    +0.270 A 
ATOM     25  N   LIG    1        3.328  -6.027   1.618  0.00  0.00    -0.290 NA
ENDBRANCH   1  23
TORSDOF 3
