REMARK  Name = ZINCpk00000y6ze1.0
REMARK                            x       y       z     vdW  Elec       q    Type
REMARK                         _______ _______ _______ _____ _____    ______ ____
ROOT
ATOM      1  C   LIG    1        6.789   1.605   5.395  0.00  0.00    +0.100 C 
ATOM      2  C   LIG    1        6.481   2.990   4.886  0.00  0.00    +0.530 C 
ATOM      3  N   LIG    1        6.116   3.170   3.602  0.00  0.00    -0.620 N 
ATOM      4  C   LIG    1        5.977   2.104   2.585  0.00  0.00    +0.260 C 
ATOM      5  C   LIG    1        6.175   2.846   1.249  0.00  0.00    -0.010 C 
ATOM      6  C   LIG    1        5.670   2.061   0.068  0.00  0.00    +0.270 C 
ATOM      7  N   LIG    1        4.206   1.968   0.073  0.00  0.00    -0.610 N 
ATOM      8  C   LIG    1        3.451   3.225   0.201  0.00  0.00    +0.290 C 
ATOM      9  C   LIG    1        3.889   3.902   1.498  0.00  0.00    +0.020 C 
ATOM     10  C   LIG    1        3.579   0.780  -0.029  0.00  0.00    +0.590 C 
ATOM     11  O   LIG    1        2.363   0.732  -0.021  0.00  0.00    -0.520 OA
ATOM     12  C   LIG    1        5.399   4.156   1.499  0.00  0.00    +0.020 C 
ATOM     13  C   LIG    1        5.788   4.462   2.973  0.00  0.00    +0.250 C 
ATOM     14  O   LIG    1        6.562   3.942   5.633  0.00  0.00    -0.540 OA
ENDROOT
BRANCH  10  15
ATOM     15  C   LIG    1        4.361  -0.455  -0.149  0.00  0.00    -0.050 A 
ATOM     16  C   LIG    1        3.972  -1.697   0.270  0.00  0.00    +0.080 A 
ATOM     17  C   LIG    1        5.019  -2.586  -0.038  0.00  0.00    -0.110 A 
ATOM     18  C   LIG    1        6.012  -1.862  -0.633  0.00  0.00    +0.230 A 
ATOM     19  N   LIG    1        5.617  -0.567  -0.703  0.00  0.00    -0.540 N 
ATOM     20  H   LIG    1        6.134   0.162  -1.080  0.00  0.00    +0.420 HD
BRANCH  17  21
ATOM     21  C   LIG    1        5.040  -4.046   0.236  0.00  0.00    +0.200 A 
ATOM     22  C   LIG    1        6.116  -4.817   0.002  0.00  0.00    -0.130 A 
ATOM     23  S   LIG    1        5.715  -6.469   0.464  0.00  0.00    +0.100 S 
ATOM     24  C   LIG    1        4.145  -5.974   0.926  0.00  0.00    +0.320 A 
ATOM     25  N   LIG    1        4.000  -4.701   0.738  0.00  0.00    -0.540 NA
BRANCH  24  26
ATOM     26  N   LIG    1        3.169  -6.815   1.436  0.00  0.00    -0.820 N 
ATOM     27  H   LIG    1        2.300  -6.459   1.677  0.00  0.00    +0.410 HD
ATOM     28  H   LIG    1        3.355  -7.760   1.552  0.00  0.00    +0.420 HD
ENDBRANCH  24  26
ENDBRANCH  17  21
ENDBRANCH  10  15
TORSDOF 3
