REMARK  Name = ZINCrH000004mP92.0
REMARK                            x       y       z     vdW  Elec       q    Type
REMARK                         _______ _______ _______ _____ _____    ______ ____
ROOT
ATOM      1  C   LIG    1       -0.009   1.091   0.008  0.00  0.00    +0.290 C 
ENDROOT
BRANCH   1   4
ATOM      2  N   LIG    1       -0.288   1.272  -2.443  0.00  0.00    -0.670 N 
ATOM      3  H   LIG    1        0.547   0.789  -2.544  0.00  0.00    +0.410 HD
ATOM      4  C   LIG    1       -0.743   1.583  -1.213  0.00  0.00    +0.510 C 
ATOM      5  O   LIG    1       -1.742   2.259  -1.088  0.00  0.00    -0.510 OA
BRANCH   2   9
ATOM      6  C   LIG    1       -2.476   2.393  -5.815  0.00  0.00    +0.090 A 
ATOM      7  C   LIG    1       -2.447   3.216  -4.702  0.00  0.00    -0.010 A 
ATOM      8  C   LIG    1       -1.722   2.845  -3.584  0.00  0.00    +0.030 A 
ATOM      9  C   LIG    1       -1.022   1.647  -3.576  0.00  0.00    +0.140 A 
ATOM     10  C   LIG    1       -1.045   0.822  -4.693  0.00  0.00    -0.060 A 
ATOM     11  C   LIG    1       -1.775   1.190  -5.810  0.00  0.00    +0.120 A 
BRANCH   6  13
ATOM     12  C   LIG    1       -3.885   4.007  -6.850  0.00  0.00    +0.250 C 
ATOM     13  O   LIG    1       -3.190   2.760  -6.914  0.00  0.00    -0.310 OA
ENDBRANCH   6  13
BRANCH  11  14
ATOM     14  O   LIG    1       -1.803   0.381  -6.902  0.00  0.00    -0.300 OA
ATOM     15  C   LIG    1       -1.061  -0.837  -6.826  0.00  0.00    +0.250 C 
ENDBRANCH  11  14
ENDBRANCH   2   9
ENDBRANCH   1   4
BRANCH   1  16
ATOM     16  N   LIG    1       -0.697   1.560   1.213  0.00  0.00    -0.730 N 
ATOM     17  H   LIG    1       -1.498   2.102   1.135  0.00  0.00    +0.420 HD
BRANCH  16  18
ATOM     18  C   LIG    1       -0.198   1.227   2.478  0.00  0.00    +0.240 A 
ATOM     19  C   LIG    1        0.947   0.454   2.593  0.00  0.00    -0.080 A 
ATOM     20  C   LIG    1        1.438   0.126   3.844  0.00  0.00    +0.050 A 
ATOM     21  C   LIG    1        0.791   0.568   4.982  0.00  0.00    -0.050 A 
ATOM     22  C   LIG    1       -0.352   1.340   4.877  0.00  0.00    +0.020 A 
ATOM     23  C   LIG    1       -0.848   1.677   3.628  0.00  0.00    +0.010 A 
BRANCH  23  24
ATOM     24  N   LIG    1       -2.001   2.464   3.519  0.00  0.00    -0.500 N 
ATOM     25  C   LIG    1       -1.776   3.808   4.067  0.00  0.00    +0.170 C 
ATOM     26  C   LIG    1       -3.004   4.681   3.802  0.00  0.00    +0.020 C 
ATOM     27  C   LIG    1       -4.231   4.042   4.457  0.00  0.00    +0.000 C 
ATOM     28  C   LIG    1       -4.415   2.625   3.905  0.00  0.00    +0.020 C 
ATOM     29  C   LIG    1       -3.146   1.811   4.168  0.00  0.00    +0.170 C 
ENDBRANCH  23  24
ENDBRANCH  16  18
ENDBRANCH   1  16
TORSDOF 7
