REMARK  Name = ZINCrH000004juCV.0
REMARK                            x       y       z     vdW  Elec       q    Type
REMARK                         _______ _______ _______ _____ _____    ______ ____
ROOT
ATOM      1  C   LIG    1        5.080  -4.774  -0.072  0.00  0.00    +0.330 C 
ATOM      2  N   LIG    1        3.724  -5.329  -0.062  0.00  0.00    -0.520 N 
ATOM      3  C   LIG    1        3.545  -6.664  -0.068  0.00  0.00    +0.560 A 
ATOM      4  C   LIG    1        2.214  -7.180  -0.058  0.00  0.00    -0.230 A 
ATOM      5  C   LIG    1        1.161  -6.274  -0.043  0.00  0.00    +0.090 A 
ATOM      6  S   LIG    1       -0.365  -7.144  -0.033  0.00  0.00    +0.190 S 
ATOM      7  C   LIG    1        0.438  -8.705  -0.050  0.00  0.00    -0.200 A 
ATOM      8  C   LIG    1       -0.285 -10.041  -0.050  0.00  0.00    +0.120 C 
ATOM      9  C   LIG    1        0.697 -11.133  -0.482  0.00  0.00    +0.020 C 
ATOM     10  C   LIG    1        1.978 -11.007   0.348  0.00  0.00    +0.020 C 
ATOM     11  C   LIG    1        2.730  -9.746  -0.081  0.00  0.00    +0.110 C 
ATOM     12  N   LIG    1        1.419  -4.950  -0.033  0.00  0.00    -0.510 NA
ATOM     13  C   LIG    1        1.765  -8.568  -0.063  0.00  0.00    -0.030 A 
ATOM     14  O   LIG    1        4.503  -7.418  -0.082  0.00  0.00    -0.510 OA
ATOM     15  C   LIG    1        2.647  -4.491  -0.047  0.00  0.00    +0.360 A 
ENDROOT
BRANCH  15  16
ATOM     16  S   LIG    1        2.913  -2.749  -0.041  0.00  0.00    +0.090 S 
BRANCH  16  17
ATOM     17  C   LIG    1        1.199  -2.169  -0.021  0.00  0.00    +0.110 C 
BRANCH  17  18
ATOM     18  C   LIG    1        1.178  -0.662  -0.013  0.00  0.00    +0.530 C 
ATOM     19  N   LIG    1        0.002  -0.004   0.002  0.00  0.00    -0.600 N 
ATOM     20  C   LIG    1       -1.256  -0.754   0.010  0.00  0.00    +0.290 C 
ATOM     21  O   LIG    1        2.220  -0.041  -0.019  0.00  0.00    -0.520 OA
BRANCH  19  22
ATOM     22  C   LIG    1       -0.018   1.461   0.010  0.00  0.00    +0.240 C 
ATOM     23  C   LIG    1       -0.734   1.954   1.269  0.00  0.00    +0.010 C 
ATOM     24  C   LIG    1       -0.755   3.484   1.277  0.00  0.00    +0.020 C 
ATOM     25  C   LIG    1       -1.495   3.991   0.038  0.00  0.00    +0.010 C 
ATOM     26  C   LIG    1       -0.778   3.497  -1.221  0.00  0.00    +0.020 C 
ATOM     27  C   LIG    1       -0.758   1.968  -1.230  0.00  0.00    +0.010 C 
ENDBRANCH  19  22
ENDBRANCH  17  18
ENDBRANCH  16  17
ENDBRANCH  15  16
TORSDOF 4
