REMARK  Name = ZINCrD000000Cpdw.0
REMARK                            x       y       z     vdW  Elec       q    Type
REMARK                         _______ _______ _______ _____ _____    ______ ____
ROOT
ATOM      1  C   LIG    1       -5.864   2.587   0.068  0.00  0.00    +0.000 A 
ATOM      2  N   LIG    1       -5.149   3.695   0.066  0.00  0.00    -0.210 NA
ATOM      3  N   LIG    1       -3.894   3.418   0.054  0.00  0.00    -0.370 N 
ATOM      4  H   LIG    1       -3.180   4.074   0.051  0.00  0.00    +0.450 HD
ATOM      5  C   LIG    1       -3.715   2.066   0.046  0.00  0.00    +0.060 A 
ATOM      6  C   LIG    1       -4.960   1.502   0.049  0.00  0.00    +0.020 A 
ENDROOT
BRANCH   5   7
ATOM      7  C   LIG    1       -2.421   1.348   0.031  0.00  0.00    -0.020 A 
ATOM      8  C   LIG    1       -2.396  -0.046   0.024  0.00  0.00    +0.070 A 
ATOM      9  C   LIG    1       -1.189  -0.715   0.009  0.00  0.00    +0.060 A 
ATOM     10  C   LIG    1        0.002  -0.004   0.002  0.00  0.00    +0.040 A 
ATOM     11  O   LIG    1        1.302  -0.421  -0.013  0.00  0.00    -0.300 OA
ATOM     12  C   LIG    1        2.077   0.720   0.399  0.00  0.00    +0.440 C 
ATOM     13  O   LIG    1        1.271   1.844  -0.000  0.00  0.00    -0.310 OA
ATOM     14  C   LIG    1       -0.017   1.390   0.010  0.00  0.00    +0.040 A 
ATOM     15  C   LIG    1       -1.224   2.064   0.020  0.00  0.00    +0.030 A 
ENDBRANCH   5   7
BRANCH   1  17
ATOM     16  O   LIG    1       -7.880   1.410   0.079  0.00  0.00    -0.500 OA
ATOM     17  C   LIG    1       -7.338   2.497   0.080  0.00  0.00    +0.560 C 
BRANCH  17  18
ATOM     18  O   LIG    1       -8.081   3.621   0.091  0.00  0.00    -0.330 OA
BRANCH  18  19
ATOM     19  C   LIG    1       -9.523   3.457   0.102  0.00  0.00    +0.240 C 
BRANCH  19  20
ATOM     20  C   LIG    1      -10.193   4.833   0.115  0.00  0.00    +0.160 C 
ATOM     21  C   LIG    1      -11.729   4.683   0.214  0.00  0.00    +0.030 C 
ATOM     22  C   LIG    1      -12.264   5.808  -0.683  0.00  0.00    -0.100 C 
ATOM     23  C   LIG    1      -11.013   6.509  -1.232  0.00  0.00    +0.210 C 
ATOM     24  C   LIG    1      -13.133   6.785   0.119  0.00  0.00    +0.030 C 
ATOM     25  C   LIG    1      -14.238   7.211  -0.882  0.00  0.00    +0.010 C 
ATOM     26  C   LIG    1      -14.517   5.904  -1.667  0.00  0.00    +0.010 C 
ATOM     27  C   LIG    1      -13.125   5.248  -1.817  0.00  0.00    +0.030 C 
ATOM     28  O   LIG    1       -9.966   5.513  -1.140  0.00  0.00    -0.360 OA
ENDBRANCH  19  20
ENDBRANCH  18  19
ENDBRANCH  17  18
ENDBRANCH   1  17
TORSDOF 5
