REMARK  Name = ZINCvU00000004Ak.0
REMARK                            x       y       z     vdW  Elec       q    Type
REMARK                         _______ _______ _______ _____ _____    ______ ____
ROOT
ATOM      1  C   LIG    1       -7.359   3.315   1.710  0.00  0.00    +0.150 A 
ATOM      2  N   LIG    1       -7.211   2.997   0.444  0.00  0.00    -0.290 NA
ATOM      3  N   LIG    1       -8.344   3.052  -0.160  0.00  0.00    -0.250 NA
ATOM      4  C   LIG    1       -9.283   3.416   0.681  0.00  0.00    +0.220 A 
ATOM      5  N   LIG    1       -8.681   3.595   1.905  0.00  0.00    -0.440 N 
ENDROOT
BRANCH   4   6
ATOM      6  C   LIG    1      -10.717   3.598   0.372  0.00  0.00    -0.010 A 
ATOM      7  C   LIG    1      -11.690   3.026   1.194  0.00  0.00    +0.040 A 
ATOM      8  C   LIG    1      -13.027   3.204   0.903  0.00  0.00    +0.030 A 
ATOM      9  C   LIG    1      -13.405   3.938  -0.207  0.00  0.00    +0.050 A 
ATOM     10  C   LIG    1      -12.447   4.504  -1.029  0.00  0.00    +0.030 A 
ATOM     11  C   LIG    1      -11.105   4.338  -0.747  0.00  0.00    -0.000 A 
ATOM     12 CL   LIG    1       -9.904   5.049  -1.780  0.00  0.00    -0.040 Cl
ENDBRANCH   4   6
BRANCH   5  13
ATOM     13  C   LIG    1       -9.325   4.003   3.157  0.00  0.00    +0.230 C 
ATOM     14  C   LIG    1       -8.682   5.304   3.682  0.00  0.00    +0.030 C 
ATOM     15  C   LIG    1       -8.663   5.123   5.220  0.00  0.00    +0.030 C 
ATOM     16  C   LIG    1       -8.326   3.620   5.384  0.00  0.00    +0.030 C 
ATOM     17  C   LIG    1       -9.098   2.933   4.239  0.00  0.00    +0.020 C 
ENDBRANCH   5  13
BRANCH   1  18
ATOM     18  S   LIG    1       -6.087   3.375   2.928  0.00  0.00    +0.090 S 
BRANCH  18  19
ATOM     19  C   LIG    1       -4.664   2.887   1.922  0.00  0.00    +0.070 C 
BRANCH  19  20
ATOM     20  C   LIG    1       -3.425   2.868   2.779  0.00  0.00    +0.440 C 
ATOM     21  O   LIG    1       -3.497   3.157   3.956  0.00  0.00    -0.440 OA
BRANCH  20  26
ATOM     22  C   LIG    1       -0.001   2.062   1.931  0.00  0.00    -0.260 A 
ATOM     23  C   LIG    1       -0.655   1.894   0.720  0.00  0.00    +0.120 A 
ATOM     24  N   LIG    1       -1.955   2.171   0.893  0.00  0.00    -0.520 N 
ATOM     25  H   LIG    1       -2.633   2.134   0.201  0.00  0.00    +0.420 HD
ATOM     26  C   LIG    1       -2.177   2.514   2.212  0.00  0.00    -0.100 A 
ATOM     27  C   LIG    1       -0.011   1.475  -0.577  0.00  0.00    +0.160 C 
ATOM     28  C   LIG    1       -0.973   2.457   2.878  0.00  0.00    -0.010 A 
ATOM     29  C   LIG    1       -0.738   2.757   4.336  0.00  0.00    +0.140 C 
BRANCH  22  31
ATOM     30  C   LIG    1        1.959   0.491   2.501  0.00  0.00    +0.080 C 
ATOM     31  C   LIG    1        1.431   1.866   2.183  0.00  0.00    +0.430 C 
ATOM     32  O   LIG    1        2.190   2.811   2.134  0.00  0.00    -0.450 OA
ENDBRANCH  22  31
ENDBRANCH  20  26
ENDBRANCH  19  20
ENDBRANCH  18  19
ENDBRANCH   1  18
TORSDOF 7
