REMARK  Name = ZINCvU000000095E.0
REMARK                            x       y       z     vdW  Elec       q    Type
REMARK                         _______ _______ _______ _____ _____    ______ ____
ROOT
ATOM      1  C   LIG    1        1.153   3.176   0.008  0.00  0.00    -0.130 A 
ATOM      2  C   LIG    1        1.173   1.780   0.000  0.00  0.00    +0.090 A 
ATOM      3  C   LIG    1       -0.013   1.076   0.008  0.00  0.00    +0.040 A 
ATOM      4  C   LIG    1       -1.221   1.750   0.017  0.00  0.00    -0.050 A 
ATOM      5  C   LIG    1       -1.249   3.133   0.030  0.00  0.00    +0.030 A 
ATOM      6  C   LIG    1       -0.070   3.850   0.022  0.00  0.00    +0.040 A 
ENDROOT
BRANCH   1   9
ATOM      7  N   LIG    1        2.396   5.285   0.006  0.00  0.00    -0.580 N 
ATOM      8  H   LIG    1        1.548   5.755   0.017  0.00  0.00    +0.390 HD
ATOM      9  C   LIG    1        2.419   3.937  -0.001  0.00  0.00    +0.580 C 
ATOM     10  O   LIG    1        3.483   3.348  -0.014  0.00  0.00    -0.500 OA
BRANCH   7  13
ATOM     11  C   LIG    1        2.256   8.035   0.021  0.00  0.00    +0.090 C 
ATOM     12  C   LIG    1        3.574   7.304   0.005  0.00  0.00    +0.140 C 
ATOM     13  N   LIG    1        3.597   6.006  -0.002  0.00  0.00    -0.230 NA
BRANCH  12  14
ATOM     14  C   LIG    1        4.838   8.064  -0.004  0.00  0.00    -0.060 A 
ATOM     15  C   LIG    1        4.816   9.461  -0.002  0.00  0.00    +0.060 A 
ATOM     16  C   LIG    1        5.999  10.166  -0.005  0.00  0.00    -0.020 A 
ATOM     17  C   LIG    1        7.213   9.491  -0.020  0.00  0.00    +0.120 A 
ATOM     18  C   LIG    1        7.240   8.102  -0.027  0.00  0.00    -0.020 A 
ATOM     19  C   LIG    1        6.061   7.388  -0.019  0.00  0.00    +0.080 A 
BRANCH  17  20
ATOM     20  O   LIG    1        8.377  10.191  -0.028  0.00  0.00    -0.500 OA
ATOM     21  H   LIG    1        8.706  10.398  -0.914  0.00  0.00    +0.390 HD
ENDBRANCH  17  20
ENDBRANCH  12  14
ENDBRANCH   7  13
ENDBRANCH   1   9
BRANCH   4  22
ATOM     22  C   LIG    1       -2.513   0.974   0.020  0.00  0.00    +0.100 C 
BRANCH  22  23
ATOM     23  S   LIG    1       -3.023   0.653   1.731  0.00  0.00    -0.040 S 
BRANCH  23  24
ATOM     24  C   LIG    1       -4.524  -0.247   1.535  0.00  0.00    -0.070 A 
ATOM     25  C   LIG    1       -5.010  -0.522   0.275  0.00  0.00    +0.010 A 
ATOM     26  C   LIG    1       -6.192  -1.237   0.106  0.00  0.00    +0.030 A 
ATOM     27  C   LIG    1       -6.906  -1.675   1.181  0.00  0.00    +0.030 A 
ATOM     28  C   LIG    1       -6.447  -1.411   2.482  0.00  0.00    -0.090 A 
ATOM     29  C   LIG    1       -7.162  -1.849   3.612  0.00  0.00    +0.080 A 
ATOM     30  C   LIG    1       -6.657  -1.556   4.847  0.00  0.00    -0.030 A 
ATOM     31  C   LIG    1       -5.467  -0.841   4.960  0.00  0.00    +0.290 A 
ATOM     32  N   LIG    1       -4.805  -0.434   3.904  0.00  0.00    -0.470 NA
ATOM     33  C   LIG    1       -5.243  -0.689   2.669  0.00  0.00    +0.140 A 
ENDBRANCH  23  24
ENDBRANCH  22  23
ENDBRANCH   4  22
TORSDOF 7
