REMARK  Name = ZINCrH00000No4JL.0
REMARK                            x       y       z     vdW  Elec       q    Type
REMARK                         _______ _______ _______ _____ _____    ______ ____
ROOT
ATOM      1  N   LIG    1        1.153  -2.038  -0.020  0.00  0.00    -0.960 N 
ATOM      2  H   LIG    1        0.320  -2.535  -0.015  0.00  0.00    +0.400 HD
ENDROOT
BRANCH   1   3
ATOM      3  S   LIG    1        2.599  -2.847  -0.038  0.00  0.00    +2.720 S 
ATOM      4  O   LIG    1        3.334  -2.330  -1.139  0.00  0.00    -0.940 OA
ATOM      5  O   LIG    1        2.289  -4.226   0.111  0.00  0.00    -0.950 OA
BRANCH   3   9
ATOM      6  C   LIG    1        4.860  -1.634   3.693  0.00  0.00    +0.190 A 
ATOM      7  C   LIG    1        4.011  -2.731   3.721  0.00  0.00    -0.030 A 
ATOM      8  C   LIG    1        3.322  -3.099   2.581  0.00  0.00    +0.170 A 
ATOM      9  C   LIG    1        3.478  -2.375   1.414  0.00  0.00    -0.710 A 
ATOM     10  C   LIG    1        4.328  -1.284   1.382  0.00  0.00    +0.180 A 
ATOM     11  C   LIG    1        5.015  -0.909   2.520  0.00  0.00    -0.090 A 
BRANCH   6  12
ATOM     12  O   LIG    1        5.540  -1.270   4.812  0.00  0.00    -0.310 OA
BRANCH  12  14
ATOM     13  C   LIG    1        7.070   0.123   6.060  0.00  0.00    +0.070 C 
ATOM     14  C   LIG    1        6.396  -0.131   4.710  0.00  0.00    +0.190 C 
ENDBRANCH  12  14
ENDBRANCH   6  12
ENDBRANCH   3   9
ENDBRANCH   1   3
BRANCH   1  15
ATOM     15  N   LIG    1        1.134  -0.637  -0.012  0.00  0.00    -0.230 NA
ATOM     16  C   LIG    1        0.002  -0.004   0.002  0.00  0.00    +0.160 C 
BRANCH  16  17
ATOM     17  C   LIG    1       -0.018   1.471   0.010  0.00  0.00    -0.070 A 
ATOM     18  C   LIG    1       -1.236   2.155   0.020  0.00  0.00    +0.090 A 
ATOM     19  C   LIG    1       -1.250   3.533   0.032  0.00  0.00    -0.050 A 
ATOM     20  C   LIG    1       -0.056   4.242   0.024  0.00  0.00    +0.120 A 
ATOM     21  C   LIG    1        1.158   3.566   0.010  0.00  0.00    +0.000 A 
ATOM     22  C   LIG    1        1.181   2.188   0.003  0.00  0.00    +0.100 A 
BRANCH  20  23
ATOM     23  O   LIG    1       -0.074   5.600   0.030  0.00  0.00    -0.320 OA
BRANCH  23  24
ATOM     24  C   LIG    1       -1.356   6.231   0.045  0.00  0.00    +0.590 C 
ATOM     25  F   LIG    1       -2.055   5.841   1.192  0.00  0.00    -0.200 F 
ATOM     26  F   LIG    1       -2.076   5.851  -1.093  0.00  0.00    -0.200 F 
ENDBRANCH  23  24
ENDBRANCH  20  23
ENDBRANCH  16  17
BRANCH  16  27
ATOM     27  C   LIG    1       -1.293  -0.775   0.010  0.00  0.00    +0.040 C 
ATOM     28  C   LIG    1       -1.680  -1.137  -1.425  0.00  0.00    +0.050 C 
ENDBRANCH  16  27
ENDBRANCH   1  15
TORSDOF 9
