REMARK  Name = ZINCrg000000pY0A.0
REMARK                            x       y       z     vdW  Elec       q    Type
REMARK                         _______ _______ _______ _____ _____    ______ ____
ROOT
ATOM      1  S   LIG    1        5.115  -0.658  -0.050  0.00  0.00    +2.750 S 
ATOM      2  O   LIG    1        5.332   0.486   0.765  0.00  0.00    -0.940 OA
ATOM      3  O   LIG    1        5.523  -0.734  -1.408  0.00  0.00    -0.940 OA
ENDROOT
BRANCH   1   9
ATOM      4  C   LIG    1       -0.016   1.360   0.009  0.00  0.00    -0.150 A 
ATOM      5  C   LIG    1        0.002  -0.004   0.002  0.00  0.00    +0.340 A 
ATOM      6  N   LIG    1        1.186  -0.680  -0.013  0.00  0.00    -0.370 N 
ATOM      7  C   LIG    1        1.486  -2.006  -0.022  0.00  0.00    +0.390 A 
ATOM      8  N   LIG    1        2.785  -2.153  -0.035  0.00  0.00    -0.370 NA
ATOM      9  C   LIG    1        3.378  -0.957  -0.035  0.00  0.00    -0.560 A 
ATOM     10  C   LIG    1        2.387   0.002  -0.021  0.00  0.00    +0.130 A 
ATOM     11  C   LIG    1        2.414   1.414  -0.013  0.00  0.00    +0.060 A 
ATOM     12  C   LIG    1        1.247   2.102   0.001  0.00  0.00    +0.120 A 
BRANCH   4  13
ATOM     13  C   LIG    1       -1.300   2.083   0.020  0.00  0.00    +0.520 C 
ATOM     14  O   LIG    1       -2.346   1.464   0.021  0.00  0.00    -0.500 OA
BRANCH  13  16
ATOM     15  C   LIG    1       -2.615   4.076   0.037  0.00  0.00    +0.290 C 
ATOM     16  O   LIG    1       -1.315   3.431   0.027  0.00  0.00    -0.350 OA
ENDBRANCH  13  16
ENDBRANCH   4  13
ENDBRANCH   1   9
BRANCH   1  17
ATOM     17  N   LIG    1        5.838  -1.929   0.728  0.00  0.00    -1.000 NA
ATOM     18  C   LIG    1        6.304  -3.169   0.091  0.00  0.00    +0.280 C 
ATOM     19  C   LIG    1        6.882  -4.067   1.205  0.00  0.00    +0.060 C 
ATOM     20  C   LIG    1        6.196  -3.519   2.484  0.00  0.00    +0.090 C 
ATOM     21  C   LIG    1        6.126  -2.001   2.171  0.00  0.00    +0.310 C 
BRANCH  20  22
ATOM     22  C   LIG    1        7.041  -3.779   3.704  0.00  0.00    +0.210 A 
ATOM     23  N   LIG    1        8.264  -3.360   3.886  0.00  0.00    -0.480 NA
ATOM     24  C   LIG    1        8.701  -3.778   5.083  0.00  0.00    +0.150 A 
ATOM     25  C   LIG    1        7.712  -4.483   5.665  0.00  0.00    +0.120 A 
ATOM     26  N   LIG    1        6.657  -4.479   4.794  0.00  0.00    -0.460 N 
ATOM     27  C   LIG    1        5.355  -5.117   5.002  0.00  0.00    +0.330 C 
ENDBRANCH  20  22
ENDBRANCH   1  17
TORSDOF 5
