REMARK  Name = ZINCtV000002B3qz.0
REMARK                            x       y       z     vdW  Elec       q    Type
REMARK                         _______ _______ _______ _____ _____    ______ ____
ROOT
ATOM      1  S   LIG    1        7.318   3.251  -0.827  0.00  0.00    +0.040 S 
ENDROOT
BRANCH   1   5
ATOM      2  C   LIG    1        3.154   2.579  -0.345  0.00  0.00    +0.300 A 
ATOM      3  N   LIG    1        3.467   3.815  -0.114  0.00  0.00    -0.340 NA
ATOM      4  N   LIG    1        4.802   4.127  -0.247  0.00  0.00    -0.260 NA
ATOM      5  C   LIG    1        5.576   3.143  -0.586  0.00  0.00    +0.010 A 
ATOM      6  S   LIG    1        4.611   1.682  -0.761  0.00  0.00    +0.090 S 
BRANCH   2   7
ATOM      7  N   LIG    1        1.873   2.045  -0.271  0.00  0.00    -0.620 N 
ATOM      8  H   LIG    1        1.733   1.097  -0.424  0.00  0.00    +0.430 HD
BRANCH   7  12
ATOM      9  C   LIG    1       -1.367   4.515   0.612  0.00  0.00    +0.110 A 
ATOM     10  C   LIG    1       -0.251   5.037  -0.027  0.00  0.00    -0.050 A 
ATOM     11  C   LIG    1        0.820   4.218  -0.325  0.00  0.00    +0.060 A 
ATOM     12  C   LIG    1        0.785   2.874   0.026  0.00  0.00    +0.120 A 
ATOM     13  C   LIG    1       -0.330   2.354   0.670  0.00  0.00    +0.020 A 
ATOM     14  C   LIG    1       -1.403   3.173   0.962  0.00  0.00    +0.010 A 
BRANCH   9  16
ATOM     15  C   LIG    1       -2.320   6.692   0.509  0.00  0.00    +0.250 C 
ATOM     16  O   LIG    1       -2.424   5.321   0.899  0.00  0.00    -0.320 OA
ENDBRANCH   9  16
ENDBRANCH   7  12
ENDBRANCH   2   7
ENDBRANCH   1   5
BRANCH   1  17
ATOM     17  C   LIG    1        7.670   4.998  -0.487  0.00  0.00    +0.210 C 
BRANCH  17  18
ATOM     18  C   LIG    1        9.146   5.255  -0.653  0.00  0.00    +0.110 A 
ATOM     19  C   LIG    1       10.015   5.138   0.351  0.00  0.00    -0.090 A 
ATOM     20  S   LIG    1       11.620   5.520  -0.267  0.00  0.00    +0.150 S 
ATOM     21  C   LIG    1       10.964   5.810  -1.819  0.00  0.00    +0.300 A 
ATOM     22  N   LIG    1        9.681   5.619  -1.804  0.00  0.00    -0.530 NA
BRANCH  21  23
ATOM     23  N   LIG    1       11.697   6.193  -2.933  0.00  0.00    -0.630 N 
ATOM     24  H   LIG    1       11.268   6.246  -3.801  0.00  0.00    +0.420 HD
BRANCH  23  25
ATOM     25  C   LIG    1       13.053   6.504  -2.803  0.00  0.00    +0.150 A 
ATOM     26  C   LIG    1       13.500   7.230  -1.706  0.00  0.00    -0.020 A 
ATOM     27  C   LIG    1       14.842   7.529  -1.579  0.00  0.00    +0.040 A 
ATOM     28  C   LIG    1       15.739   7.118  -2.547  0.00  0.00    -0.100 A 
ATOM     29  C   LIG    1       15.297   6.400  -3.643  0.00  0.00    +0.040 A 
ATOM     30  C   LIG    1       17.202   7.453  -2.408  0.00  0.00    +0.090 C 
ATOM     31  C   LIG    1       13.958   6.091  -3.774  0.00  0.00    +0.000 A 
ENDBRANCH  23  25
ENDBRANCH  21  23
ENDBRANCH  17  18
ENDBRANCH   1  17
TORSDOF 8
