REMARK  Name = ZINCtV00001bB3Qz.0
REMARK                            x       y       z     vdW  Elec       q    Type
REMARK                         _______ _______ _______ _____ _____    ______ ____
ROOT
ATOM      1  P   LIG    1        2.420  -4.590  -0.067  0.00  0.00    +2.690 P 
ATOM      2  C   LIG    1        2.443  -2.763  -0.041  0.00  0.00    -0.710 C 
ATOM      3  C   LIG    1        1.248  -2.162  -0.021  0.00  0.00    +0.210 C 
ATOM      4  O   LIG    1        0.078  -2.805  -0.013  0.00  0.00    -0.270 OA
ATOM      5  C   LIG    1       -0.206  -4.058  -0.374  0.00  0.00    +0.230 C 
ATOM      6  O   LIG    1        2.803  -5.131   1.256  0.00  0.00    -1.020 OA
ATOM      7  C   LIG    1        0.693  -5.045  -0.461  0.00  0.00    -0.740 C 
ENDROOT
BRANCH   5   8
ATOM      8  C   LIG    1       -1.614  -4.379  -0.702  0.00  0.00    -0.080 A 
ATOM      9  C   LIG    1       -1.966  -5.671  -1.091  0.00  0.00    +0.050 A 
ATOM     10  C   LIG    1       -3.280  -5.965  -1.389  0.00  0.00    +0.010 A 
ATOM     11  C   LIG    1       -4.247  -4.978  -1.315  0.00  0.00    +0.030 A 
ATOM     12  C   LIG    1       -3.903  -3.693  -0.935  0.00  0.00    +0.010 A 
ATOM     13  C   LIG    1       -2.593  -3.388  -0.628  0.00  0.00    +0.050 A 
ENDBRANCH   5   8
BRANCH   3  14
ATOM     14  C   LIG    1        1.221  -0.682  -0.013  0.00  0.00    -0.070 A 
ATOM     15  C   LIG    1        0.002  -0.004   0.002  0.00  0.00    +0.040 A 
ATOM     16  C   LIG    1       -0.017   1.376   0.010  0.00  0.00    +0.010 A 
ATOM     17  C   LIG    1        1.170   2.086   0.002  0.00  0.00    +0.030 A 
ATOM     18  C   LIG    1        2.382   1.420  -0.013  0.00  0.00    +0.010 A 
ATOM     19  C   LIG    1        2.414   0.040  -0.021  0.00  0.00    +0.050 A 
ENDBRANCH   3  14
BRANCH   1  20
ATOM     20  N   LIG    1        3.434  -5.155  -1.226  0.00  0.00    -1.020 N 
ATOM     21  H   LIG    1        3.080  -5.651  -1.981  0.00  0.00    +0.390 HD
BRANCH  20  24
ATOM     22  C   LIG    1        5.064  -6.137  -3.215  0.00  0.00    +0.090 C 
ATOM     23  C   LIG    1        5.614  -5.367  -2.043  0.00  0.00    +0.140 C 
ATOM     24  N   LIG    1        4.811  -4.920  -1.126  0.00  0.00    -0.220 NA
BRANCH  23  25
ATOM     25  C   LIG    1        7.064  -5.120  -1.937  0.00  0.00    -0.050 A 
ATOM     26  C   LIG    1        7.932  -5.604  -2.919  0.00  0.00    +0.030 A 
ATOM     27  C   LIG    1        9.286  -5.366  -2.816  0.00  0.00    +0.010 A 
ATOM     28  C   LIG    1        9.788  -4.658  -1.738  0.00  0.00    +0.010 A 
ATOM     29  C   LIG    1        8.935  -4.179  -0.759  0.00  0.00    +0.010 A 
ATOM     30  C   LIG    1        7.577  -4.406  -0.852  0.00  0.00    +0.060 A 
ENDBRANCH  23  25
ENDBRANCH  20  24
ENDBRANCH   1  20
TORSDOF 5
