REMARK  Name = ZINCrg000000qZIE.0
REMARK                            x       y       z     vdW  Elec       q    Type
REMARK                         _______ _______ _______ _____ _____    ______ ____
ROOT
ATOM      1  N   LIG    1        6.740  -0.310   1.242  0.00  0.00    -0.570 N 
ATOM      2  C   LIG    1        5.589  -0.840   1.981  0.00  0.00    +0.310 C 
ATOM      3  C   LIG    1        4.442   0.166   1.736  0.00  0.00    +0.000 C 
ATOM      4  C   LIG    1        4.858   0.794   0.385  0.00  0.00    +0.090 C 
ATOM      5  C   LIG    1        6.358   0.606   0.335  0.00  0.00    +0.530 C 
ATOM      6  O   LIG    1        7.108   1.195  -0.415  0.00  0.00    -0.510 OA
ENDROOT
BRANCH   3   7
ATOM      7  C   LIG    1        3.118  -0.543   1.615  0.00  0.00    +0.530 C 
ATOM      8  N   LIG    1        1.992   0.164   1.399  0.00  0.00    -0.610 N 
ATOM      9  C   LIG    1        2.030   1.630   1.276  0.00  0.00    +0.250 C 
ATOM     10  C   LIG    1        1.279   2.028   0.001  0.00  0.00    +0.240 C 
ATOM     11  O   LIG    1       -0.017   1.425   0.010  0.00  0.00    -0.360 OA
ATOM     12  C   LIG    1        0.002  -0.004   0.002  0.00  0.00    +0.270 C 
ATOM     13  C   LIG    1        0.688  -0.507   1.278  0.00  0.00    +0.280 C 
ATOM     14  O   LIG    1        3.066  -1.751   1.714  0.00  0.00    -0.520 OA
BRANCH  12  15
ATOM     15  C   LIG    1       -1.411  -0.526  -0.049  0.00  0.00    +0.170 A 
ATOM     16  N   LIG    1       -2.412  -0.106   0.664  0.00  0.00    -0.350 NA
ATOM     17  O   LIG    1       -3.416  -0.728   0.385  0.00  0.00    +0.090 OA
ATOM     18  C   LIG    1       -3.139  -1.637  -0.554  0.00  0.00    +0.440 A 
ATOM     19  N   LIG    1       -1.865  -1.517  -0.838  0.00  0.00    -0.480 NA
ENDBRANCH  12  15
ENDBRANCH   3   7
BRANCH   1  25
ATOM     20  C   LIG    1        8.859  -0.031   2.380  0.00  0.00    +0.140 A 
ATOM     21  C   LIG    1       10.168  -0.432   2.589  0.00  0.00    -0.070 A 
ATOM     22  C   LIG    1       10.690  -1.493   1.872  0.00  0.00    +0.060 A 
ATOM     23  C   LIG    1        9.907  -2.161   0.950  0.00  0.00    -0.020 A 
ATOM     24  C   LIG    1        8.597  -1.771   0.739  0.00  0.00    +0.060 A 
ATOM     25  C   LIG    1        8.067  -0.707   1.454  0.00  0.00    +0.110 A 
BRANCH  20  27
ATOM     26  C   LIG    1        9.216   1.661   4.012  0.00  0.00    +0.250 C 
ATOM     27  O   LIG    1        8.346   1.016   3.080  0.00  0.00    -0.310 OA
ENDBRANCH  20  27
ENDBRANCH   1  25
TORSDOF 4
