REMARK  Name = ZINCvU00000006bI.0
REMARK                            x       y       z     vdW  Elec       q    Type
REMARK                         _______ _______ _______ _____ _____    ______ ____
ROOT
ATOM      1  C   LIG    1        3.814  -7.887   3.426  0.00  0.00    +0.110 C 
ATOM      2  C   LIG    1        4.019  -6.517   2.831  0.00  0.00    -0.080 A 
ATOM      3  C   LIG    1        2.984  -5.896   2.159  0.00  0.00    +0.030 A 
ATOM      4  C   LIG    1        3.164  -4.642   1.611  0.00  0.00    +0.030 A 
ATOM      5  C   LIG    1        4.396  -3.997   1.735  0.00  0.00    -0.120 A 
ATOM      6  C   LIG    1        5.443  -4.626   2.408  0.00  0.00    +0.100 A 
ATOM      7  C   LIG    1        5.250  -5.883   2.960  0.00  0.00    +0.140 A 
ENDROOT
BRANCH   5   8
ATOM      8  C   LIG    1        4.592  -2.654   1.148  0.00  0.00    +0.560 C 
ATOM      9  N   LIG    1        3.581  -2.051   0.493  0.00  0.00    -0.720 N 
ATOM     10  H   LIG    1        2.724  -2.497   0.406  0.00  0.00    +0.400 HD
ATOM     11  O   LIG    1        5.665  -2.094   1.257  0.00  0.00    -0.530 OA
BRANCH   9  12
ATOM     12  C   LIG    1        3.775  -0.720  -0.088  0.00  0.00    +0.300 C 
ATOM     13  C   LIG    1        4.289  -0.860  -1.523  0.00  0.00    +0.040 C 
BRANCH  12  14
ATOM     14  C   LIG    1        2.463   0.022  -0.094  0.00  0.00    -0.110 A 
ATOM     15  C   LIG    1        1.273  -0.678  -0.120  0.00  0.00    +0.040 A 
ATOM     16  C   LIG    1        0.069   0.002  -0.126  0.00  0.00    -0.010 A 
ATOM     17  C   LIG    1        0.054   1.384  -0.106  0.00  0.00    +0.050 A 
ATOM     18  C   LIG    1        1.241   2.089  -0.079  0.00  0.00    -0.040 A 
ATOM     19  C   LIG    1        2.450   1.409  -0.073  0.00  0.00    +0.120 A 
BRANCH  19  20
ATOM     20  O   LIG    1        3.620   2.101  -0.048  0.00  0.00    -0.320 OA
BRANCH  20  21
ATOM     21  C   LIG    1        3.530   3.527  -0.028  0.00  0.00    +0.590 C 
ATOM     22  F   LIG    1        2.829   3.934   1.112  0.00  0.00    -0.200 F 
ATOM     23  F   LIG    1        2.857   3.968  -1.172  0.00  0.00    -0.200 F 
ENDBRANCH  20  21
ENDBRANCH  19  20
ENDBRANCH  12  14
ENDBRANCH   9  12
ENDBRANCH   5   8
BRANCH   7  24
ATOM     24  N   LIG    1        6.295  -6.516   3.641  0.00  0.00    -0.670 N 
ATOM     25  H   LIG    1        6.391  -7.480   3.593  0.00  0.00    +0.410 HD
ATOM     26  C   LIG    1        7.167  -5.787   4.364  0.00  0.00    +0.560 C 
ATOM     27  O   LIG    1        7.092  -4.573   4.363  0.00  0.00    -0.510 OA
BRANCH  26  28
ATOM     28  C   LIG    1        8.215  -6.462   5.158  0.00  0.00    -0.140 A 
ATOM     29  C   LIG    1        8.301  -7.855   5.166  0.00  0.00    +0.030 A 
ATOM     30  C   LIG    1        9.284  -8.479   5.906  0.00  0.00    +0.000 A 
ATOM     31  C   LIG    1       10.178  -7.727   6.647  0.00  0.00    +0.040 A 
ATOM     32  C   LIG    1       10.096  -6.346   6.647  0.00  0.00    +0.000 A 
ATOM     33  C   LIG    1        9.121  -5.709   5.908  0.00  0.00    +0.080 A 
ENDBRANCH  26  28
ENDBRANCH   7  24
TORSDOF 7
