REMARK  Name = ZINCpe000000VOFA.0
REMARK                            x       y       z     vdW  Elec       q    Type
REMARK                         _______ _______ _______ _____ _____    ______ ____
ROOT
ATOM      1  N   LIG    1        0.747   5.735  -1.501  0.00  0.00    -0.600 N 
ATOM      2  C   LIG    1       -0.243   6.529  -1.955  0.00  0.00    +0.610 C 
ATOM      3  O   LIG    1       -1.231   6.720  -1.272  0.00  0.00    -0.540 OA
ENDROOT
BRANCH   2   4
ATOM      4  C   LIG    1       -0.129   7.165  -3.280  0.00  0.00    -0.270 A 
ATOM      5  C   LIG    1       -1.125   7.263  -4.231  0.00  0.00    +0.310 A 
ATOM      6  N   LIG    1       -0.611   7.915  -5.286  0.00  0.00    -0.360 N 
ATOM      7  N   LIG    1        0.725   8.225  -5.008  0.00  0.00    -0.290 NA
ATOM      8  C   LIG    1        1.022   7.784  -3.817  0.00  0.00    +0.270 A 
BRANCH   6   9
ATOM      9  C   LIG    1       -1.325   8.240  -6.523  0.00  0.00    +0.340 C 
BRANCH   9  10
ATOM     10  C   LIG    1       -1.229   9.744  -6.787  0.00  0.00    +0.180 C 
BRANCH  10  11
ATOM     11  O   LIG    1       -1.927  10.061  -7.993  0.00  0.00    -0.570 OA
ATOM     12  H   LIG    1       -1.907  11.000  -8.223  0.00  0.00    +0.390 HD
ENDBRANCH  10  11
ENDBRANCH   9  10
ENDBRANCH   6   9
ENDBRANCH   2   4
BRANCH   1  13
ATOM     13  C   LIG    1        1.878   5.405  -2.371  0.00  0.00    +0.300 C 
BRANCH  13  14
ATOM     14  C   LIG    1        1.538   4.165  -3.201  0.00  0.00    +0.160 C 
BRANCH  14  16
ATOM     15  C   LIG    1        0.058   3.370  -4.911  0.00  0.00    +0.190 C 
ATOM     16  O   LIG    1        0.456   4.466  -4.085  0.00  0.00    -0.370 OA
ENDBRANCH  14  16
ENDBRANCH  13  14
ENDBRANCH   1  13
BRANCH   1  17
ATOM     17  C   LIG    1        0.692   5.203  -0.137  0.00  0.00    +0.350 C 
BRANCH  17  18
ATOM     18  C   LIG    1       -0.026   3.878  -0.144  0.00  0.00    -0.100 A 
ATOM     19  C   LIG    1       -1.396   3.835   0.030  0.00  0.00    +0.070 A 
ATOM     20  C   LIG    1       -2.059   2.621   0.020  0.00  0.00    +0.040 A 
ATOM     21  C   LIG    1       -1.350   1.445  -0.156  0.00  0.00    +0.040 A 
ATOM     22  O   LIG    1       -1.755   0.142  -0.203  0.00  0.00    -0.310 OA
ATOM     23  C   LIG    1       -0.562  -0.639  -0.001  0.00  0.00    +0.430 C 
ATOM     24  O   LIG    1        0.491   0.213  -0.489  0.00  0.00    -0.310 OA
ATOM     25  C   LIG    1        0.031   1.488  -0.332  0.00  0.00    +0.020 A 
ATOM     26  C   LIG    1        0.689   2.707  -0.325  0.00  0.00    +0.040 A 
ENDBRANCH  17  18
ENDBRANCH   1  17
TORSDOF 9
