REMARK  Name = ZINCqH0000008Er4.0
REMARK                            x       y       z     vdW  Elec       q    Type
REMARK                         _______ _______ _______ _____ _____    ______ ____
ROOT
ATOM      1  C   LIG    1       -2.822   5.033  -1.001  0.00  0.00    +0.030 C 
ATOM      2  C   LIG    1       -2.606   4.171   0.244  0.00  0.00    +0.240 C 
ATOM      3  C   LIG    1       -2.550   5.066   1.491  0.00  0.00    +0.020 C 
ATOM      4  C   LIG    1       -1.321   5.974   1.406  0.00  0.00    +0.020 C 
ATOM      5  C   LIG    1       -0.053   5.117   1.372  0.00  0.00    -0.020 C 
ATOM      6  C   LIG    1       -0.080   4.222   0.129  0.00  0.00    +0.270 C 
ATOM      7  N   LIG    1       -1.331   3.450   0.129  0.00  0.00    -0.600 N 
ATOM      8  C   LIG    1       -1.309   2.107   0.020  0.00  0.00    +0.560 C 
ATOM      9  O   LIG    1       -2.351   1.486  -0.048  0.00  0.00    -0.520 OA
ENDROOT
BRANCH   8  10
ATOM     10  C   LIG    1       -0.016   1.389  -0.017  0.00  0.00    -0.060 A 
ATOM     11  C   LIG    1        0.981   1.792  -0.914  0.00  0.00    +0.020 A 
ATOM     12  C   LIG    1        2.174   1.137  -0.963  0.00  0.00    +0.120 A 
ATOM     13  C   LIG    1        2.416   0.047  -0.111  0.00  0.00    +0.040 A 
ATOM     14  N   LIG    1        3.599  -0.597  -0.163  0.00  0.00    -0.400 NA
ATOM     15  C   LIG    1        3.848  -1.610   0.616  0.00  0.00    +0.310 A 
ATOM     16  C   LIG    1        2.836  -2.073   1.574  0.00  0.00    +0.490 A 
ATOM     17  N   LIG    1        1.647  -1.434   1.635  0.00  0.00    -0.620 N 
ATOM     18  H   LIG    1        0.964  -1.724   2.261  0.00  0.00    +0.420 HD
ATOM     19  O   LIG    1        3.065  -3.020   2.304  0.00  0.00    -0.510 OA
ATOM     20  C   LIG    1        1.418  -0.363   0.793  0.00  0.00    +0.150 A 
ATOM     21  C   LIG    1        0.204   0.312   0.835  0.00  0.00    +0.030 A 
ENDBRANCH   8  10
BRANCH   5  22
ATOM     22  C   LIG    1        1.176   6.026   1.320  0.00  0.00    -0.010 C 
ATOM     23  C   LIG    1        2.443   5.168   1.281  0.00  0.00    +0.000 C 
ATOM     24  C   LIG    1        3.673   6.077   1.229  0.00  0.00    +0.000 C 
ATOM     25  C   LIG    1        3.699   6.971   2.471  0.00  0.00    +0.000 C 
ATOM     26  C   LIG    1        2.433   7.828   2.510  0.00  0.00    +0.000 C 
ATOM     27  C   LIG    1        1.203   6.919   2.562  0.00  0.00    +0.020 C 
ENDBRANCH   5  22
TORSDOF 2
