REMARK  Name = ZINCpk00000jU5wT.0
REMARK                            x       y       z     vdW  Elec       q    Type
REMARK                         _______ _______ _______ _____ _____    ______ ____
ROOT
ATOM      1  C   LIG    1       -1.919   2.353  -0.705  0.00  0.00    +0.240 C 
ATOM      2  C   LIG    1       -1.544   2.821   0.724  0.00  0.00    +0.070 C 
ATOM      3  C   LIG    1       -0.756   1.594   1.261  0.00  0.00    +0.150 C 
ATOM      4  C   LIG    1       -0.013   1.086   0.008  0.00  0.00    +0.180 C 
ATOM      5  N   LIG    1       -0.746   1.584  -1.170  0.00  0.00    -0.500 NA
ENDROOT
BRANCH   1  12
ATOM      6  N   LIG    1       -3.102   4.517  -1.399  0.00  0.00    -0.550 N 
ATOM      7  C   LIG    1       -3.012   5.409  -2.406  0.00  0.00    +0.650 A 
ATOM      8  N   LIG    1       -2.023   4.994  -3.225  0.00  0.00    -0.550 N 
ATOM      9  H   LIG    1       -1.726   5.434  -4.037  0.00  0.00    +0.460 HD
ATOM     10  N   LIG    1       -1.500   3.813  -2.682  0.00  0.00    -0.240 NA
ATOM     11  O   LIG    1       -3.698   6.405  -2.551  0.00  0.00    -0.560 OA
ATOM     12  C   LIG    1       -2.157   3.541  -1.600  0.00  0.00    +0.280 A 
BRANCH   6  14
ATOM     13  C   LIG    1       -3.423   5.366   0.872  0.00  0.00    +0.040 C 
ATOM     14  C   LIG    1       -4.048   4.578  -0.281  0.00  0.00    +0.310 C 
ENDBRANCH   6  14
ENDBRANCH   1  12
BRANCH   3  15
ATOM     15  O   LIG    1        0.172   1.990   2.273  0.00  0.00    -0.370 OA
ATOM     16  C   LIG    1        0.513   0.947   3.189  0.00  0.00    +0.200 C 
ENDBRANCH   3  15
BRANCH   5  17
ATOM     17  C   LIG    1       -1.155   0.475  -2.043  0.00  0.00    +0.240 C 
BRANCH  17  18
ATOM     18  C   LIG    1        0.062  -0.119  -2.705  0.00  0.00    -0.110 A 
ATOM     19  C   LIG    1        0.495   0.368  -3.924  0.00  0.00    +0.080 A 
ATOM     20  C   LIG    1        1.613  -0.167  -4.531  0.00  0.00    -0.010 A 
ATOM     21  C   LIG    1        2.309  -1.209  -3.924  0.00  0.00    +0.110 A 
ATOM     22  O   LIG    1        3.424  -1.872  -4.337  0.00  0.00    -0.310 OA
ATOM     23  C   LIG    1        3.518  -3.124  -3.637  0.00  0.00    +0.240 C 
ATOM     24  C   LIG    1        2.786  -2.828  -2.306  0.00  0.00    +0.070 C 
ATOM     25  C   LIG    1        1.857  -1.698  -2.704  0.00  0.00    -0.180 A 
ATOM     26  C   LIG    1        0.746  -1.157  -2.097  0.00  0.00    +0.060 A 
ENDBRANCH  17  18
ENDBRANCH   5  17
TORSDOF 5
