REMARK  Name = ZINCrH000004nsFF.1
REMARK                            x       y       z     vdW  Elec       q    Type
REMARK                         _______ _______ _______ _____ _____    ______ ____
ROOT
ATOM      1  N   LIG    1       -2.221  -0.200  -0.315  0.00  0.00    -0.740 N 
ATOM      2  H   LIG    1       -2.681  -0.952  -0.718  0.00  0.00    +0.400 HD
ATOM      3  C   LIG    1       -1.119  -0.406   0.434  0.00  0.00    +0.700 C 
ATOM      4  N   LIG    1       -0.657  -1.658   0.622  0.00  0.00    -0.730 N 
ATOM      5  H   LIG    1       -1.117  -2.410   0.219  0.00  0.00    +0.400 HD
ATOM      6  O   LIG    1       -0.541   0.538   0.939  0.00  0.00    -0.570 OA
ENDROOT
BRANCH   1   7
ATOM      7  C   LIG    1       -2.719   1.162  -0.524  0.00  0.00    +0.280 C 
BRANCH   7   8
ATOM      8  C   LIG    1       -3.869   1.134  -1.534  0.00  0.00    +0.210 C 
BRANCH   8  13
ATOM      9  C   LIG    1       -5.942   4.213  -0.828  0.00  0.00    +0.130 A 
ATOM     10  C   LIG    1       -5.564   5.044  -1.872  0.00  0.00    -0.080 A 
ATOM     11  C   LIG    1       -4.641   4.606  -2.802  0.00  0.00    +0.050 A 
ATOM     12  C   LIG    1       -4.089   3.344  -2.688  0.00  0.00    +0.010 A 
ATOM     13  C   LIG    1       -4.468   2.512  -1.651  0.00  0.00    -0.040 A 
ATOM     14  C   LIG    1       -5.391   2.944  -0.719  0.00  0.00    -0.020 A 
BRANCH   9  16
ATOM     15  C   LIG    1       -7.376   5.959  -0.086  0.00  0.00    +0.250 C 
ATOM     16  O   LIG    1       -6.850   4.641   0.088  0.00  0.00    -0.320 OA
ENDBRANCH   9  16
ENDBRANCH   8  13
BRANCH   8  17
ATOM     17  N   LIG    1       -3.359   0.709  -2.844  0.00  0.00    -0.530 NA
ATOM     18  C   LIG    1       -3.432  -0.752  -2.989  0.00  0.00    +0.200 C 
ATOM     19  C   LIG    1       -1.988   1.190  -3.058  0.00  0.00    +0.200 C 
ENDBRANCH   8  17
ENDBRANCH   7   8
ENDBRANCH   1   7
BRANCH   4  20
ATOM     20  C   LIG    1        0.541  -1.882   1.435  0.00  0.00    +0.270 C 
BRANCH  20  21
ATOM     21  C   LIG    1        0.511  -3.300   2.008  0.00  0.00    -0.010 C 
ATOM     22  C   LIG    1        0.324  -4.325   0.871  0.00  0.00    +0.020 C 
ATOM     23  C   LIG    1       -0.594  -5.412   1.485  0.00  0.00    +0.010 C 
ATOM     24  C   LIG    1       -1.574  -4.581   2.350  0.00  0.00    +0.000 C 
ATOM     25  C   LIG    1       -0.696  -3.463   2.949  0.00  0.00    +0.020 C 
ENDBRANCH  20  21
BRANCH  20  26
ATOM     26  C   LIG    1        1.788  -1.710   0.565  0.00  0.00    +0.430 C 
ATOM     27  F   LIG    1        1.736  -2.608  -0.506  0.00  0.00    -0.180 F 
ATOM     28  F   LIG    1        2.930  -1.963   1.332  0.00  0.00    -0.180 F 
ATOM     29  F   LIG    1        1.837  -0.401   0.074  0.00  0.00    -0.170 F 
ENDBRANCH  20  26
ENDBRANCH   4  20
TORSDOF 8
