REMARK  Name = ZINCah0000002nrl.0
REMARK                            x       y       z     vdW  Elec       q    Type
REMARK                         _______ _______ _______ _____ _____    ______ ____
ROOT
ATOM      1  N   LIG    1       -0.704   1.998   1.216  0.00  0.00    -0.370 N 
ATOM      2  C   LIG    1       -0.200   2.861   2.137  0.00  0.00    +0.140 A 
ATOM      3  C   LIG    1       -1.147   3.039   3.093  0.00  0.00    +0.060 A 
ATOM      4  C   LIG    1       -2.261   2.262   2.744  0.00  0.00    +0.180 A 
ATOM      5  N   LIG    1       -1.998   1.646   1.620  0.00  0.00    -0.270 NA
ENDROOT
BRANCH   3   6
ATOM      6  N   LIG    1       -1.032   3.858   4.232  0.00  0.00    -0.880 N 
ATOM      7  H   LIG    1       -1.767   3.921   4.862  0.00  0.00    +0.400 HD
ATOM      8  H   LIG    1       -0.216   4.360   4.388  0.00  0.00    +0.390 HD
ENDBRANCH   3   6
BRANCH   1   9
ATOM      9  C   LIG    1       -0.019   1.526   0.010  0.00  0.00    +0.310 C 
BRANCH   9  11
ATOM     10  C   LIG    1        0.606  -0.499  -1.314  0.00  0.00    +0.030 C 
ATOM     11  C   LIG    1        0.002  -0.004   0.002  0.00  0.00    -0.020 C 
ATOM     12  C   LIG    1        0.848  -0.509   1.173  0.00  0.00    +0.010 C 
ENDBRANCH   9  11
ENDBRANCH   1   9
TORSDOF 3
