REMARK  Name = ZINCpk00000y6uVx.0
REMARK                            x       y       z     vdW  Elec       q    Type
REMARK                         _______ _______ _______ _____ _____    ______ ____
ROOT
ATOM      1  N   LIG    1       -3.732  -0.310   3.820  0.00  0.00    -0.720 N 
ATOM      2  H   LIG    1       -4.120   0.050   3.008  0.00  0.00    +0.400 HD
ATOM      3  C   LIG    1       -4.422  -1.202   4.559  0.00  0.00    +0.520 C 
ATOM      4  O   LIG    1       -3.936  -1.652   5.575  0.00  0.00    -0.530 OA
ENDROOT
BRANCH   3   5
ATOM      5  C   LIG    1       -5.796  -1.639   4.122  0.00  0.00    +0.000 C 
ATOM      6  C   LIG    1       -6.764  -0.437   4.114  0.00  0.00    +0.220 C 
ATOM      7  N   LIG    1       -8.057  -0.997   4.592  0.00  0.00    -0.450 N 
ATOM      8  C   LIG    1       -7.671  -1.944   5.668  0.00  0.00    +0.210 C 
ATOM      9  C   LIG    1       -6.392  -2.631   5.143  0.00  0.00    +0.020 C 
ATOM     10  C   LIG    1       -6.742  -3.953   4.457  0.00  0.00    +0.040 C 
BRANCH   7  11
ATOM     11  C   LIG    1       -8.883   0.007   5.084  0.00  0.00    +0.300 A 
ATOM     12  C   LIG    1       -9.353   0.996   4.226  0.00  0.00    -0.040 A 
ATOM     13  C   LIG    1      -10.175   1.988   4.729  0.00  0.00    +0.080 A 
ATOM     14  C   LIG    1      -10.500   1.959   6.079  0.00  0.00    -0.060 A 
ATOM     15  C   LIG    1       -9.998   0.947   6.873  0.00  0.00    +0.280 A 
ATOM     16  N   LIG    1       -9.220   0.011   6.365  0.00  0.00    -0.510 NA
ENDBRANCH   7  11
ENDBRANCH   3   5
BRANCH   1  17
ATOM     17  C   LIG    1       -2.396   0.115   4.245  0.00  0.00    +0.350 C 
BRANCH  17  22
ATOM     18  C   LIG    1       -0.268   3.870   0.432  0.00  0.00    +0.130 C 
ATOM     19  C   LIG    1       -0.829   2.892   1.432  0.00  0.00    +0.180 A 
ATOM     20  C   LIG    1       -1.464   3.352   2.535  0.00  0.00    -0.090 A 
ATOM     21  C   LIG    1       -1.984   2.448   3.472  0.00  0.00    +0.160 A 
ATOM     22  C   LIG    1       -1.847   1.109   3.253  0.00  0.00    -0.250 A 
ATOM     23  C   LIG    1       -1.187   0.665   2.095  0.00  0.00    +0.520 A 
ATOM     24  O   LIG    1       -1.057  -0.531   1.887  0.00  0.00    -0.540 OA
ATOM     25  N   LIG    1       -0.698   1.558   1.213  0.00  0.00    -0.500 N 
ATOM     26  C   LIG    1       -0.013   1.086   0.008  0.00  0.00    +0.320 C 
ENDBRANCH  17  22
ENDBRANCH   1  17
TORSDOF 4
