REMARK  Name = ZINCpk00000xIiY6.0
REMARK                            x       y       z     vdW  Elec       q    Type
REMARK                         _______ _______ _______ _____ _____    ______ ____
ROOT
ATOM      1  N   LIG    1       -0.721   1.571  -1.179  0.00  0.00    -0.570 N 
ATOM      2  C   LIG    1       -1.708   0.905  -1.790  0.00  0.00    +0.700 C 
ATOM      3  N   LIG    1       -2.193   1.569  -2.855  0.00  0.00    -0.720 N 
ATOM      4  H   LIG    1       -2.908   1.278  -3.443  0.00  0.00    +0.440 HD
ATOM      5  C   LIG    1       -1.423   2.820  -2.958  0.00  0.00    +0.230 C 
ATOM      6  O   LIG    1       -2.121  -0.177  -1.422  0.00  0.00    -0.540 OA
ATOM      7  C   LIG    1       -0.456   2.741  -1.793  0.00  0.00    +0.530 C 
ATOM      8  O   LIG    1        0.382   3.559  -1.480  0.00  0.00    -0.440 OA
ENDROOT
BRANCH   1   9
ATOM      9  C   LIG    1       -0.013   1.086   0.008  0.00  0.00    +0.430 C 
BRANCH   9  13
ATOM     10  O   LIG    1       -2.493   0.369   4.024  0.00  0.00    -0.510 OA
ATOM     11  C   LIG    1       -1.961   1.151   3.251  0.00  0.00    +0.530 A 
ATOM     12  C   LIG    1       -1.319   0.676   2.106  0.00  0.00    -0.100 A 
ATOM     13  C   LIG    1       -0.718   1.572   1.248  0.00  0.00    +0.180 A 
ATOM     14  N   LIG    1       -0.774   2.869   1.525  0.00  0.00    -0.490 NA
ATOM     15  C   LIG    1       -1.386   3.317   2.605  0.00  0.00    +0.310 A 
ATOM     16  S   LIG    1       -1.618   4.961   3.225  0.00  0.00    +0.180 S 
ATOM     17  C   LIG    1       -2.525   4.436   4.655  0.00  0.00    +0.020 A 
ATOM     18  C   LIG    1       -2.587   3.119   4.570  0.00  0.00    +0.240 A 
ATOM     19  N   LIG    1       -1.996   2.492   3.501  0.00  0.00    -0.470 N 
ENDBRANCH   9  13
ENDBRANCH   1   9
BRANCH   5  20
ATOM     20  C   LIG    1       -0.664   2.878  -4.285  0.00  0.00    +0.110 C 
BRANCH  20  21
ATOM     21  C   LIG    1       -1.641   3.079  -5.415  0.00  0.00    -0.090 A 
ATOM     22  C   LIG    1       -2.196   1.986  -6.051  0.00  0.00    +0.000 A 
ATOM     23  C   LIG    1       -3.095   2.171  -7.085  0.00  0.00    +0.000 A 
ATOM     24  C   LIG    1       -3.432   3.450  -7.487  0.00  0.00    +0.000 A 
ATOM     25  C   LIG    1       -2.873   4.543  -6.854  0.00  0.00    +0.000 A 
ATOM     26  C   LIG    1       -1.977   4.358  -5.817  0.00  0.00    +0.020 A 
ENDBRANCH  20  21
ENDBRANCH   5  20
TORSDOF 4
