REMARK  Name = ZINCrD000000CaYW.0
REMARK                            x       y       z     vdW  Elec       q    Type
REMARK                         _______ _______ _______ _____ _____    ______ ____
ROOT
ATOM      1  O   LIG    1       -3.587   2.976   0.137  0.00  0.00    -0.550 OA
ATOM      2  C   LIG    1       -3.595   1.760   0.130  0.00  0.00    +0.710 C 
ATOM      3  N   LIG    1       -4.761   1.093   0.234  0.00  0.00    -0.620 N 
ATOM      4  C   LIG    1       -6.005   1.801   0.358  0.00  0.00    +0.310 C 
ATOM      5  C   LIG    1       -6.230   2.333   1.783  0.00  0.00    +0.090 C 
ATOM      6  C   LIG    1       -5.790   1.314   2.865  0.00  0.00    -0.570 C 
ATOM      7  S   LIG    1       -6.217  -0.396   2.536  0.00  0.00    +2.440 S 
ATOM      8  C   LIG    1       -4.766  -0.942   1.569  0.00  0.00    -0.340 C 
ATOM      9  O   LIG    1       -6.238  -1.107   3.766  0.00  0.00    -0.930 OA
ATOM     10  O   LIG    1       -7.362  -0.425   1.695  0.00  0.00    -0.930 OA
ATOM     11  C   LIG    1       -4.326   1.524   3.282  0.00  0.00    +0.070 C 
ATOM     12  C   LIG    1       -4.844   2.555   4.298  0.00  0.00    +0.050 C 
ATOM     13  C   LIG    1       -6.177   1.790   4.276  0.00  0.00    +0.080 C 
ATOM     14  C   LIG    1       -4.791  -0.390   0.227  0.00  0.00    +0.320 C 
ATOM     15  N   LIG    1       -2.437   1.080   0.019  0.00  0.00    -0.680 N 
ATOM     16  H   LIG    1       -2.448   0.114  -0.063  0.00  0.00    +0.410 HD
ENDROOT
BRANCH  15  17
ATOM     17  C   LIG    1       -1.221   1.766   0.023  0.00  0.00    +0.210 A 
ATOM     18  C   LIG    1       -1.063   2.935   0.767  0.00  0.00    -0.030 A 
ATOM     19  C   LIG    1        0.152   3.591   0.744  0.00  0.00    +0.290 A 
ATOM     20  N   LIG    1        1.161   3.125   0.035  0.00  0.00    -0.490 NA
ATOM     21  C   LIG    1        1.056   2.013  -0.684  0.00  0.00    +0.190 A 
ATOM     22  C   LIG    1       -0.135   1.296  -0.711  0.00  0.00    -0.060 A 
BRANCH  21  23
ATOM     23  C   LIG    1        2.222   1.530  -1.465  0.00  0.00    -0.050 A 
ATOM     24  C   LIG    1        2.124   0.361  -2.217  0.00  0.00    +0.020 A 
ATOM     25  C   LIG    1        3.209  -0.079  -2.947  0.00  0.00    +0.010 A 
ATOM     26  C   LIG    1        4.396   0.630  -2.923  0.00  0.00    +0.010 A 
ATOM     27  C   LIG    1        4.501   1.788  -2.173  0.00  0.00    +0.000 A 
ATOM     28  C   LIG    1        3.420   2.241  -1.445  0.00  0.00    +0.060 A 
ENDBRANCH  21  23
ENDBRANCH  15  17
TORSDOF 2
