REMARK  Name = ZINCpk00000xYFkt.0
REMARK                            x       y       z     vdW  Elec       q    Type
REMARK                         _______ _______ _______ _____ _____    ______ ____
ROOT
ATOM      1  C   LIG    1       -3.507   7.382   0.072  0.00  0.00    +0.600 C 
ATOM      2  N   LIG    1       -3.399   8.721   0.179  0.00  0.00    -0.610 N 
ATOM      3  C   LIG    1       -2.080   9.367   0.176  0.00  0.00    +0.280 C 
ATOM      4  C   LIG    1       -2.068  10.461  -0.903  0.00  0.00    +0.040 C 
ATOM      5  C   LIG    1       -3.240  11.415  -0.661  0.00  0.00    +0.170 C 
ATOM      6  O   LIG    1       -3.223  12.462  -1.633  0.00  0.00    -0.380 OA
ATOM      7  C   LIG    1       -4.304  13.388  -1.495  0.00  0.00    +0.220 C 
ATOM      8  C   LIG    1       -5.634  12.638  -1.608  0.00  0.00    +0.150 C 
ATOM      9  N   LIG    1       -5.680  11.570  -0.599  0.00  0.00    -0.530 NA
ATOM     10  C   LIG    1       -6.964  10.858  -0.644  0.00  0.00    +0.200 C 
ATOM     11  C   LIG    1       -4.556  10.641  -0.778  0.00  0.00    +0.100 C 
ATOM     12  C   LIG    1       -4.600   9.560   0.306  0.00  0.00    +0.300 C 
ATOM     13  O   LIG    1       -4.603   6.866  -0.031  0.00  0.00    -0.530 OA
ENDROOT
BRANCH   1  16
ATOM     14  N   LIG    1       -0.879   4.910  -0.315  0.00  0.00    -0.290 N 
ATOM     15  C   LIG    1       -2.123   5.347  -0.588  0.00  0.00    +0.310 A 
ATOM     16  C   LIG    1       -2.295   6.542   0.080  0.00  0.00    -0.260 A 
ATOM     17  C   LIG    1       -1.093   6.810   0.773  0.00  0.00    +0.290 A 
ATOM     18  N   LIG    1       -0.262   5.833   0.537  0.00  0.00    -0.250 NA
BRANCH  14  22
ATOM     19  C   LIG    1        1.280   2.189  -1.062  0.00  0.00    +0.100 A 
ATOM     20  C   LIG    1        0.359   1.602  -1.832  0.00  0.00    -0.070 A 
ATOM     21  S   LIG    1       -1.078   2.620  -1.837  0.00  0.00    +0.180 S 
ATOM     22  C   LIG    1       -0.304   3.734  -0.795  0.00  0.00    +0.260 A 
ATOM     23  N   LIG    1        0.895   3.329  -0.521  0.00  0.00    -0.460 NA
BRANCH  19  25
ATOM     24  C   LIG    1        3.717   2.624  -1.208  0.00  0.00    +0.030 C 
ATOM     25  C   LIG    1        2.646   1.598  -0.831  0.00  0.00    +0.130 C 
ENDBRANCH  19  25
ENDBRANCH  14  22
ENDBRANCH   1  16
TORSDOF 3
