REMARK  Name = ZINCrH000004jfXv.0
REMARK                            x       y       z     vdW  Elec       q    Type
REMARK                         _______ _______ _______ _____ _____    ______ ____
ROOT
ATOM      1  C   LIG    1       -1.276  -0.770  -0.157  0.00  0.00    +0.560 C 
ATOM      2  N   LIG    1       -1.248  -2.108   0.003  0.00  0.00    -0.670 N 
ATOM      3  H   LIG    1       -0.397  -2.574   0.040  0.00  0.00    +0.410 HD
ATOM      4  O   LIG    1       -2.340  -0.198  -0.300  0.00  0.00    -0.510 OA
ENDROOT
BRANCH   2   5
ATOM      5  C   LIG    1       -2.444  -2.825   0.117  0.00  0.00    +0.140 A 
ATOM      6  C   LIG    1       -2.530  -4.116  -0.391  0.00  0.00    +0.050 A 
ATOM      7  C   LIG    1       -3.709  -4.830  -0.282  0.00  0.00    +0.050 A 
ATOM      8  C   LIG    1       -4.809  -4.265   0.334  0.00  0.00    +0.000 A 
ATOM      9  C   LIG    1       -4.731  -2.967   0.848  0.00  0.00    -0.100 A 
ATOM     10 CL   LIG    1       -6.287  -5.166   0.469  0.00  0.00    -0.030 Cl
ATOM     11  C   LIG    1       -3.539  -2.250   0.741  0.00  0.00    +0.110 A 
BRANCH   9  12
ATOM     12  C   LIG    1       -5.905  -2.360   1.508  0.00  0.00    +0.500 C 
ATOM     13  O   LIG    1       -6.940  -2.989   1.604  0.00  0.00    -0.480 OA
BRANCH  12  14
ATOM     14  O   LIG    1       -5.827  -1.109   2.002  0.00  0.00    -0.350 OA
ATOM     15  C   LIG    1       -7.020  -0.577   2.637  0.00  0.00    +0.280 C 
ENDBRANCH  12  14
ENDBRANCH   9  12
ENDBRANCH   2   5
BRANCH   1  19
ATOM     16  C   LIG    1        2.348   1.448  -0.165  0.00  0.00    +0.020 A 
ATOM     17  C   LIG    1        1.129   2.105  -0.329  0.00  0.00    +0.070 A 
ATOM     18  C   LIG    1       -0.046   1.388  -0.327  0.00  0.00    +0.090 A 
ATOM     19  C   LIG    1       -0.017   0.001  -0.160  0.00  0.00    -0.130 A 
ATOM     20  C   LIG    1        1.205  -0.656   0.004  0.00  0.00    +0.040 A 
ATOM     21  C   LIG    1        2.379   0.063   0.001  0.00  0.00    +0.050 A 
BRANCH  16  24
ATOM     22  C   LIG    1        4.973   3.904  -0.273  0.00  0.00    +0.290 A 
ATOM     23  N   LIG    1        3.716   3.549  -0.324  0.00  0.00    -0.530 NA
ATOM     24  C   LIG    1        3.613   2.222  -0.168  0.00  0.00    +0.260 A 
ATOM     25  N   LIG    1        4.820   1.719  -0.024  0.00  0.00    -0.300 NA
ATOM     26  N   LIG    1        5.717   2.798  -0.090  0.00  0.00    -0.480 N 
ATOM     27  H   LIG    1        6.683   2.754  -0.017  0.00  0.00    +0.440 HD
BRANCH  22  29
ATOM     28  C   LIG    1        4.986   5.928  -1.706  0.00  0.00    +0.050 C 
ATOM     29  C   LIG    1        5.499   5.310  -0.404  0.00  0.00    +0.140 C 
ENDBRANCH  22  29
ENDBRANCH  16  24
ENDBRANCH   1  19
TORSDOF 6
