REMARK  Name = ZINCnE000001LkeF.0
REMARK                            x       y       z     vdW  Elec       q    Type
REMARK                         _______ _______ _______ _____ _____    ______ ____
ROOT
ATOM      1  CA  LIG    1        0.002  -0.004   0.002  0.00  0.00    +0.200 C 
ENDROOT
BRANCH   1   5
ATOM      2  C   LIG    1       -0.016  -1.405  -4.036  0.00  0.00    +0.120 A 
ATOM      3  C   LIG    1        1.165  -0.965  -3.458  0.00  0.00    -0.060 A 
ATOM      4  C   LIG    1        1.167  -0.507  -2.154  0.00  0.00    +0.060 A 
ATOM      5  C   LIG    1       -0.005  -0.499  -1.421  0.00  0.00    -0.080 A 
ATOM      6  C   LIG    1       -1.184  -0.938  -1.994  0.00  0.00    +0.080 A 
ATOM      7  C   LIG    1       -1.193  -1.391  -3.300  0.00  0.00    -0.060 A 
ATOM      8 CL   LIG    1       -2.674  -1.942  -4.018  0.00  0.00    -0.070 Cl
BRANCH   2  10
ATOM      9  C   LIG    1        1.226  -1.837  -6.017  0.00  0.00    +0.240 C 
ATOM     10  O   LIG    1       -0.021  -1.851  -5.320  0.00  0.00    -0.310 OA
ENDBRANCH   2  10
ENDBRANCH   1   5
BRANCH   1  11
ATOM     11  N   LIG    1        1.211  -0.480   0.679  0.00  0.00    -0.700 N 
ATOM     12  H   LIG    1        2.003  -0.697   0.162  0.00  0.00    +0.390 HD
ATOM     13  C   LIG    1        1.224  -0.616   2.019  0.00  0.00    +0.510 C 
ATOM     14  O   LIG    1        0.234  -0.344   2.666  0.00  0.00    -0.540 OA
BRANCH  13  15
ATOM     15  C   LIG    1        2.468  -1.105   2.715  0.00  0.00    +0.080 C 
BRANCH  15  16
ATOM     16  C   LIG    1        2.221  -1.167   4.201  0.00  0.00    -0.090 C 
ATOM     17  C   LIG    1        1.846  -2.298   4.707  0.00  0.00    -0.060 C 
ATOM     18  C   LIG    1        1.558  -2.513   6.164  0.00  0.00    +0.060 C 
ATOM     19  C   LIG    1        2.154  -1.374   6.994  0.00  0.00    +0.000 C 
ATOM     20  C   LIG    1        1.732  -0.041   6.361  0.00  0.00    +0.010 C 
ATOM     21  C   LIG    1        2.419   0.087   5.000  0.00  0.00    +0.070 C 
ENDBRANCH  15  16
ENDBRANCH  13  15
ENDBRANCH   1  11
BRANCH   1  22
ATOM     22  C   LIG    1       -0.018   1.503   0.010  0.00  0.00    +0.500 C 
ATOM     23  OXT LIG    1       -1.082   2.098   0.019  0.00  0.00    -0.680 OA
ATOM     24  O   LIG    1        1.029   2.127   0.004  0.00  0.00    -0.680 OA
ENDBRANCH   1  22
TORSDOF 6
