REMARK  Name = ZINCtV000002Dc9p.0
REMARK                            x       y       z     vdW  Elec       q    Type
REMARK                         _______ _______ _______ _____ _____    ______ ____
ROOT
ATOM      1  N   LIG    1        1.169  -2.669  -1.403  0.00  0.00    -0.740 N 
ATOM      2  H   LIG    1        1.130  -2.036  -2.137  0.00  0.00    +0.400 HD
ATOM      3  C   LIG    1        1.173  -3.993  -1.656  0.00  0.00    +0.710 C 
ATOM      4  N   LIG    1        1.122  -4.436  -2.928  0.00  0.00    -0.740 N 
ATOM      5  H   LIG    1        1.082  -3.803  -3.661  0.00  0.00    +0.390 HD
ATOM      6  O   LIG    1        1.223  -4.787  -0.737  0.00  0.00    -0.580 OA
ENDROOT
BRANCH   4   7
ATOM      7  C   LIG    1        1.126  -5.875  -3.203  0.00  0.00    +0.310 C 
ATOM      8  C   LIG    1        2.569  -6.384  -3.239  0.00  0.00    +0.040 C 
BRANCH   7   9
ATOM      9  C   LIG    1        0.469  -6.134  -4.534  0.00  0.00    -0.110 A 
ATOM     10  C   LIG    1        0.445  -5.144  -5.497  0.00  0.00    +0.060 A 
ATOM     11  C   LIG    1       -0.158  -5.381  -6.719  0.00  0.00    +0.050 A 
ATOM     12  C   LIG    1       -0.737  -6.609  -6.978  0.00  0.00    -0.070 A 
ATOM     13  C   LIG    1       -0.715  -7.602  -6.015  0.00  0.00    +0.030 A 
ATOM     14 BR   LIG    1       -1.562  -6.932  -8.649  0.00  0.00    -0.030 Br
ATOM     15  C   LIG    1       -0.106  -7.367  -4.794  0.00  0.00    +0.120 A 
ATOM     16  F   LIG    1       -0.079  -8.338  -3.855  0.00  0.00    -0.120 F 
ENDBRANCH   7   9
ENDBRANCH   4   7
BRANCH   1  17
ATOM     17  C   LIG    1        1.225  -2.187  -0.021  0.00  0.00    +0.340 C 
BRANCH  17  21
ATOM     18  C   LIG    1        1.179   2.087   0.002  0.00  0.00    +0.130 A 
ATOM     19  C   LIG    1        2.386   1.404  -0.055  0.00  0.00    -0.020 A 
ATOM     20  C   LIG    1        2.398   0.023  -0.062  0.00  0.00    +0.060 A 
ATOM     21  C   LIG    1        1.208  -0.681  -0.013  0.00  0.00    -0.120 A 
ATOM     22  C   LIG    1        0.003  -0.004   0.043  0.00  0.00    +0.070 A 
ATOM     23  C   LIG    1       -0.016   1.377   0.051  0.00  0.00    -0.050 A 
ATOM     24 CL   LIG    1       -1.529   2.226   0.115  0.00  0.00    -0.050 Cl
BRANCH  18  30
ATOM     25  C   LIG    1       -0.168   6.082  -2.415  0.00  0.00    +0.020 C 
ATOM     26  C   LIG    1        0.434   5.532  -1.120  0.00  0.00    -0.010 C 
ATOM     27  C   LIG    1        1.819   6.146  -0.899  0.00  0.00    +0.010 C 
ATOM     28  C   LIG    1        2.439   5.545   0.365  0.00  0.00    +0.020 C 
ATOM     29  C   LIG    1        2.514   4.024   0.218  0.00  0.00    +0.180 C 
ATOM     30  N   LIG    1        1.164   3.484   0.009  0.00  0.00    -0.490 N 
ATOM     31  C   LIG    1        0.567   4.011  -1.225  0.00  0.00    +0.190 C 
ENDBRANCH  18  30
ENDBRANCH  17  21
ENDBRANCH   1  17
TORSDOF 5
