REMARK  Name = ZINCpe000000WGJe.0
REMARK                            x       y       z     vdW  Elec       q    Type
REMARK                         _______ _______ _______ _____ _____    ______ ____
ROOT
ATOM      1  N   LIG    1        6.200  -1.175   0.995  0.00  0.00    -0.540 NA
ATOM      2  C   LIG    1        6.059  -0.250  -0.138  0.00  0.00    +0.190 C 
ATOM      3  C   LIG    1        4.712   0.470  -0.041  0.00  0.00    +0.230 C 
ATOM      4  N   LIG    1        3.628  -0.522  -0.036  0.00  0.00    -0.470 N 
ATOM      5  C   LIG    1        3.769  -1.447   1.098  0.00  0.00    +0.210 C 
ATOM      6  C   LIG    1        5.116  -2.167   1.000  0.00  0.00    +0.190 C 
ENDROOT
BRANCH   4   7
ATOM      7  C   LIG    1        2.388   0.097  -0.020  0.00  0.00    +0.360 A 
ATOM      8  C   LIG    1        1.216  -0.664  -0.013  0.00  0.00    -0.100 A 
ATOM      9  C   LIG    1        0.002  -0.004   0.002  0.00  0.00    +0.340 A 
ATOM     10  N   LIG    1       -0.016   1.320   0.009  0.00  0.00    -0.530 NA
ATOM     11  C   LIG    1        1.112   2.017   0.002  0.00  0.00    +0.390 A 
ATOM     12  N   LIG    1        2.297   1.422  -0.012  0.00  0.00    -0.550 NA
BRANCH  11  13
ATOM     13  C   LIG    1        1.047   3.498   0.011  0.00  0.00    -0.050 A 
ATOM     14  C   LIG    1        2.220   4.250   0.009  0.00  0.00    +0.060 A 
ATOM     15  C   LIG    1        2.153   5.629   0.011  0.00  0.00    +0.000 A 
ATOM     16  C   LIG    1        0.925   6.264   0.026  0.00  0.00    +0.030 A 
ATOM     17  C   LIG    1       -0.243   5.523   0.034  0.00  0.00    +0.000 A 
ATOM     18  C   LIG    1       -0.188   4.144   0.026  0.00  0.00    +0.070 A 
ENDBRANCH  11  13
ENDBRANCH   4   7
BRANCH   1  19
ATOM     19  C   LIG    1        7.514  -1.831   0.979  0.00  0.00    +0.190 C 
BRANCH  19  20
ATOM     20  C   LIG    1        7.723  -2.587   2.292  0.00  0.00    +0.260 C 
BRANCH  20  21
ATOM     21  N   LIG    1        9.034  -3.241   2.276  0.00  0.00    -1.120 NA
ATOM     22  H   LIG    1        9.517  -3.338   1.440  0.00  0.00    +0.420 HD
BRANCH  21  24
ATOM     23  C   LIG    1        8.568  -5.144   4.197  0.00  0.00    -0.280 C 
ATOM     24  S   LIG    1        9.691  -3.815   3.683  0.00  0.00    +2.620 S 
ATOM     25  O   LIG    1        9.608  -2.717   4.582  0.00  0.00    -0.950 OA
ATOM     26  O   LIG    1       10.948  -4.349   3.292  0.00  0.00    -0.960 OA
ENDBRANCH  21  24
ENDBRANCH  20  21
ENDBRANCH  19  20
ENDBRANCH   1  19
TORSDOF 6
