REMARK  Name = ZINCrD00000F5LGh.0
REMARK                            x       y       z     vdW  Elec       q    Type
REMARK                         _______ _______ _______ _____ _____    ______ ____
ROOT
ATOM      1  N   LIG    1       -0.417   1.672  -1.375  0.00  0.00    -0.980 NA
ENDROOT
BRANCH   1   2
ATOM      2  S   LIG    1        0.057   3.023  -2.207  0.00  0.00    +2.660 S 
ATOM      3  O   LIG    1        0.682   3.878  -1.259  0.00  0.00    -0.960 OA
ATOM      4  O   LIG    1       -1.056   3.420  -2.997  0.00  0.00    -0.940 OA
BRANCH   2   6
ATOM      5  C   LIG    1        2.503   3.076  -3.275  0.00  0.00    +0.220 C 
ATOM      6  C   LIG    1        1.316   2.526  -3.334  0.00  0.00    -0.590 C 
ENDBRANCH   2   6
ENDBRANCH   1   2
BRANCH   1   7
ATOM      7  C   LIG    1       -1.465   0.806  -1.921  0.00  0.00    +0.280 C 
BRANCH   7   8
ATOM      8  C   LIG    1       -2.790   1.101  -1.217  0.00  0.00    +0.130 C 
ATOM      9  C   LIG    1       -3.162   2.571  -1.424  0.00  0.00    +0.070 C 
BRANCH   8  10
ATOM     10  C   LIG    1       -3.888   0.210  -1.801  0.00  0.00    -0.030 C 
ATOM     11  C   LIG    1       -3.947   0.402  -3.318  0.00  0.00    +0.050 C 
ATOM     12  C   LIG    1       -5.045  -0.489  -3.902  0.00  0.00    +0.020 C 
ATOM     13  C   LIG    1       -6.393  -0.107  -3.287  0.00  0.00    +0.290 C 
ATOM     14  C   LIG    1       -6.334  -0.299  -1.770  0.00  0.00    +0.020 C 
ATOM     15  F   LIG    1       -6.676   1.232  -3.576  0.00  0.00    -0.200 F 
ATOM     16  F   LIG    1       -7.397  -0.922  -3.821  0.00  0.00    -0.200 F 
ATOM     17  C   LIG    1       -5.236   0.592  -1.185  0.00  0.00    +0.060 C 
ENDBRANCH   8  10
BRANCH   8  18
ATOM     18  O   LIG    1       -2.656   0.837   0.181  0.00  0.00    -0.550 OA
ATOM     19  H   LIG    1       -2.365  -0.063   0.385  0.00  0.00    +0.370 HD
ENDBRANCH   8  18
ENDBRANCH   7   8
ENDBRANCH   1   7
BRANCH   1  20
ATOM     20  C   LIG    1        0.210   1.343  -0.093  0.00  0.00    +0.410 C 
BRANCH  20  21
ATOM     21  C   LIG    1        1.334   0.364  -0.320  0.00  0.00    +0.100 A 
ATOM     22  C   LIG    1        1.213  -0.981  -0.415  0.00  0.00    -0.230 A 
ATOM     23  C   LIG    1        2.490  -1.513  -0.625  0.00  0.00    +0.110 A 
ATOM     24  N   LIG    1        3.346  -0.523  -0.654  0.00  0.00    -0.280 NA
ATOM     25  C   LIG    1        2.823  -2.974  -0.789  0.00  0.00    +0.160 C 
ATOM     26 BR   LIG    1       -0.396  -1.966  -0.288  0.00  0.00    -0.010 Br
ATOM     27  N   LIG    1        2.640   0.672  -0.470  0.00  0.00    -0.350 N 
ATOM     28  C   LIG    1        3.216   2.018  -0.441  0.00  0.00    +0.360 C 
ENDBRANCH  20  21
ENDBRANCH   1  20
TORSDOF 8
