REMARK  Name = ZINCpe00000bFcjU.0
REMARK                            x       y       z     vdW  Elec       q    Type
REMARK                         _______ _______ _______ _____ _____    ______ ____
ROOT
ATOM      1  C   LIG    1        6.146   1.504   0.210  0.00  0.00    +0.210 C 
ATOM      2  C   LIG    1        6.635   1.830  -1.203  0.00  0.00    +0.040 C 
ENDROOT
BRANCH   1   3
ATOM      3  N   LIG    1        4.967   0.638   0.132  0.00  0.00    -0.700 N 
ATOM      4  H   LIG    1        5.067  -0.325   0.194  0.00  0.00    +0.420 HD
ATOM      5  C   LIG    1        3.743   1.180  -0.027  0.00  0.00    +0.590 C 
ATOM      6  O   LIG    1        3.618   2.386  -0.104  0.00  0.00    -0.550 OA
BRANCH   5   7
ATOM      7  C   LIG    1        2.554   0.307  -0.106  0.00  0.00    -0.060 A 
ATOM      8  N   LIG    1        2.696  -1.015  -0.137  0.00  0.00    -0.360 NA
ATOM      9  C   LIG    1        1.633  -1.790  -0.208  0.00  0.00    +0.150 A 
ATOM     10  C   LIG    1        0.362  -1.236  -0.250  0.00  0.00    +0.320 A 
ATOM     11  N   LIG    1        0.205   0.075  -0.219  0.00  0.00    -0.510 NA
ATOM     12  C   LIG    1        1.267   0.869  -0.148  0.00  0.00    +0.410 A 
BRANCH  12  13
ATOM     13  N   LIG    1        1.108   2.242  -0.116  0.00  0.00    -0.820 N 
ATOM     14  H   LIG    1        1.885   2.822  -0.152  0.00  0.00    +0.430 HD
ATOM     15  H   LIG    1        0.219   2.626  -0.058  0.00  0.00    +0.400 HD
ENDBRANCH  12  13
ENDBRANCH   5   7
ENDBRANCH   1   3
BRANCH   1  16
ATOM     16  C   LIG    1        7.256   0.785   0.980  0.00  0.00    +0.290 C 
BRANCH  16  18
ATOM     17  C   LIG    1        6.175  -0.844   2.435  0.00  0.00    +0.530 C 
ATOM     18  N   LIG    1        6.750   0.367   2.290  0.00  0.00    -0.620 N 
ATOM     19  C   LIG    1        6.870   1.264   3.441  0.00  0.00    +0.290 C 
ATOM     20  O   LIG    1        6.157  -1.622   1.505  0.00  0.00    -0.520 OA
BRANCH  17  24
ATOM     21  C   LIG    1        6.528  -3.983   3.988  0.00  0.00    +0.140 C 
ATOM     22  C   LIG    1        5.426  -3.607   2.996  0.00  0.00    +0.040 C 
ATOM     23  C   LIG    1        4.624  -2.426   3.547  0.00  0.00    +0.050 C 
ATOM     24  C   LIG    1        5.555  -1.229   3.753  0.00  0.00    -0.020 C 
ATOM     25  C   LIG    1        6.657  -1.605   4.745  0.00  0.00    +0.050 C 
ATOM     26  C   LIG    1        7.459  -2.786   4.194  0.00  0.00    -0.010 C 
BRANCH  21  28
ATOM     27  C   LIG    1        7.829  -5.935   4.481  0.00  0.00    +0.190 C 
ATOM     28  O   LIG    1        7.277  -5.085   3.473  0.00  0.00    -0.380 OA
ENDBRANCH  21  28
ENDBRANCH  17  24
ENDBRANCH  16  18
ENDBRANCH   1  16
TORSDOF 7
