REMARK  Name = ZINCpk000000oIuy.0
REMARK                            x       y       z     vdW  Elec       q    Type
REMARK                         _______ _______ _______ _____ _____    ______ ____
ROOT
ATOM      1  C   LIG    1       -0.176   6.240  -1.548  0.00  0.00    +0.010 C 
ATOM      2  C   LIG    1       -1.569   5.619  -1.685  0.00  0.00    +0.020 C 
ATOM      3  C   LIG    1       -1.832   4.697  -0.490  0.00  0.00    +0.270 C 
ATOM      4  N   LIG    1       -0.741   3.717  -0.400  0.00  0.00    -0.600 N 
ATOM      5  C   LIG    1        0.644   4.205  -0.349  0.00  0.00    +0.260 C 
ATOM      6  C   LIG    1       -1.006   2.397  -0.358  0.00  0.00    +0.590 C 
ATOM      7  O   LIG    1       -2.136   1.996  -0.565  0.00  0.00    -0.550 OA
ATOM      8  C   LIG    1        0.880   5.132  -1.551  0.00  0.00    +0.030 C 
ENDROOT
BRANCH   6   9
ATOM      9  C   LIG    1        0.068   1.442  -0.064  0.00  0.00    -0.050 A 
ATOM     10  C   LIG    1        1.190   1.687   0.699  0.00  0.00    +0.010 A 
ATOM     11  C   LIG    1        1.938   0.506   0.722  0.00  0.00    -0.070 A 
ATOM     12  C   LIG    1        1.275  -0.420  -0.012  0.00  0.00    +0.180 A 
ATOM     13  N   LIG    1        0.137   0.137  -0.495  0.00  0.00    -0.410 N 
ATOM     14  C   LIG    1       -0.854  -0.539  -1.336  0.00  0.00    +0.320 C 
ENDBRANCH   6   9
BRANCH   1  15
ATOM     15  C   LIG    1        0.076   7.188  -2.722  0.00  0.00    +0.040 C 
BRANCH  15  21
ATOM     16  N   LIG    1        2.202  11.227  -4.720  0.00  0.00    -0.540 NA
ATOM     17  C   LIG    1        2.873  10.983  -3.437  0.00  0.00    +0.170 C 
ATOM     18  C   LIG    1        3.111   9.478  -3.267  0.00  0.00    +0.300 C 
ATOM     19  N   LIG    1        1.827   8.780  -3.441  0.00  0.00    -0.620 N 
ATOM     20  C   LIG    1        1.032   9.074  -4.643  0.00  0.00    +0.280 C 
ATOM     21  C   LIG    1        1.394   7.891  -2.525  0.00  0.00    +0.520 C 
ATOM     22  O   LIG    1        2.065   7.658  -1.542  0.00  0.00    -0.530 OA
ATOM     23  C   LIG    1        0.874  10.599  -4.755  0.00  0.00    +0.170 C 
BRANCH  16  25
ATOM     24  C   LIG    1        1.637  12.877  -6.440  0.00  0.00    +0.020 C 
ATOM     25  C   LIG    1        2.110  12.667  -5.000  0.00  0.00    +0.160 C 
ENDBRANCH  16  25
ENDBRANCH  15  21
ENDBRANCH   1  15
TORSDOF 4
