REMARK  Name = ZINCvU0000000Dwj.0
REMARK                            x       y       z     vdW  Elec       q    Type
REMARK                         _______ _______ _______ _____ _____    ______ ____
ROOT
ATOM      1  C   LIG    1       -2.748  -4.687   0.003  0.00  0.00    +0.540 C 
ATOM      2  N   LIG    1       -2.594  -3.348   0.009  0.00  0.00    -0.610 N 
ATOM      3  C   LIG    1       -2.520  -2.598  -1.253  0.00  0.00    +0.290 C 
ATOM      4  C   LIG    1       -1.247  -1.746  -1.246  0.00  0.00    +0.040 C 
ATOM      5  C   LIG    1       -1.232  -0.869   0.009  0.00  0.00    +0.090 C 
ATOM      6  C   LIG    1       -1.225  -1.758   1.254  0.00  0.00    +0.040 C 
ATOM      7  C   LIG    1       -2.498  -2.610   1.276  0.00  0.00    +0.280 C 
ATOM      8  O   LIG    1       -2.827  -5.284  -1.049  0.00  0.00    -0.520 OA
ENDROOT
BRANCH   5   9
ATOM      9  C   LIG    1        0.002  -0.004   0.002  0.00  0.00    +0.100 A 
ATOM     10  N   LIG    1        1.198  -0.457  -0.012  0.00  0.00    -0.460 NA
ATOM     11  C   LIG    1        2.208   0.433  -0.017  0.00  0.00    +0.080 A 
ATOM     12  C   LIG    1        3.601   0.215  -0.032  0.00  0.00    +0.070 A 
ATOM     13  C   LIG    1        4.464   1.269  -0.035  0.00  0.00    +0.030 A 
ATOM     14  C   LIG    1        3.992   2.573  -0.023  0.00  0.00    +0.040 A 
ATOM     15  C   LIG    1        2.637   2.817  -0.009  0.00  0.00    +0.060 A 
ATOM     16  C   LIG    1        1.739   1.752  -0.005  0.00  0.00    -0.180 A 
ATOM     17  S   LIG    1       -0.021   1.702   0.011  0.00  0.00    +0.100 S 
ENDBRANCH   5   9
BRANCH   1  18
ATOM     18  C   LIG    1       -2.822  -5.442   1.306  0.00  0.00    +0.100 C 
BRANCH  18  19
ATOM     19  S   LIG    1       -3.028  -7.208   0.968  0.00  0.00    +0.080 S 
BRANCH  19  24
ATOM     20  C   LIG    1       -3.346 -10.344   5.247  0.00  0.00    +0.200 C 
ATOM     21  C   LIG    1       -3.217  -9.137   4.353  0.00  0.00    +0.190 A 
ATOM     22  N   LIG    1       -3.071  -7.902   4.741  0.00  0.00    -0.280 NA
ATOM     23  N   LIG    1       -2.987  -7.126   3.719  0.00  0.00    -0.290 NA
ATOM     24  C   LIG    1       -3.084  -7.830   2.616  0.00  0.00    +0.140 A 
ATOM     25  N   LIG    1       -3.231  -9.136   2.986  0.00  0.00    -0.460 N 
BRANCH  25  26
ATOM     26  C   LIG    1       -3.373 -10.295   2.102  0.00  0.00    +0.240 C 
ATOM     27  C   LIG    1       -2.138 -10.408   1.206  0.00  0.00    +0.010 C 
ATOM     28  C   LIG    1       -2.287 -11.619   0.282  0.00  0.00    +0.030 C 
ATOM     29  C   LIG    1       -3.533 -11.447  -0.587  0.00  0.00    +0.010 C 
ATOM     30  C   LIG    1       -4.769 -11.334   0.309  0.00  0.00    +0.030 C 
ATOM     31  C   LIG    1       -4.620 -10.123   1.232  0.00  0.00    +0.010 C 
ENDBRANCH  25  26
ENDBRANCH  19  24
ENDBRANCH  18  19
ENDBRANCH   1  18
TORSDOF 5
