REMARK  Name = ZINCrD00000l7yxr.0
REMARK                            x       y       z     vdW  Elec       q    Type
REMARK                         _______ _______ _______ _____ _____    ______ ____
ROOT
ATOM      1  O   LIG    1       -3.136   1.318  -1.139  0.00  0.00    -0.320 OA
ENDROOT
BRANCH   1   2
ATOM      2  C   LIG    1       -2.506   1.559   0.029  0.00  0.00    +0.540 C 
ATOM      3  O   LIG    1       -3.060   1.309   1.082  0.00  0.00    -0.490 OA
BRANCH   2   5
ATOM      4  C   LIG    1       -0.014   1.360   0.008  0.00  0.00    +0.050 A 
ATOM      5  C   LIG    1       -1.154   2.123   0.028  0.00  0.00    -0.190 A 
ATOM      6  C   LIG    1       -0.878   3.543   0.051  0.00  0.00    -0.050 A 
ATOM      7  C   LIG    1        0.417   3.823   0.040  0.00  0.00    -0.250 A 
ATOM      8  C   LIG    1        0.991   5.216   0.055  0.00  0.00    +0.150 C 
ATOM      9  C   LIG    1       -1.955   4.597   0.081  0.00  0.00    +0.120 C 
ATOM     10  S   LIG    1        1.373   2.352   0.006  0.00  0.00    +0.310 S 
BRANCH   4  13
ATOM     11  C   LIG    1        1.209  -2.187  -0.062  0.00  0.00    +0.130 C 
ATOM     12  C   LIG    1        1.186  -0.681  -0.038  0.00  0.00    +0.510 C 
ATOM     13  N   LIG    1        0.008  -0.025  -0.014  0.00  0.00    -0.630 N 
ATOM     14  H   LIG    1       -0.824  -0.523  -0.012  0.00  0.00    +0.420 HD
ATOM     15  O   LIG    1        2.226  -0.058  -0.041  0.00  0.00    -0.500 OA
ENDBRANCH   4  13
ENDBRANCH   2   5
ENDBRANCH   1   2
BRANCH   1  16
ATOM     16  C   LIG    1       -4.474   0.759  -1.062  0.00  0.00    +0.270 C 
BRANCH  16  17
ATOM     17  C   LIG    1       -5.015   0.558  -2.454  0.00  0.00    +0.520 C 
ATOM     18  N   LIG    1       -6.250   0.047  -2.630  0.00  0.00    -0.660 N 
ATOM     19  H   LIG    1       -6.764  -0.253  -1.865  0.00  0.00    +0.420 HD
ATOM     20  O   LIG    1       -4.340   0.857  -3.416  0.00  0.00    -0.490 OA
BRANCH  18  21
ATOM     21  C   LIG    1       -6.787  -0.050  -3.910  0.00  0.00    +0.210 A 
ATOM     22  C   LIG    1       -5.966  -0.342  -4.991  0.00  0.00    +0.010 A 
ATOM     23  C   LIG    1       -6.501  -0.437  -6.260  0.00  0.00    +0.070 A 
ATOM     24  C   LIG    1       -7.857  -0.243  -6.468  0.00  0.00    -0.020 A 
ATOM     25  C   LIG    1       -8.690   0.047  -5.410  0.00  0.00    +0.090 A 
ATOM     26  C   LIG    1       -8.165   0.141  -4.115  0.00  0.00    -0.210 A 
BRANCH  26  27
ATOM     27  C   LIG    1       -9.046   0.443  -2.981  0.00  0.00    +0.400 C 
ATOM     28  O   LIG    1       -8.574   0.622  -1.878  0.00  0.00    -0.470 OA
ATOM     29  C   LIG    1      -10.536   0.532  -3.187  0.00  0.00    +0.080 C 
ENDBRANCH  26  27
ENDBRANCH  18  21
ENDBRANCH  16  17
ENDBRANCH   1  16
TORSDOF 7
