REMARK  Name = ZINCrD0000071pbg.0
REMARK                            x       y       z     vdW  Elec       q    Type
REMARK                         _______ _______ _______ _____ _____    ______ ____
ROOT
ATOM      1  C   LIG    1        1.073  -0.974   1.885  0.00  0.00    +0.550 C 
ATOM      2  O   LIG    1        1.942  -0.297   1.370  0.00  0.00    -0.490 OA
ENDROOT
BRANCH   1   5
ATOM      3  C   LIG    1        0.445  -4.505   2.263  0.00  0.00    +0.100 A 
ATOM      4  N   LIG    1        0.241  -3.229   2.381  0.00  0.00    -0.410 NA
ATOM      5  C   LIG    1        1.160  -2.442   1.837  0.00  0.00    +0.030 A 
ATOM      6  C   LIG    1        2.187  -3.098   1.227  0.00  0.00    -0.010 A 
ATOM      7  S   LIG    1        1.942  -4.783   1.381  0.00  0.00    +0.210 S 
BRANCH   3  11
ATOM      8  C   LIG    1       -2.106  -7.545   3.778  0.00  0.00    -0.050 A 
ATOM      9  C   LIG    1       -0.953  -7.891   3.096  0.00  0.00    +0.010 A 
ATOM     10  C   LIG    1       -0.120  -6.908   2.602  0.00  0.00    +0.030 A 
ATOM     11  C   LIG    1       -0.443  -5.564   2.790  0.00  0.00    -0.040 A 
ATOM     12  C   LIG    1       -1.606  -5.222   3.482  0.00  0.00    +0.080 A 
ATOM     13  C   LIG    1       -2.433  -6.215   3.967  0.00  0.00    +0.010 A 
BRANCH   8  15
ATOM     14  C   LIG    1       -3.126  -8.482   5.834  0.00  0.00    +0.030 C 
ATOM     15  C   LIG    1       -3.011  -8.624   4.315  0.00  0.00    +0.020 C 
ATOM     16  C   LIG    1       -4.398  -8.488   3.684  0.00  0.00    +0.030 C 
ENDBRANCH   8  15
ENDBRANCH   3  11
ENDBRANCH   1   5
BRANCH   1  17
ATOM     17  O   LIG    1        0.031  -0.379   2.498  0.00  0.00    -0.300 OA
BRANCH  17  18
ATOM     18  C   LIG    1        0.011   1.072   2.506  0.00  0.00    +0.200 C 
BRANCH  18  19
ATOM     19  C   LIG    1       -0.694   1.558   3.746  0.00  0.00    +0.520 C 
ATOM     20  N   LIG    1       -0.745   2.877   4.019  0.00  0.00    -0.690 N 
ATOM     21  H   LIG    1       -0.328   3.514   3.418  0.00  0.00    +0.410 HD
ATOM     22  C   LIG    1       -1.376   3.312   5.128  0.00  0.00    +0.700 C 
ATOM     23  O   LIG    1       -1.899   2.514   5.882  0.00  0.00    -0.530 OA
ATOM     24  N   LIG    1       -1.427   4.631   5.401  0.00  0.00    -0.850 N 
ATOM     25  H   LIG    1       -1.881   4.944   6.199  0.00  0.00    +0.420 HD
ATOM     26  H   LIG    1       -1.010   5.267   4.800  0.00  0.00    +0.400 HD
ATOM     27  O   LIG    1       -1.216   0.763   4.498  0.00  0.00    -0.430 OA
ENDBRANCH  18  19
BRANCH  18  28
ATOM     28  C   LIG    1       -0.729   1.579   1.267  0.00  0.00    -0.020 C 
ATOM     29  C   LIG    1       -2.164   1.050   1.278  0.00  0.00    +0.050 C 
ATOM     30  C   LIG    1       -0.013   1.086   0.008  0.00  0.00    +0.040 C 
ENDBRANCH  18  28
ENDBRANCH  17  18
ENDBRANCH   1  17
TORSDOF 7
