REMARK  Name = ZINCpk00000xI3hq.0
REMARK                            x       y       z     vdW  Elec       q    Type
REMARK                         _______ _______ _______ _____ _____    ______ ____
ROOT
ATOM      1  C   LIG    1       -0.068   2.155  -2.343  0.00  0.00    +0.520 C 
ATOM      2  N   LIG    1       -0.727   2.011  -1.176  0.00  0.00    -0.730 N 
ATOM      3  H   LIG    1       -1.671   2.229  -1.123  0.00  0.00    +0.400 HD
ATOM      4  O   LIG    1        1.112   1.883  -2.410  0.00  0.00    -0.530 OA
ENDROOT
BRANCH   2   5
ATOM      5  C   LIG    1       -0.019   1.526   0.010  0.00  0.00    +0.280 C 
ATOM      6  C   LIG    1        0.002  -0.004   0.002  0.00  0.00    +0.040 C 
BRANCH   5   7
ATOM      7  C   LIG    1       -0.724   2.012   1.250  0.00  0.00    -0.030 A 
ATOM      8  C   LIG    1       -2.106   2.033   1.296  0.00  0.00    -0.010 A 
ATOM      9  C   LIG    1       -2.752   2.474   2.435  0.00  0.00    +0.140 A 
ATOM     10  C   LIG    1       -2.018   2.904   3.525  0.00  0.00    -0.680 A 
ATOM     11  C   LIG    1       -0.637   2.888   3.477  0.00  0.00    +0.130 A 
ATOM     12  C   LIG    1        0.010   2.442   2.340  0.00  0.00    +0.010 A 
BRANCH  10  13
ATOM     13  S   LIG    1       -2.843   3.472   4.974  0.00  0.00    +2.700 S 
ATOM     14  O   LIG    1       -1.925   3.311   6.047  0.00  0.00    -0.960 OA
ATOM     15  O   LIG    1       -4.134   2.879   4.960  0.00  0.00    -0.960 OA
BRANCH  13  16
ATOM     16  N   LIG    1       -3.075   5.103   4.799  0.00  0.00    -1.250 NA
ATOM     17  H   LIG    1       -2.447   5.629   4.280  0.00  0.00    +0.420 HD
ATOM     18  H   LIG    1       -3.839   5.531   5.215  0.00  0.00    +0.420 HD
ENDBRANCH  13  16
ENDBRANCH  10  13
ENDBRANCH   5   7
ENDBRANCH   2   5
BRANCH   1  19
ATOM     19  C   LIG    1       -0.797   2.654  -3.564  0.00  0.00    +0.050 C 
BRANCH  19  20
ATOM     20  C   LIG    1        0.174   2.725  -4.744  0.00  0.00    +0.130 C 
BRANCH  20  28
ATOM     21  C   LIG    1       -1.307   0.929  -6.893  0.00  0.00    +0.150 C 
ATOM     22  C   LIG    1       -1.209   2.433  -6.914  0.00  0.00    +0.080 A 
ATOM     23  N   LIG    1       -1.724   3.223  -7.821  0.00  0.00    -0.300 NA
ATOM     24  N   LIG    1       -1.404   4.544  -7.482  0.00  0.00    -0.370 N 
ATOM     25  C   LIG    1       -0.687   4.518  -6.340  0.00  0.00    +0.090 A 
ATOM     26  C   LIG    1       -0.132   5.715  -5.612  0.00  0.00    +0.140 C 
ATOM     27  C   LIG    1       -1.782   5.742  -8.236  0.00  0.00    +0.360 C 
ATOM     28  C   LIG    1       -0.554   3.225  -5.965  0.00  0.00    -0.240 A 
ENDBRANCH  20  28
ENDBRANCH  19  20
ENDBRANCH   1  19
TORSDOF 7
