REMARK  Name = ZINCtV000002KGX8.0
REMARK                            x       y       z     vdW  Elec       q    Type
REMARK                         _______ _______ _______ _____ _____    ______ ____
ROOT
ATOM      1  C   LIG    1       -1.214   1.734   0.006  0.00  0.00    +0.110 A 
ATOM      2  C   LIG    1       -0.015   1.037  -0.076  0.00  0.00    +0.000 A 
ATOM      3  C   LIG    1        1.181   1.721  -0.095  0.00  0.00    +0.090 A 
ATOM      4  C   LIG    1        1.187   3.116  -0.026  0.00  0.00    -0.030 A 
ATOM      5  C   LIG    1       -0.021   3.812   0.062  0.00  0.00    +0.110 A 
ATOM      6  C   LIG    1       -1.213   3.121   0.081  0.00  0.00    +0.030 A 
ENDROOT
BRANCH   4   7
ATOM      7  C   LIG    1        2.466   3.854  -0.046  0.00  0.00    +0.220 A 
ATOM      8  N   LIG    1        2.620   5.164   0.013  0.00  0.00    -0.460 NA
ATOM      9  C   LIG    1        3.952   5.373  -0.035  0.00  0.00    +0.230 A 
ATOM     10  N   LIG    1        4.529   4.201  -0.119  0.00  0.00    -0.380 NA
ATOM     11  O   LIG    1        3.695   3.320  -0.120  0.00  0.00    +0.090 OA
BRANCH   9  12
ATOM     12  C   LIG    1        4.637   6.689   0.001  0.00  0.00    -0.060 A 
ATOM     13  C   LIG    1        3.886   7.864   0.093  0.00  0.00    +0.080 A 
ATOM     14  C   LIG    1        4.500   9.083   0.128  0.00  0.00    +0.000 A 
ATOM     15  C   LIG    1        5.888   9.169   0.071  0.00  0.00    +0.110 A 
ATOM     16  N   LIG    1        6.769  10.226   0.086  0.00  0.00    -0.590 N 
ATOM     17  H   LIG    1        6.517  11.161   0.145  0.00  0.00    +0.420 HD
ATOM     18  C   LIG    1        8.055   9.763   0.006  0.00  0.00    +0.220 A 
ATOM     19  C   LIG    1        8.055   8.423  -0.062  0.00  0.00    -0.050 A 
ATOM     20  C   LIG    1        6.655   7.992  -0.022  0.00  0.00    -0.120 A 
ATOM     21  C   LIG    1        6.023   6.750  -0.051  0.00  0.00    +0.110 A 
ENDBRANCH   9  12
ENDBRANCH   4   7
BRANCH   1  22
ATOM     22  O   LIG    1       -2.391   1.056   0.019  0.00  0.00    -0.240 OA
BRANCH  22  27
ATOM     23 CL   LIG    1       -3.606  -2.259   4.700  0.00  0.00    -0.050 Cl
ATOM     24  C   LIG    1       -3.247  -1.278   3.313  0.00  0.00    -0.060 A 
ATOM     25  C   LIG    1       -2.123  -0.470   3.311  0.00  0.00    +0.090 A 
ATOM     26  C   LIG    1       -1.835   0.311   2.209  0.00  0.00    -0.020 A 
ATOM     27  C   LIG    1       -2.672   0.287   1.104  0.00  0.00    +0.140 A 
ATOM     28  C   LIG    1       -3.803  -0.519   1.110  0.00  0.00    -0.050 A 
ATOM     29 CL   LIG    1       -4.858  -0.547  -0.269  0.00  0.00    -0.040 Cl
ATOM     30  C   LIG    1       -4.084  -1.304   2.212  0.00  0.00    +0.080 A 
ENDBRANCH  22  27
ENDBRANCH   1  22
TORSDOF 4
