REMARK  Name = ZINCrH000004jt83.0
REMARK                            x       y       z     vdW  Elec       q    Type
REMARK                         _______ _______ _______ _____ _____    ______ ____
ROOT
ATOM      1  C   LIG    1       -1.723  -3.347   0.004  0.00  0.00    +0.570 C 
ATOM      2  N   LIG    1       -1.395  -4.654  -0.009  0.00  0.00    -0.650 N 
ATOM      3  H   LIG    1       -0.466  -4.919  -0.096  0.00  0.00    +0.420 HD
ATOM      4  O   LIG    1       -2.893  -3.014   0.011  0.00  0.00    -0.510 OA
ENDROOT
BRANCH   1  10
ATOM      5  N   LIG    1        2.096   0.741   0.035  0.00  0.00    -0.390 N 
ATOM      6  N   LIG    1        1.187   1.808   0.048  0.00  0.00    +0.000 NA
ATOM      7  N   LIG    1       -0.015   1.349   0.046  0.00  0.00    -0.210 NA
ATOM      8  C   LIG    1        0.003  -0.005   0.033  0.00  0.00    -0.030 A 
ATOM      9  C   LIG    1       -1.005  -0.972   0.025  0.00  0.00    +0.210 A 
ATOM     10  C   LIG    1       -0.663  -2.319   0.011  0.00  0.00    -0.160 A 
ATOM     11  C   LIG    1        0.685  -2.705   0.003  0.00  0.00    +0.100 A 
ATOM     12  C   LIG    1        1.673  -1.767   0.011  0.00  0.00    +0.020 A 
ATOM     13  C   LIG    1        1.351  -0.412   0.025  0.00  0.00    +0.110 A 
BRANCH   5  15
ATOM     14  C   LIG    1        4.064   0.884  -1.411  0.00  0.00    +0.050 C 
ATOM     15  C   LIG    1        3.558   0.837   0.033  0.00  0.00    +0.330 C 
ENDBRANCH   5  15
ENDBRANCH   1  10
BRANCH   2  16
ATOM     16  C   LIG    1       -2.394  -5.628   0.101  0.00  0.00    +0.180 A 
ATOM     17  C   LIG    1       -3.597  -5.324   0.720  0.00  0.00    +0.080 A 
ATOM     18  C   LIG    1       -4.585  -6.286   0.824  0.00  0.00    -0.160 A 
ATOM     19  C   LIG    1       -4.373  -7.557   0.321  0.00  0.00    +0.060 A 
ATOM     20  C   LIG    1       -3.175  -7.871  -0.292  0.00  0.00    +0.010 A 
ATOM     21  C   LIG    1       -2.181  -6.911  -0.406  0.00  0.00    +0.080 A 
BRANCH  18  22
ATOM     22  C   LIG    1       -5.893  -5.951   1.492  0.00  0.00    +0.510 C 
ATOM     23  F   LIG    1       -6.516  -4.906   0.800  0.00  0.00    -0.170 F 
ATOM     24  F   LIG    1       -5.655  -5.559   2.813  0.00  0.00    -0.180 F 
ATOM     25  F   LIG    1       -6.724  -7.077   1.482  0.00  0.00    -0.180 F 
ENDBRANCH  18  22
BRANCH  21  26
ATOM     26  N   LIG    1       -0.967  -7.227  -1.026  0.00  0.00    -0.510 N 
ATOM     27  C   LIG    1       -1.170  -7.554  -2.443  0.00  0.00    +0.220 C 
ATOM     28  C   LIG    1       -0.287  -8.323  -0.324  0.00  0.00    +0.210 C 
ENDBRANCH  21  26
ENDBRANCH   2  16
TORSDOF 5
