REMARK  Name = ZINCpk00000y6wcd.0
REMARK                            x       y       z     vdW  Elec       q    Type
REMARK                         _______ _______ _______ _____ _____    ______ ____
ROOT
ATOM      1  C   LIG    1        0.000   1.080   2.488  0.00  0.00    +0.510 C 
ATOM      2  N   LIG    1       -0.453   1.393   3.718  0.00  0.00    -0.710 N 
ATOM      3  H   LIG    1       -1.248   1.939   3.817  0.00  0.00    +0.410 HD
ATOM      4  O   LIG    1        0.994   0.397   2.363  0.00  0.00    -0.540 OA
ENDROOT
BRANCH   2   5
ATOM      5  C   LIG    1        0.256   0.907   4.905  0.00  0.00    +0.230 C 
ATOM      6  C   LIG    1        1.395   1.877   5.289  0.00  0.00    +0.210 C 
ATOM      7  O   LIG    1        1.399   1.888   6.734  0.00  0.00    -0.360 OA
ATOM      8  C   LIG    1        0.006   1.894   7.118  0.00  0.00    +0.210 C 
ATOM      9  C   LIG    1       -0.679   0.919   6.135  0.00  0.00    +0.150 C 
BRANCH   9  10
ATOM     10  O   LIG    1       -1.975   1.399   5.775  0.00  0.00    -0.290 OA
BRANCH  10  11
ATOM     11  C   LIG    1       -3.033   0.916   6.485  0.00  0.00    -0.030 A 
ATOM     12  C   LIG    1       -4.335   1.249   6.303  0.00  0.00    +0.220 A 
ATOM     13  N   LIG    1       -5.068   0.549   7.208  0.00  0.00    -0.470 N 
ATOM     14  H   LIG    1       -6.032   0.583   7.311  0.00  0.00    +0.450 HD
ATOM     15  N   LIG    1       -4.184  -0.228   7.968  0.00  0.00    -0.260 NA
ATOM     16  C   LIG    1       -2.968  -0.008   7.536  0.00  0.00    +0.190 A 
ENDBRANCH  10  11
ENDBRANCH   9  10
ENDBRANCH   2   5
BRANCH   1  17
ATOM     17  C   LIG    1       -0.729   1.579   1.267  0.00  0.00    +0.060 C 
BRANCH  17  18
ATOM     18  C   LIG    1       -0.013   1.086   0.008  0.00  0.00    +0.100 C 
BRANCH  18  22
ATOM     19  C   LIG    1       -2.082   2.500  -3.455  0.00  0.00    +0.090 A 
ATOM     20  C   LIG    1       -2.424   1.281  -2.890  0.00  0.00    -0.040 A 
ATOM     21  C   LIG    1       -1.750   0.824  -1.774  0.00  0.00    +0.050 A 
ATOM     22  C   LIG    1       -0.742   1.585  -1.213  0.00  0.00    -0.090 A 
ATOM     23  C   LIG    1       -0.397   2.801  -1.773  0.00  0.00    +0.030 A 
ATOM     24  C   LIG    1       -1.064   3.261  -2.894  0.00  0.00    +0.070 A 
ATOM     25  F   LIG    1       -0.728   4.450  -3.441  0.00  0.00    -0.130 F 
BRANCH  19  27
ATOM     26  C   LIG    1       -3.774   2.113  -5.080  0.00  0.00    +0.250 C 
ATOM     27  O   LIG    1       -2.740   2.949  -4.557  0.00  0.00    -0.310 OA
ENDBRANCH  19  27
ENDBRANCH  18  22
ENDBRANCH  17  18
ENDBRANCH   1  17
TORSDOF 7
