REMARK  Name = ZINCrH00000tj1nR.0
REMARK                            x       y       z     vdW  Elec       q    Type
REMARK                         _______ _______ _______ _____ _____    ______ ____
ROOT
ATOM      1  O   LIG    1        1.974   0.976  -2.783  0.00  0.00    -0.520 OA
ATOM      2  C   LIG    1        2.142  -0.089  -2.228  0.00  0.00    +0.560 C 
ATOM      3  N   LIG    1        2.393  -0.128  -0.904  0.00  0.00    -0.610 N 
ATOM      4  C   LIG    1        2.615  -1.348  -0.101  0.00  0.00    +0.250 C 
ATOM      5  C   LIG    1        3.441  -0.874   1.121  0.00  0.00    +0.040 C 
ATOM      6  C   LIG    1        2.814   0.518   1.399  0.00  0.00    +0.050 C 
ATOM      7  C   LIG    1        2.489   1.040  -0.016  0.00  0.00    +0.270 C 
ENDROOT
BRANCH   7   8
ATOM      8  C   LIG    1        1.176   1.781   0.000  0.00  0.00    -0.080 A 
ATOM      9  C   LIG    1       -0.013   1.076   0.008  0.00  0.00    +0.030 A 
ATOM     10  C   LIG    1       -1.222   1.749   0.017  0.00  0.00    +0.020 A 
ATOM     11  C   LIG    1       -1.236   3.133   0.030  0.00  0.00    +0.070 A 
ATOM     12  O   LIG    1       -2.421   3.810   0.045  0.00  0.00    -0.320 OA
ATOM     13  C   LIG    1       -2.716   4.527   1.245  0.00  0.00    +0.220 C 
ATOM     14  C   LIG    1       -2.061   5.900   1.228  0.00  0.00    -0.020 C 
ATOM     15  C   LIG    1       -0.542   5.817   1.229  0.00  0.00    +0.230 C 
ATOM     16  O   LIG    1       -0.067   5.206   0.028  0.00  0.00    -0.320 OA
ATOM     17  C   LIG    1       -0.042   3.841   0.022  0.00  0.00    +0.070 A 
ATOM     18  C   LIG    1        1.165   3.165   0.007  0.00  0.00    +0.030 A 
ENDBRANCH   7   8
BRANCH   2  19
ATOM     19  C   LIG    1        2.071  -1.370  -3.019  0.00  0.00    -0.040 C 
ATOM     20  C   LIG    1        3.185  -1.636  -4.033  0.00  0.00    +0.080 C 
ATOM     21  C   LIG    1        1.784  -1.260  -4.518  0.00  0.00    +0.040 C 
BRANCH  21  22
ATOM     22  C   LIG    1        0.950  -2.345  -5.148  0.00  0.00    -0.010 A 
ATOM     23  C   LIG    1        1.371  -3.667  -5.125  0.00  0.00    -0.030 A 
ATOM     24  C   LIG    1        0.578  -4.636  -5.709  0.00  0.00    +0.260 A 
ATOM     25  N   LIG    1       -0.561  -4.315  -6.291  0.00  0.00    -0.490 NA
ATOM     26  C   LIG    1       -0.990  -3.069  -6.336  0.00  0.00    +0.260 A 
ATOM     27  C   LIG    1       -0.253  -2.047  -5.769  0.00  0.00    -0.020 A 
ENDBRANCH  21  22
ENDBRANCH   2  19
TORSDOF 3
