REMARK  Name = ZINCrH000004uDUV.0
REMARK                            x       y       z     vdW  Elec       q    Type
REMARK                         _______ _______ _______ _____ _____    ______ ____
ROOT
ATOM      1  O   LIG    1        0.002  -0.004   0.002  0.00  0.00    -0.500 OA
ATOM      2  C   LIG    1       -0.014   1.209   0.009  0.00  0.00    +0.520 C 
ATOM      3  N   LIG    1       -1.191   1.867   0.018  0.00  0.00    -0.720 N 
ATOM      4  H   LIG    1       -1.204   2.837   0.023  0.00  0.00    +0.400 HD
ENDROOT
BRANCH   2   5
ATOM      5  C   LIG    1        1.280   1.980   0.001  0.00  0.00    +0.140 C 
ATOM      6  C   LIG    1        1.493   2.719   1.343  0.00  0.00    +0.090 C 
ATOM      7  C   LIG    1        2.988   2.582   1.562  0.00  0.00    +0.120 C 
ATOM      8  N   LIG    1        3.430   1.664   0.768  0.00  0.00    -0.250 NA
ATOM      9  O   LIG    1        2.413   1.087  -0.027  0.00  0.00    -0.160 OA
BRANCH   7  10
ATOM     10  C   LIG    1        3.797   3.363   2.517  0.00  0.00    -0.050 A 
ATOM     11  C   LIG    1        3.193   4.331   3.321  0.00  0.00    +0.050 A 
ATOM     12  C   LIG    1        3.957   5.059   4.213  0.00  0.00    +0.090 A 
ATOM     13  C   LIG    1        5.320   4.829   4.311  0.00  0.00    +0.050 A 
ATOM     14  C   LIG    1        5.926   3.871   3.518  0.00  0.00    +0.030 A 
ATOM     15  F   LIG    1        3.374   5.996   4.992  0.00  0.00    -0.130 F 
ATOM     16  C   LIG    1        5.173   3.132   2.625  0.00  0.00    +0.130 A 
ATOM     17  F   LIG    1        5.764   2.193   1.855  0.00  0.00    -0.110 F 
ENDBRANCH   7  10
ENDBRANCH   2   5
BRANCH   3  18
ATOM     18  C   LIG    1       -2.449   1.117   0.020  0.00  0.00    +0.330 C 
BRANCH  18  19
ATOM     19  C   LIG    1       -3.608   2.080   0.030  0.00  0.00    -0.110 A 
ATOM     20  C   LIG    1       -4.145   2.529  -1.161  0.00  0.00    +0.070 A 
ATOM     21  C   LIG    1       -5.208   3.413  -1.152  0.00  0.00    +0.020 A 
ATOM     22  C   LIG    1       -5.734   3.848   0.050  0.00  0.00    +0.080 A 
ATOM     23  C   LIG    1       -5.197   3.398   1.243  0.00  0.00    -0.180 A 
ATOM     24  C   LIG    1       -4.137   2.512   1.233  0.00  0.00    +0.090 A 
BRANCH  23  25
ATOM     25  C   LIG    1       -5.771   3.872   2.553  0.00  0.00    +0.510 C 
ATOM     26  F   LIG    1       -4.778   4.530   3.287  0.00  0.00    -0.180 F 
ATOM     27  F   LIG    1       -6.239   2.774   3.282  0.00  0.00    -0.170 F 
ATOM     28  F   LIG    1       -6.829   4.754   2.307  0.00  0.00    -0.180 F 
ENDBRANCH  23  25
ENDBRANCH  18  19
ENDBRANCH   3  18
TORSDOF 5
