REMARK  Name = ZINCtV000002OIDV.0
REMARK                            x       y       z     vdW  Elec       q    Type
REMARK                         _______ _______ _______ _____ _____    ______ ____
ROOT
ATOM      1  C   LIG    1        2.876  -3.889  -0.046  0.00  0.00    -0.080 A 
ATOM      2  C   LIG    1        1.824  -4.789   0.062  0.00  0.00    +0.040 A 
ATOM      3  C   LIG    1        2.092  -6.166   0.048  0.00  0.00    +0.200 A 
ATOM      4  N   LIG    1        3.313  -6.644  -0.066  0.00  0.00    -0.440 NA
ATOM      5  C   LIG    1        4.381  -5.853  -0.175  0.00  0.00    +0.130 A 
ATOM      6  C   LIG    1        5.675  -6.393  -0.295  0.00  0.00    +0.050 A 
ATOM      7  C   LIG    1        6.745  -5.561  -0.421  0.00  0.00    +0.040 A 
ATOM      8  C   LIG    1        6.584  -4.177  -0.417  0.00  0.00    +0.030 A 
ATOM      9  C   LIG    1        5.346  -3.618  -0.298  0.00  0.00    +0.060 A 
ATOM     10  C   LIG    1        4.223  -4.444  -0.177  0.00  0.00    -0.060 A 
ENDROOT
BRANCH   3  11
ATOM     11  C   LIG    1        0.959  -7.116   0.165  0.00  0.00    -0.060 A 
ATOM     12  C   LIG    1       -0.344  -6.638   0.293  0.00  0.00    +0.030 A 
ATOM     13  C   LIG    1       -1.395  -7.527   0.396  0.00  0.00    +0.010 A 
ATOM     14  C   LIG    1       -1.155  -8.890   0.384  0.00  0.00    +0.030 A 
ATOM     15  C   LIG    1        0.137  -9.369   0.263  0.00  0.00    +0.010 A 
ATOM     16  C   LIG    1        1.194  -8.490   0.153  0.00  0.00    +0.070 A 
ENDBRANCH   3  11
BRANCH   1  18
ATOM     17  O   LIG    1        3.587  -1.663  -0.028  0.00  0.00    -0.480 OA
ATOM     18  C   LIG    1        2.643  -2.429  -0.036  0.00  0.00    +0.570 C 
ATOM     19  N   LIG    1        1.384  -1.948  -0.036  0.00  0.00    -0.610 N 
ATOM     20  H   LIG    1        0.631  -2.559  -0.043  0.00  0.00    +0.430 HD
BRANCH  19  21
ATOM     21  C   LIG    1        1.165  -0.577  -0.027  0.00  0.00    +0.270 A 
ATOM     22  N   LIG    1        0.002  -0.004  -0.026  0.00  0.00    -0.490 NA
ATOM     23  C   LIG    1       -0.016   1.322  -0.016  0.00  0.00    +0.160 A 
ATOM     24  C   LIG    1        1.194   1.915  -0.008  0.00  0.00    -0.110 A 
ATOM     25  S   LIG    1        2.425   0.654  -0.014  0.00  0.00    +0.220 S 
BRANCH  23  26
ATOM     26  C   LIG    1       -1.276   2.096  -0.020  0.00  0.00    -0.130 A 
ATOM     27  C   LIG    1       -2.515   1.566  -0.038  0.00  0.00    +0.050 A 
ATOM     28  C   LIG    1       -3.539   2.493  -0.034  0.00  0.00    +0.000 A 
ATOM     29  C   LIG    1       -3.146   3.769  -0.022  0.00  0.00    -0.040 A 
ATOM     30  S   LIG    1       -1.390   3.852  -0.009  0.00  0.00    +0.130 S 
ENDBRANCH  23  26
ENDBRANCH  19  21
ENDBRANCH   1  18
TORSDOF 4
