REMARK  Name = ZINCrD000000CYP0.0
REMARK                            x       y       z     vdW  Elec       q    Type
REMARK                         _______ _______ _______ _____ _____    ______ ____
ROOT
ATOM      1  N   LIG    1        2.556   4.260  -0.617  0.00  0.00    -0.720 N 
ATOM      2  H   LIG    1        2.358   5.208  -0.665  0.00  0.00    +0.400 HD
ENDROOT
BRANCH   1   5
ATOM      3  O   LIG    1        3.749   2.437  -2.840  0.00  0.00    -0.500 OA
ATOM      4  C   LIG    1        4.140   3.448  -2.295  0.00  0.00    +0.510 C 
ATOM      5  C   LIG    1        3.925   3.786  -0.837  0.00  0.00    +0.250 C 
ATOM      6  C   LIG    1        4.941   4.916  -0.552  0.00  0.00    +0.060 C 
ATOM      7  C   LIG    1        5.143   5.516  -1.964  0.00  0.00    +0.270 C 
ATOM      8  N   LIG    1        4.829   4.431  -2.901  0.00  0.00    -0.580 N 
BRANCH   8   9
ATOM      9  C   LIG    1        5.200   4.420  -4.250  0.00  0.00    +0.150 A 
ATOM     10  C   LIG    1        4.351   4.956  -5.209  0.00  0.00    +0.030 A 
ATOM     11  C   LIG    1        4.722   4.949  -6.540  0.00  0.00    +0.030 A 
ATOM     12  C   LIG    1        5.932   4.399  -6.919  0.00  0.00    +0.040 A 
ATOM     13  C   LIG    1        6.779   3.859  -5.968  0.00  0.00    +0.030 A 
ATOM     14  C   LIG    1        6.416   3.868  -4.634  0.00  0.00    -0.030 A 
ATOM     15 CL   LIG    1        7.479   3.191  -3.440  0.00  0.00    -0.060 Cl
ENDBRANCH   8   9
ENDBRANCH   1   5
BRANCH   1  16
ATOM     16  C   LIG    1        1.537   3.346  -0.339  0.00  0.00    +0.230 A 
ATOM     17  C   LIG    1        1.794   1.982  -0.383  0.00  0.00    -0.060 A 
ATOM     18  C   LIG    1        0.783   1.082  -0.107  0.00  0.00    +0.050 A 
ATOM     19  C   LIG    1       -0.484   1.537   0.206  0.00  0.00    -0.050 A 
ATOM     20  C   LIG    1       -0.742   2.895   0.257  0.00  0.00    +0.050 A 
ATOM     21  C   LIG    1        0.264   3.801  -0.017  0.00  0.00    -0.150 A 
BRANCH  21  22
ATOM     22  C   LIG    1       -0.019   5.280   0.032  0.00  0.00    +0.220 C 
BRANCH  22  23
ATOM     23  N   LIG    1        0.563   5.849   1.255  0.00  0.00    -0.530 NA
ATOM     24  C   LIG    1       -0.202   5.441   2.442  0.00  0.00    +0.150 C 
ATOM     25  C   LIG    1        0.472   6.005   3.696  0.00  0.00    +0.220 C 
ATOM     26  O   LIG    1        0.571   7.427   3.578  0.00  0.00    -0.390 OA
ATOM     27  C   LIG    1        1.310   7.860   2.433  0.00  0.00    +0.220 C 
ATOM     28  C   LIG    1        0.645   7.314   1.167  0.00  0.00    +0.140 C 
ENDBRANCH  22  23
ENDBRANCH  21  22
ENDBRANCH   1  16
TORSDOF 5
