REMARK  Name = ZINCpe000000TX6e.0
REMARK                            x       y       z     vdW  Elec       q    Type
REMARK                         _______ _______ _______ _____ _____    ______ ____
ROOT
ATOM      1  N   LIG    1        1.264   1.375   4.850  0.00  0.00    -0.530 NA
ATOM      2  C   LIG    1        1.958   1.031   3.602  0.00  0.00    +0.190 C 
ATOM      3  C   LIG    1        0.958   0.388   2.627  0.00  0.00    +0.260 C 
ATOM      4  N   LIG    1       -0.186   1.300   2.472  0.00  0.00    -0.600 N 
ATOM      5  C   LIG    1       -0.849   1.798   3.686  0.00  0.00    +0.240 C 
ATOM      6  C   LIG    1       -1.859   2.885   3.312  0.00  0.00    +0.050 C 
ATOM      7  C   LIG    1       -0.618   1.665   1.248  0.00  0.00    +0.500 C 
ATOM      8  O   LIG    1       -1.625   2.331   1.135  0.00  0.00    -0.500 OA
ATOM      9  C   LIG    1        0.218   2.380   4.619  0.00  0.00    +0.180 C 
ENDROOT
BRANCH   1  10
ATOM     10  C   LIG    1        2.215   1.830   5.873  0.00  0.00    +0.250 C 
BRANCH  10  16
ATOM     11  C   LIG    1        4.408   1.020   4.965  0.00  0.00    +0.130 A 
ATOM     12  C   LIG    1        5.496   0.160   5.001  0.00  0.00    -0.080 A 
ATOM     13  C   LIG    1        5.571  -0.817   5.976  0.00  0.00    +0.050 A 
ATOM     14  C   LIG    1        4.564  -0.937   6.915  0.00  0.00    -0.030 A 
ATOM     15  C   LIG    1        3.482  -0.077   6.885  0.00  0.00    +0.070 A 
ATOM     16  C   LIG    1        3.398   0.897   5.909  0.00  0.00    -0.120 A 
BRANCH  11  17
ATOM     17  O   LIG    1        4.331   1.980   4.007  0.00  0.00    -0.310 OA
BRANCH  17  19
ATOM     18  C   LIG    1        5.146   3.182   2.075  0.00  0.00    +0.060 C 
ATOM     19  C   LIG    1        5.407   2.048   3.068  0.00  0.00    +0.170 C 
ENDBRANCH  17  19
ENDBRANCH  11  17
ENDBRANCH  10  16
ENDBRANCH   1  10
BRANCH   7  20
ATOM     20  C   LIG    1        0.150   1.245   0.021  0.00  0.00    +0.360 C 
BRANCH  20  21
ATOM     21  N   LIG    1       -0.520   1.763  -1.174  0.00  0.00    -0.300 N 
ATOM     22  C   LIG    1        0.036   2.526  -2.134  0.00  0.00    +0.390 A 
ATOM     23  N   LIG    1       -0.904   2.765  -3.015  0.00  0.00    -0.300 NA
ATOM     24  N   LIG    1       -1.981   2.180  -2.617  0.00  0.00    -0.070 NA
ATOM     25  N   LIG    1       -1.751   1.569  -1.508  0.00  0.00    -0.060 NA
ENDBRANCH  20  21
ENDBRANCH   7  20
TORSDOF 6
