REMARK  Name = ZINCpe00000QFGU1.0
REMARK                            x       y       z     vdW  Elec       q    Type
REMARK                         _______ _______ _______ _____ _____    ______ ____
ROOT
ATOM      1  C   LIG    1        0.969  -1.006   1.573  0.00  0.00    +0.150 A 
ATOM      2  C   LIG    1       -0.240  -0.373   1.809  0.00  0.00    -0.080 A 
ATOM      3  C   LIG    1       -0.311   1.008   1.792  0.00  0.00    +0.060 A 
ATOM      4  C   LIG    1        0.822   1.755   1.539  0.00  0.00    -0.010 A 
ATOM      5  C   LIG    1        2.043   1.128   1.297  0.00  0.00    +0.100 A 
ATOM      6  N   LIG    1        3.154   1.938   1.038  0.00  0.00    -0.490 N 
ATOM      7  C   LIG    1        3.071   2.534  -0.302  0.00  0.00    +0.230 C 
ATOM      8  C   LIG    1        4.419   1.215   1.214  0.00  0.00    +0.180 C 
ATOM      9  C   LIG    1        4.328  -0.107   0.442  0.00  0.00    +0.190 C 
ATOM     10  N   LIG    1        3.317  -0.950   1.091  0.00  0.00    -0.470 N 
ATOM     11  C   LIG    1        2.119  -0.257   1.317  0.00  0.00    +0.030 A 
ENDROOT
BRANCH   1  13
ATOM     12  C   LIG    1       -0.177  -3.071   1.861  0.00  0.00    +0.240 C 
ATOM     13  O   LIG    1        1.036  -2.365   1.592  0.00  0.00    -0.300 OA
ENDBRANCH   1  13
BRANCH  10  14
ATOM     14  C   LIG    1        3.835  -1.526   2.340  0.00  0.00    +0.310 C 
BRANCH  14  15
ATOM     15  C   LIG    1        4.976  -2.459   2.027  0.00  0.00    +0.010 A 
ATOM     16  C   LIG    1        6.296  -2.157   2.041  0.00  0.00    +0.140 A 
ATOM     17  N   LIG    1        6.947  -3.302   1.696  0.00  0.00    -0.230 N 
ATOM     18  N   LIG    1        6.066  -4.218   1.493  0.00  0.00    -0.050 NA
ATOM     19  N   LIG    1        4.884  -3.749   1.686  0.00  0.00    -0.220 NA
BRANCH  17  20
ATOM     20  C   LIG    1        8.333  -3.457   1.584  0.00  0.00    +0.250 A 
ATOM     21  C   LIG    1        9.003  -4.612   1.345  0.00  0.00    +0.190 A 
ATOM     22  N   LIG    1       10.309  -4.354   1.306  0.00  0.00    -0.220 NA
ATOM     23  N   LIG    1       10.516  -3.100   1.514  0.00  0.00    -0.030 NA
ATOM     24  N   LIG    1        9.273  -2.477   1.700  0.00  0.00    -0.360 N 
ATOM     25  C   LIG    1        9.033  -1.056   1.964  0.00  0.00    +0.380 C 
ENDBRANCH  17  20
ENDBRANCH  14  15
ENDBRANCH  10  14
TORSDOF 4
