REMARK  Name = ZINCtV000002pwog.0
REMARK                            x       y       z     vdW  Elec       q    Type
REMARK                         _______ _______ _______ _____ _____    ______ ____
ROOT
ATOM      1  C   LIG    1       -0.073  -0.022  -0.184  0.00  0.00    +0.220 A 
ATOM      2  N   LIG    1        0.955  -0.780  -0.487  0.00  0.00    -0.260 NA
ATOM      3  N   LIG    1        0.720  -1.996  -0.142  0.00  0.00    -0.290 NA
ATOM      4  C   LIG    1       -0.477  -2.090   0.394  0.00  0.00    +0.160 A 
ATOM      5  N   LIG    1       -1.023  -0.838   0.386  0.00  0.00    -0.450 N 
ENDROOT
BRANCH   1  10
ATOM      6 BR   LIG    1       -0.559   6.020  -1.155  0.00  0.00    -0.040 Br
ATOM      7  C   LIG    1       -0.410   4.159  -0.855  0.00  0.00    -0.080 A 
ATOM      8  C   LIG    1        0.830   3.601  -0.590  0.00  0.00    +0.050 A 
ATOM      9  C   LIG    1        0.945   2.244  -0.372  0.00  0.00    +0.080 A 
ATOM     10  C   LIG    1       -0.190   1.433  -0.417  0.00  0.00    +0.000 A 
ATOM     11  C   LIG    1       -1.436   2.001  -0.690  0.00  0.00    +0.020 A 
ATOM     12  C   LIG    1       -1.539   3.360  -0.902  0.00  0.00    +0.050 A 
ENDBRANCH   1  10
BRANCH   5  13
ATOM     13  C   LIG    1       -2.345  -0.446   0.881  0.00  0.00    +0.230 C 
ATOM     14  C   LIG    1       -2.499  -0.897   2.335  0.00  0.00    +0.010 C 
ATOM     15  C   LIG    1       -3.880  -0.487   2.852  0.00  0.00    +0.030 C 
ATOM     16  C   LIG    1       -4.962  -1.148   1.995  0.00  0.00    +0.010 C 
ATOM     17  C   LIG    1       -4.807  -0.697   0.541  0.00  0.00    +0.040 C 
ATOM     18  C   LIG    1       -3.427  -1.106   0.024  0.00  0.00    +0.010 C 
ENDBRANCH   5  13
BRANCH   4  19
ATOM     19  S   LIG    1       -1.235  -3.557   1.007  0.00  0.00    +0.030 S 
BRANCH  19  20
ATOM     20  C   LIG    1        0.081  -4.754   0.672  0.00  0.00    +0.200 C 
BRANCH  20  21
ATOM     21  C   LIG    1       -0.357  -6.122   1.127  0.00  0.00    +0.060 A 
ATOM     22  C   LIG    1       -0.153  -6.647   2.356  0.00  0.00    +0.120 A 
ATOM     23  N   LIG    1       -0.703  -7.900   2.357  0.00  0.00    -0.360 N 
ATOM     24  C   LIG    1       -0.792  -8.868   3.314  0.00  0.00    +0.220 A 
ATOM     25  C   LIG    1       -1.396 -10.045   3.048  0.00  0.00    +0.010 A 
ATOM     26  C   LIG    1       -1.943 -10.289   1.777  0.00  0.00    +0.050 A 
ATOM     27  C   LIG    1       -1.862  -9.332   0.814  0.00  0.00    +0.070 A 
ATOM     28  C   LIG    1       -1.228  -8.108   1.108  0.00  0.00    +0.230 A 
ATOM     29  N   LIG    1       -1.007  -7.021   0.383  0.00  0.00    -0.480 NA
ENDBRANCH  20  21
ENDBRANCH  19  20
ENDBRANCH   4  19
TORSDOF 5
