REMARK  Name = ZINCqH0000007zTo.0
REMARK                            x       y       z     vdW  Elec       q    Type
REMARK                         _______ _______ _______ _____ _____    ______ ____
ROOT
ATOM      1  N   LIG    1       -4.142   6.197   1.455  0.00  0.00    -0.700 N 
ATOM      2  H   LIG    1       -3.590   5.877   2.185  0.00  0.00    +0.410 HD
ATOM      3  C   LIG    1       -5.287   6.860   1.715  0.00  0.00    +0.580 C 
ATOM      4  O   LIG    1       -5.978   7.261   0.800  0.00  0.00    -0.520 OA
ENDROOT
BRANCH   3   5
ATOM      5  C   LIG    1       -5.701   7.100   3.118  0.00  0.00    +0.060 A 
ATOM      6  N   LIG    1       -4.948   6.657   4.109  0.00  0.00    -0.390 NA
ATOM      7  C   LIG    1       -5.320   6.878   5.371  0.00  0.00    +0.080 A 
ATOM      8  C   LIG    1       -4.537   6.423   6.448  0.00  0.00    +0.060 A 
ATOM      9  C   LIG    1       -4.944   6.658   7.725  0.00  0.00    +0.040 A 
ATOM     10  C   LIG    1       -6.130   7.345   7.984  0.00  0.00    +0.060 A 
ATOM     11  C   LIG    1       -6.914   7.800   6.969  0.00  0.00    +0.050 A 
ATOM     12  C   LIG    1       -6.527   7.577   5.636  0.00  0.00    +0.100 A 
ATOM     13  N   LIG    1       -7.279   8.013   4.619  0.00  0.00    -0.420 NA
ATOM     14  C   LIG    1       -6.896   7.792   3.383  0.00  0.00    +0.320 A 
ENDBRANCH   3   5
BRANCH   1  15
ATOM     15  C   LIG    1       -3.732   5.960   0.069  0.00  0.00    +0.320 C 
BRANCH  15  21
ATOM     16  C   LIG    1        1.195   1.782   0.000  0.00  0.00    +0.130 A 
ATOM     17  C   LIG    1        1.208   3.147   0.008  0.00  0.00    -0.020 A 
ATOM     18  C   LIG    1       -0.006   3.853   0.023  0.00  0.00    -0.010 A 
ATOM     19  C   LIG    1       -0.032   5.258   0.031  0.00  0.00    +0.020 A 
ATOM     20  C   LIG    1       -1.227   5.910   0.045  0.00  0.00    +0.040 A 
ATOM     21  C   LIG    1       -2.428   5.205   0.053  0.00  0.00    -0.120 A 
ATOM     22  C   LIG    1       -2.442   3.843   0.045  0.00  0.00    +0.060 A 
ATOM     23  C   LIG    1       -1.229   3.136   0.031  0.00  0.00    -0.090 A 
ATOM     24  C   LIG    1       -1.205   1.730   0.017  0.00  0.00    +0.070 A 
ATOM     25  C   LIG    1       -0.013   1.076   0.008  0.00  0.00    -0.060 A 
BRANCH  16  27
ATOM     26  C   LIG    1        2.292  -0.327  -0.022  0.00  0.00    +0.250 C 
ATOM     27  O   LIG    1        2.370   1.100  -0.015  0.00  0.00    -0.320 OA
ENDBRANCH  16  27
ENDBRANCH  15  21
ENDBRANCH   1  15
TORSDOF 4
