REMARK  Name = ZINCpk00000KfLNG.0
REMARK                            x       y       z     vdW  Elec       q    Type
REMARK                         _______ _______ _______ _____ _____    ______ ____
ROOT
ATOM      1  N   LIG    1       -2.978   1.162  -0.249  0.00  0.00    -0.460 N 
ATOM      2  C   LIG    1       -2.064   0.916  -1.365  0.00  0.00    +0.200 C 
ATOM      3  C   LIG    1       -0.762   1.599  -1.248  0.00  0.00    +0.040 C 
ATOM      4  C   LIG    1       -0.013   1.086   0.008  0.00  0.00    +0.280 C 
ATOM      5  N   LIG    1       -0.690   1.552   1.199  0.00  0.00    -0.600 N 
ATOM      6  C   LIG    1       -1.781   0.798   1.849  0.00  0.00    +0.280 C 
ATOM      7  C   LIG    1       -0.307   2.727   1.738  0.00  0.00    +0.520 C 
ATOM      8  O   LIG    1        0.586   3.367   1.226  0.00  0.00    -0.510 OA
ATOM      9  C   LIG    1       -2.755   0.205   0.814  0.00  0.00    +0.200 C 
ENDROOT
BRANCH   1  14
ATOM     10  C   LIG    1       -8.229   1.017  -2.150  0.00  0.00    +0.140 C 
ATOM     11  C   LIG    1       -6.832   1.067  -1.587  0.00  0.00    +0.040 A 
ATOM     12  C   LIG    1       -6.636   1.313  -0.236  0.00  0.00    +0.060 A 
ATOM     13  C   LIG    1       -5.334   1.349   0.238  0.00  0.00    +0.020 A 
ATOM     14  C   LIG    1       -4.301   1.136  -0.674  0.00  0.00    +0.250 A 
ATOM     15  N   LIG    1       -4.587   0.913  -1.949  0.00  0.00    -0.280 NA
ATOM     16  N   LIG    1       -5.796   0.875  -2.380  0.00  0.00    -0.220 NA
ENDBRANCH   1  14
BRANCH   7  17
ATOM     17  C   LIG    1       -0.990   3.243   2.979  0.00  0.00    +0.150 C 
ATOM     18  C   LIG    1       -0.705   2.300   4.149  0.00  0.00    +0.040 C 
BRANCH  17  19
ATOM     19  O   LIG    1       -0.494   4.548   3.287  0.00  0.00    -0.350 OA
BRANCH  19  20
ATOM     20  C   LIG    1       -1.443   5.390   3.944  0.00  0.00    +0.160 C 
BRANCH  20  21
ATOM     21  C   LIG    1       -0.807   6.753   4.224  0.00  0.00    +0.170 C 
ATOM     22  C   LIG    1       -1.785   7.630   5.036  0.00  0.00    +0.020 C 
ATOM     23  C   LIG    1       -1.576   9.032   4.400  0.00  0.00    +0.010 C 
ATOM     24  C   LIG    1       -1.301   8.647   2.924  0.00  0.00    +0.190 C 
ATOM     25  O   LIG    1       -0.543   7.429   2.989  0.00  0.00    -0.360 OA
ENDBRANCH  20  21
ENDBRANCH  19  20
ENDBRANCH  17  19
ENDBRANCH   7  17
TORSDOF 5
