REMARK  Name = ZINCvU00000004ec.0
REMARK                            x       y       z     vdW  Elec       q    Type
REMARK                         _______ _______ _______ _____ _____    ______ ____
ROOT
ATOM      1  C   LIG    1       -0.739   3.088   1.275  0.00  0.00    +0.540 C 
ATOM      2  N   LIG    1       -1.719   3.750   0.628  0.00  0.00    -0.660 N 
ATOM      3  H   LIG    1       -2.367   3.260   0.098  0.00  0.00    +0.420 HD
ATOM      4  O   LIG    1        0.133   3.705   1.849  0.00  0.00    -0.500 OA
ENDROOT
BRANCH   2   5
ATOM      5  C   LIG    1       -1.800   5.146   0.719  0.00  0.00    +0.150 A 
ATOM      6  C   LIG    1       -1.285   5.800   1.830  0.00  0.00    +0.040 A 
ATOM      7  C   LIG    1       -1.360   7.176   1.917  0.00  0.00    +0.030 A 
ATOM      8  C   LIG    1       -1.960   7.904   0.899  0.00  0.00    +0.070 A 
ATOM      9  C   LIG    1       -2.480   7.250  -0.209  0.00  0.00    +0.040 A 
ATOM     10  C   LIG    1       -2.400   5.874  -0.299  0.00  0.00    +0.010 A 
BRANCH   8  11
ATOM     11  O   LIG    1       -2.039   9.258   0.988  0.00  0.00    -0.260 OA
BRANCH  11  12
ATOM     12  C   LIG    1       -0.909   9.979   0.762  0.00  0.00    +0.120 A 
ATOM     13  C   LIG    1        0.300   9.330   0.558  0.00  0.00    -0.070 A 
ATOM     14  C   LIG    1        1.446  10.065   0.324  0.00  0.00    +0.050 A 
ATOM     15  C   LIG    1        1.391  11.447   0.304  0.00  0.00    -0.020 A 
ATOM     16  C   LIG    1        0.188  12.096   0.512  0.00  0.00    +0.050 A 
ATOM     17  C   LIG    1       -0.962  11.365   0.741  0.00  0.00    -0.020 A 
ENDBRANCH  11  12
ENDBRANCH   8  11
ENDBRANCH   2   5
BRANCH   1  18
ATOM     18  C   LIG    1       -0.728   1.581   1.286  0.00  0.00    +0.020 C 
ATOM     19  C   LIG    1       -0.037   1.067   0.021  0.00  0.00    +0.090 C 
BRANCH  18  20
ATOM     20  S   LIG    1        0.170   0.995   2.744  0.00  0.00    +0.070 S 
BRANCH  20  27
ATOM     21  C   LIG    1       -1.179  -5.018   1.563  0.00  0.00    +0.130 A 
ATOM     22  C   LIG    1       -0.446  -5.266   2.719  0.00  0.00    -0.040 A 
ATOM     23  C   LIG    1        0.117  -4.224   3.426  0.00  0.00    +0.060 A 
ATOM     24  C   LIG    1       -0.047  -2.920   2.984  0.00  0.00    +0.020 A 
ATOM     25  N   LIG    1        0.379  -1.686   3.454  0.00  0.00    -0.580 N 
ATOM     26  H   LIG    1        0.913  -1.525   4.247  0.00  0.00    +0.430 HD
ATOM     27  C   LIG    1       -0.096  -0.740   2.591  0.00  0.00    +0.260 A 
ATOM     28  N   LIG    1       -0.783  -1.314   1.634  0.00  0.00    -0.490 NA
ATOM     29  C   LIG    1       -0.786  -2.661   1.818  0.00  0.00    +0.100 A 
ATOM     30  C   LIG    1       -1.351  -3.724   1.110  0.00  0.00    +0.030 A 
BRANCH  21  31
ATOM     31  O   LIG    1       -1.729  -6.054   0.876  0.00  0.00    -0.310 OA
BRANCH  31  33
ATOM     32  C   LIG    1       -2.202  -8.393   0.497  0.00  0.00    +0.070 C 
ATOM     33  C   LIG    1       -1.513  -7.366   1.398  0.00  0.00    +0.170 C 
ENDBRANCH  31  33
ENDBRANCH  21  31
ENDBRANCH  20  27
ENDBRANCH  18  20
ENDBRANCH   1  18
TORSDOF 8
