REMARK  Name = ZINCvU00000004ec.1
REMARK                            x       y       z     vdW  Elec       q    Type
REMARK                         _______ _______ _______ _____ _____    ______ ____
ROOT
ATOM      1  C   LIG    1       -1.817   5.044  -0.077  0.00  0.00    +0.540 C 
ATOM      2  N   LIG    1       -1.534   6.254  -0.599  0.00  0.00    -0.660 N 
ATOM      3  H   LIG    1       -0.621   6.479  -0.836  0.00  0.00    +0.420 HD
ATOM      4  O   LIG    1       -2.938   4.800   0.316  0.00  0.00    -0.500 OA
ENDROOT
BRANCH   2   5
ATOM      5  C   LIG    1       -2.560   7.187  -0.801  0.00  0.00    +0.150 A 
ATOM      6  C   LIG    1       -3.864   6.753  -0.998  0.00  0.00    +0.040 A 
ATOM      7  C   LIG    1       -4.876   7.674  -1.190  0.00  0.00    +0.030 A 
ATOM      8  C   LIG    1       -4.587   9.031  -1.199  0.00  0.00    +0.070 A 
ATOM      9  C   LIG    1       -3.283   9.464  -1.008  0.00  0.00    +0.040 A 
ATOM     10  C   LIG    1       -2.271   8.545  -0.810  0.00  0.00    +0.010 A 
BRANCH   8  11
ATOM     11  O   LIG    1       -5.582   9.936  -1.395  0.00  0.00    -0.260 OA
BRANCH  11  12
ATOM     12  C   LIG    1       -6.434  10.180  -0.364  0.00  0.00    +0.120 A 
ATOM     13  C   LIG    1       -6.341   9.438   0.805  0.00  0.00    -0.070 A 
ATOM     14  C   LIG    1       -7.205   9.692   1.852  0.00  0.00    +0.050 A 
ATOM     15  C   LIG    1       -8.168  10.677   1.733  0.00  0.00    -0.020 A 
ATOM     16  C   LIG    1       -8.266  11.414   0.567  0.00  0.00    +0.050 A 
ATOM     17  C   LIG    1       -7.401  11.168  -0.482  0.00  0.00    -0.020 A 
ENDBRANCH  11  12
ENDBRANCH   8  11
ENDBRANCH   2   5
BRANCH   1  18
ATOM     18  C   LIG    1       -0.740   3.994   0.018  0.00  0.00    +0.030 C 
ATOM     19  C   LIG    1        0.060   4.200   1.306  0.00  0.00    +0.090 C 
BRANCH  18  20
ATOM     20  S   LIG    1       -1.499   2.351   0.035  0.00  0.00    +0.070 S 
BRANCH  20  26
ATOM     21  C   LIG    1        3.286  -1.734  -0.107  0.00  0.00    +0.150 A 
ATOM     22  C   LIG    1        4.048  -0.572  -0.130  0.00  0.00    -0.060 A 
ATOM     23  C   LIG    1        3.439   0.663  -0.109  0.00  0.00    +0.120 A 
ATOM     24  C   LIG    1        2.046   0.750  -0.067  0.00  0.00    +0.020 A 
ATOM     25  N   LIG    1        1.177   1.796  -0.039  0.00  0.00    -0.480 NA
ATOM     26  C   LIG    1       -0.053   1.345  -0.003  0.00  0.00    +0.250 A 
ATOM     27  N   LIG    1       -0.046  -0.022  -0.004  0.00  0.00    -0.580 N 
ATOM     28  H   LIG    1       -0.824  -0.601   0.018  0.00  0.00    +0.430 HD
ATOM     29  C   LIG    1        1.278  -0.426  -0.045  0.00  0.00    +0.100 A 
ATOM     30  C   LIG    1        1.904  -1.663  -0.065  0.00  0.00    -0.030 A 
BRANCH  21  31
ATOM     31  O   LIG    1        3.900  -2.947  -0.128  0.00  0.00    -0.310 OA
BRANCH  31  33
ATOM     32  C   LIG    1        5.835  -4.394  -0.188  0.00  0.00    +0.070 C 
ATOM     33  C   LIG    1        5.329  -2.950  -0.171  0.00  0.00    +0.170 C 
ENDBRANCH  31  33
ENDBRANCH  21  31
ENDBRANCH  20  26
ENDBRANCH  18  20
ENDBRANCH   1  18
TORSDOF 8
