REMARK  Name = ZINCpk00000KfKlf.0
REMARK                            x       y       z     vdW  Elec       q    Type
REMARK                         _______ _______ _______ _____ _____    ______ ____
ROOT
ATOM      1  C   LIG    1        1.192  -2.044  -0.313  0.00  0.00    +0.440 A 
ATOM      2  N   LIG    1        0.136  -2.822  -0.322  0.00  0.00    -0.280 NA
ATOM      3  N   LIG    1        0.602  -4.137  -0.483  0.00  0.00    -0.470 N 
ATOM      4  H   LIG    1        0.063  -4.942  -0.530  0.00  0.00    +0.450 HD
ATOM      5  C   LIG    1        1.942  -4.060  -0.554  0.00  0.00    +0.310 A 
ATOM      6  N   LIG    1        2.285  -2.801  -0.451  0.00  0.00    -0.540 NA
ENDROOT
BRANCH   1   8
ATOM      7  C   LIG    1        0.006  -0.001  -0.044  0.00  0.00    +0.590 C 
ATOM      8  N   LIG    1        1.178  -0.653  -0.176  0.00  0.00    -0.610 N 
ATOM      9  H   LIG    1        2.011  -0.157  -0.176  0.00  0.00    +0.430 HD
ATOM     10  O   LIG    1       -1.032  -0.629   0.053  0.00  0.00    -0.440 OA
BRANCH   7  16
ATOM     11  C   LIG    1        0.270   1.798   2.459  0.00  0.00    +0.400 C 
ATOM     12  N   LIG    1        0.097   2.271   1.083  0.00  0.00    -0.240 N 
ATOM     13  N   LIG    1        0.032   3.504   0.728  0.00  0.00    -0.250 NA
ATOM     14  C   LIG    1       -0.124   3.609  -0.567  0.00  0.00    +0.310 A 
ATOM     15  C   LIG    1       -0.159   2.318  -1.101  0.00  0.00    -0.120 A 
ATOM     16  C   LIG    1       -0.019   1.469  -0.017  0.00  0.00    +0.060 A 
BRANCH  15  17
ATOM     17  N   LIG    1       -0.313   1.939  -2.523  0.00  0.00    +0.060 N 
ATOM     18  O   LIG    1       -0.328   0.764  -2.842  0.00  0.00    -0.160 OA
ATOM     19  O   LIG    1       -0.427   2.803  -3.375  0.00  0.00    -0.130 OA
ENDBRANCH  15  17
ENDBRANCH   7  16
ENDBRANCH   1   8
BRANCH   5  20
ATOM     20  C   LIG    1        2.886  -5.222  -0.723  0.00  0.00    +0.220 C 
BRANCH  20  21
ATOM     21  C   LIG    1        3.766  -4.984  -1.923  0.00  0.00    -0.100 A 
ATOM     22  C   LIG    1        3.369  -5.431  -3.170  0.00  0.00    +0.050 A 
ATOM     23  C   LIG    1        4.173  -5.208  -4.272  0.00  0.00    -0.010 A 
ATOM     24  C   LIG    1        5.381  -4.548  -4.125  0.00  0.00    +0.110 A 
ATOM     25  C   LIG    1        5.780  -4.106  -2.874  0.00  0.00    -0.010 A 
ATOM     26  F   LIG    1        6.171  -4.336  -5.200  0.00  0.00    -0.140 F 
ATOM     27  C   LIG    1        4.972  -4.325  -1.775  0.00  0.00    +0.080 A 
ENDBRANCH  20  21
ENDBRANCH   5  20
TORSDOF 5
