REMARK  Name = ZINCrH000004mQQo.0
REMARK                            x       y       z     vdW  Elec       q    Type
REMARK                         _______ _______ _______ _____ _____    ______ ____
ROOT
ATOM      1  C   LIG    1       -4.888   0.916   0.245  0.00  0.00    +0.270 C 
ENDROOT
BRANCH   1   4
ATOM      2  N   LIG    1       -2.428   1.037   0.019  0.00  0.00    -0.670 N 
ATOM      3  H   LIG    1       -2.418   0.071  -0.063  0.00  0.00    +0.410 HD
ATOM      4  C   LIG    1       -3.602   1.691   0.130  0.00  0.00    +0.500 C 
ATOM      5  O   LIG    1       -3.622   2.904   0.137  0.00  0.00    -0.480 OA
BRANCH   2   9
ATOM      6  C   LIG    1        1.158   3.165   0.036  0.00  0.00    +0.110 A 
ATOM      7  C   LIG    1        0.082   3.614   0.787  0.00  0.00    +0.000 A 
ATOM      8  C   LIG    1       -1.107   2.912   0.779  0.00  0.00    +0.060 A 
ATOM      9  C   LIG    1       -1.224   1.753   0.023  0.00  0.00    +0.110 A 
ATOM     10  C   LIG    1       -0.148   1.307  -0.732  0.00  0.00    +0.030 A 
ATOM     11  C   LIG    1        1.040   2.010  -0.724  0.00  0.00    -0.060 A 
BRANCH   6  13
ATOM     12  C   LIG    1        3.395   3.337  -0.753  0.00  0.00    +0.250 C 
ATOM     13  O   LIG    1        2.328   3.857   0.044  0.00  0.00    -0.320 OA
ENDBRANCH   6  13
ENDBRANCH   2   9
ENDBRANCH   1   4
BRANCH   1  14
ATOM     14  N   LIG    1       -5.927   1.776   0.819  0.00  0.00    -0.720 N 
ATOM     15  H   LIG    1       -6.356   1.528   1.653  0.00  0.00    +0.400 HD
ATOM     16  C   LIG    1       -6.286   2.911   0.188  0.00  0.00    +0.600 C 
ATOM     17  O   LIG    1       -5.748   3.222  -0.858  0.00  0.00    -0.500 OA
BRANCH  16  18
ATOM     18  C   LIG    1       -7.325   3.771   0.762  0.00  0.00    -0.260 A 
ATOM     19  C   LIG    1       -7.774   4.942   0.219  0.00  0.00    +0.100 A 
ATOM     20  C   LIG    1       -8.757   5.546   0.967  0.00  0.00    +0.000 A 
ATOM     21  C   LIG    1       -9.101   4.895   2.084  0.00  0.00    -0.060 A 
ATOM     22  S   LIG    1       -8.198   3.458   2.256  0.00  0.00    +0.190 S 
ENDBRANCH  16  18
ENDBRANCH   1  14
BRANCH   1  23
ATOM     23  C   LIG    1       -5.326   0.444  -1.143  0.00  0.00    +0.100 C 
BRANCH  23  24
ATOM     24  C   LIG    1       -6.544  -0.433  -1.014  0.00  0.00    -0.080 A 
ATOM     25  C   LIG    1       -6.399  -1.799  -0.856  0.00  0.00    +0.000 A 
ATOM     26  C   LIG    1       -7.516  -2.603  -0.733  0.00  0.00    +0.000 A 
ATOM     27  C   LIG    1       -8.779  -2.044  -0.779  0.00  0.00    +0.000 A 
ATOM     28  C   LIG    1       -8.925  -0.679  -0.942  0.00  0.00    +0.000 A 
ATOM     29  C   LIG    1       -7.808   0.126  -1.060  0.00  0.00    +0.010 A 
ENDBRANCH  23  24
ENDBRANCH   1  23
TORSDOF 7
