REMARK  Name = ZINCqH0000038z7I.0
REMARK                            x       y       z     vdW  Elec       q    Type
REMARK                         _______ _______ _______ _____ _____    ______ ____
ROOT
ATOM      1  N   LIG    1        6.622   1.804  -1.718  0.00  0.00    -0.470 N 
ATOM      2  C   LIG    1        5.396   2.302  -1.461  0.00  0.00    +0.510 C 
ATOM      3  O   LIG    1        4.691   2.679  -2.373  0.00  0.00    -0.480 OA
ENDROOT
BRANCH   1   8
ATOM      4  C   LIG    1        7.853   1.157   2.943  0.00  0.00    +0.160 C 
ATOM      5  C   LIG    1        8.085   1.164   1.454  0.00  0.00    +0.100 A 
ATOM      6  C   LIG    1        9.252   0.822   0.904  0.00  0.00    -0.100 A 
ATOM      7  S   LIG    1        9.096   0.967  -0.845  0.00  0.00    +0.180 S 
ATOM      8  C   LIG    1        7.473   1.475  -0.667  0.00  0.00    +0.260 A 
ATOM      9  N   LIG    1        7.152   1.513   0.588  0.00  0.00    -0.520 NA
ENDBRANCH   1   8
BRANCH   1  10
ATOM     10  C   LIG    1        7.038   1.618  -3.042  0.00  0.00    +0.110 A 
ATOM     11  C   LIG    1        6.441   0.643  -3.829  0.00  0.00    +0.040 A 
ATOM     12  C   LIG    1        6.851   0.465  -5.136  0.00  0.00    +0.020 A 
ATOM     13  C   LIG    1        7.862   1.251  -5.657  0.00  0.00    +0.030 A 
ATOM     14  C   LIG    1        8.463   2.220  -4.874  0.00  0.00    +0.040 A 
ATOM     15  C   LIG    1        8.054   2.405  -3.568  0.00  0.00    +0.020 A 
ENDBRANCH   1  10
BRANCH   2  16
ATOM     16  C   LIG    1        4.901   2.391  -0.040  0.00  0.00    +0.420 C 
BRANCH  16  17
ATOM     17  N   LIG    1        3.552   2.962  -0.027  0.00  0.00    -0.540 N 
ATOM     18  C   LIG    1        3.241   4.271   0.064  0.00  0.00    +0.640 A 
ATOM     19  O   LIG    1        1.907   4.415   0.045  0.00  0.00    -0.230 OA
ATOM     20  C   LIG    1        1.328   3.194  -0.060  0.00  0.00    +0.040 A 
ATOM     21  C   LIG    1        0.008   2.776  -0.121  0.00  0.00    +0.060 A 
ATOM     22  C   LIG    1       -0.284   1.430  -0.229  0.00  0.00    +0.030 A 
ATOM     23  C   LIG    1        0.735   0.496  -0.276  0.00  0.00    +0.040 A 
ATOM     24  C   LIG    1        2.054   0.903  -0.216  0.00  0.00    +0.030 A 
ATOM     25  O   LIG    1        4.045   5.179   0.150  0.00  0.00    -0.480 OA
ATOM     26  C   LIG    1        2.355   2.252  -0.108  0.00  0.00    +0.080 A 
ENDBRANCH  16  17
ENDBRANCH   2  16
TORSDOF 4
