REMARK  Name = ZINCrH000004tJKV.0
REMARK                            x       y       z     vdW  Elec       q    Type
REMARK                         _______ _______ _______ _____ _____    ______ ____
ROOT
ATOM      1  C   LIG    1       -0.693   1.531   3.487  0.00  0.00    +0.320 C 
ENDROOT
BRANCH   1   2
ATOM      2  C   LIG    1       -0.089   1.130   4.809  0.00  0.00    -0.090 A 
ATOM      3  C   LIG    1       -0.556   0.009   5.470  0.00  0.00    +0.020 A 
ATOM      4  C   LIG    1       -0.001  -0.365   6.680  0.00  0.00    +0.030 A 
ATOM      5  C   LIG    1        1.013   0.387   7.238  0.00  0.00    +0.030 A 
ATOM      6  C   LIG    1        1.480   1.517   6.580  0.00  0.00    +0.150 A 
ATOM      7  C   LIG    1        0.925   1.887   5.362  0.00  0.00    +0.000 A 
BRANCH   6   8
ATOM      8  N   LIG    1        2.508   2.282   7.143  0.00  0.00    -0.670 N 
ATOM      9  H   LIG    1        2.526   3.243   7.010  0.00  0.00    +0.410 HD
ATOM     10  C   LIG    1        3.473   1.684   7.869  0.00  0.00    +0.520 C 
ATOM     11  O   LIG    1        3.505   0.474   7.955  0.00  0.00    -0.510 OA
BRANCH  10  12
ATOM     12  C   LIG    1        4.512   2.518   8.574  0.00  0.00    -0.010 C 
ATOM     13  C   LIG    1        5.333   3.320   7.544  0.00  0.00    +0.030 C 
ATOM     14  C   LIG    1        6.773   3.310   8.117  0.00  0.00    +0.020 C 
ATOM     15  C   LIG    1        6.896   1.885   8.710  0.00  0.00    +0.010 C 
ATOM     16  C   LIG    1        5.505   1.606   9.316  0.00  0.00    +0.040 C 
ENDBRANCH  10  12
ENDBRANCH   6   8
ENDBRANCH   1   2
BRANCH   1  19
ATOM     17  O   LIG    1       -1.257   1.828   0.868  0.00  0.00    -0.540 OA
ATOM     18  C   LIG    1       -0.317   1.104   1.118  0.00  0.00    +0.510 C 
ATOM     19  N   LIG    1        0.047   0.889   2.398  0.00  0.00    -0.730 N 
ATOM     20  H   LIG    1        0.799   0.310   2.598  0.00  0.00    +0.400 HD
BRANCH  18  21
ATOM     21  C   LIG    1        0.445   0.444  -0.002  0.00  0.00    +0.060 C 
BRANCH  21  22
ATOM     22  C   LIG    1       -0.168   0.850  -1.344  0.00  0.00    +0.100 C 
BRANCH  22  23
ATOM     23  C   LIG    1        0.594   0.190  -2.465  0.00  0.00    -0.110 A 
ATOM     24  C   LIG    1        1.615   0.869  -3.100  0.00  0.00    +0.030 A 
ATOM     25  C   LIG    1        2.314   0.264  -4.128  0.00  0.00    +0.000 A 
ATOM     26  C   LIG    1        1.992  -1.021  -4.523  0.00  0.00    +0.020 A 
ATOM     27  C   LIG    1        0.971  -1.704  -3.891  0.00  0.00    -0.010 A 
ATOM     28  C   LIG    1        0.273  -1.102  -2.855  0.00  0.00    +0.110 A 
BRANCH  28  29
ATOM     29  O   LIG    1       -0.728  -1.774  -2.228  0.00  0.00    -0.500 OA
ATOM     30  H   LIG    1       -1.599  -1.648  -2.630  0.00  0.00    +0.390 HD
ENDBRANCH  28  29
ENDBRANCH  22  23
ENDBRANCH  21  22
ENDBRANCH  18  21
ENDBRANCH   1  19
TORSDOF 8
