REMARK  Name = ZINCpe00000c7VEk.0
REMARK                            x       y       z     vdW  Elec       q    Type
REMARK                         _______ _______ _______ _____ _____    ______ ____
ROOT
ATOM      1  C   LIG    1        0.982  -0.668   0.647  0.00  0.00    +0.590 C 
ATOM      2  N   LIG    1        0.002  -0.004   0.002  0.00  0.00    -0.730 N 
ATOM      3  H   LIG    1       -0.690  -0.496  -0.467  0.00  0.00    +0.390 HD
ATOM      4  O   LIG    1        1.849  -0.051   1.236  0.00  0.00    -0.520 OA
ENDROOT
BRANCH   2   5
ATOM      5  C   LIG    1       -0.018   1.461   0.010  0.00  0.00    +0.240 C 
ATOM      6  C   LIG    1       -0.784   1.982   1.265  0.00  0.00    +0.050 C 
ATOM      7  C   LIG    1       -2.023   2.607   0.696  0.00  0.00    -0.040 C 
ATOM      8  C   LIG    1       -2.809   3.758   1.242  0.00  0.00    +0.270 C 
ATOM      9  N   LIG    1       -3.380   4.431   0.038  0.00  0.00    -0.630 N 
ATOM     10  C   LIG    1       -2.801   3.772  -1.174  0.00  0.00    +0.270 C 
ATOM     11  C   LIG    1       -4.261   5.451   0.042  0.00  0.00    +0.540 C 
ATOM     12  O   LIG    1       -4.654   5.917  -1.006  0.00  0.00    -0.540 OA
ATOM     13  C   LIG    1       -1.487   3.225  -0.653  0.00  0.00    -0.020 C 
ATOM     14  C   LIG    1       -0.810   1.996  -1.227  0.00  0.00    +0.050 C 
BRANCH  11  15
ATOM     15  C   LIG    1       -4.757   6.013   1.350  0.00  0.00    -0.030 C 
ATOM     16  C   LIG    1       -5.886   5.186   1.986  0.00  0.00    +0.030 C 
ATOM     17  C   LIG    1       -6.543   6.526   2.368  0.00  0.00    +0.010 C 
ATOM     18  C   LIG    1       -5.783   7.146   1.183  0.00  0.00    +0.040 C 
ENDBRANCH  11  15
ENDBRANCH   2   5
BRANCH   1  23
ATOM     19  C   LIG    1        1.570  -4.267   0.988  0.00  0.00    -0.240 A 
ATOM     20  C   LIG    1        0.421  -4.235   0.220  0.00  0.00    +0.260 A 
ATOM     21  N   LIG    1        0.081  -2.952   0.019  0.00  0.00    -0.530 N 
ATOM     22  H   LIG    1       -0.690  -2.648  -0.486  0.00  0.00    +0.420 HD
ATOM     23  C   LIG    1        1.002  -2.136   0.639  0.00  0.00    -0.060 A 
ATOM     24  C   LIG    1        1.931  -2.926   1.248  0.00  0.00    +0.120 A 
BRANCH  19  28
ATOM     25  N   LIG    1        1.822  -6.694   1.120  0.00  0.00    -0.850 N 
ATOM     26  H   LIG    1        2.292  -7.487   1.423  0.00  0.00    +0.410 HD
ATOM     27  H   LIG    1        1.019  -6.782   0.583  0.00  0.00    +0.400 HD
ATOM     28  C   LIG    1        2.284  -5.471   1.447  0.00  0.00    +0.590 C 
ATOM     29  O   LIG    1        3.290  -5.362   2.121  0.00  0.00    -0.540 OA
ENDBRANCH  19  28
ENDBRANCH   1  23
TORSDOF 4
