REMARK  Name = ZINCpe00000bDdvt.2
REMARK                            x       y       z     vdW  Elec       q    Type
REMARK                         _______ _______ _______ _____ _____    ______ ____
ROOT
ATOM      1  N   LIG    1       -6.090   7.409   2.331  0.00  0.00    -0.490 NA
ATOM      2  C   LIG    1       -6.822   6.832   1.173  0.00  0.00    +0.170 C 
ATOM      3  C   LIG    1       -5.968   7.270  -0.046  0.00  0.00    +0.060 C 
ATOM      4  C   LIG    1       -4.536   7.181   0.498  0.00  0.00    -0.110 C 
ATOM      5  C   LIG    1       -3.513   8.104  -0.149  0.00  0.00    +0.310 C 
ATOM      6  N   LIG    1       -2.540   7.004  -0.039  0.00  0.00    -0.640 N 
ATOM      7  C   LIG    1       -1.199   6.904   0.049  0.00  0.00    +0.610 C 
ATOM      8  O   LIG    1       -0.519   7.907   0.151  0.00  0.00    -0.540 OA
ATOM      9  C   LIG    1       -3.671   6.062  -0.076  0.00  0.00    +0.290 C 
ATOM     10  C   LIG    1       -4.650   7.248   2.022  0.00  0.00    +0.210 C 
ENDROOT
BRANCH   7  11
ATOM     11  C   LIG    1       -0.555   5.576   0.024  0.00  0.00    -0.240 A 
ATOM     12  C   LIG    1        0.807   5.468   0.252  0.00  0.00    +0.400 A 
ATOM     13  N   LIG    1        1.438   4.288   0.239  0.00  0.00    -0.490 N 
ATOM     14  H   LIG    1        2.393   4.253   0.403  0.00  0.00    +0.430 HD
ATOM     15  C   LIG    1        0.748   3.126  -0.004  0.00  0.00    +0.240 A 
ATOM     16  N   LIG    1        1.082   1.851  -0.079  0.00  0.00    -0.530 NA
ATOM     17  C   LIG    1        0.016   1.095  -0.345  0.00  0.00    +0.220 A 
ATOM     18  C   LIG    1       -1.101   1.858  -0.467  0.00  0.00    -0.080 A 
ATOM     19  C   LIG    1       -0.698   3.195  -0.250  0.00  0.00    -0.170 A 
ATOM     20  C   LIG    1       -1.329   4.431  -0.232  0.00  0.00    +0.190 A 
ENDBRANCH   7  11
BRANCH   1  21
ATOM     21  C   LIG    1       -6.442   6.713   3.576  0.00  0.00    +0.130 C 
ATOM     22  C   LIG    1       -5.624   7.291   4.732  0.00  0.00    +0.070 C 
BRANCH  21  26
ATOM     23  C   LIG    1       -9.890   6.523   5.229  0.00  0.00    +0.290 C 
ATOM     24  N   LIG    1       -8.462   6.343   4.955  0.00  0.00    -0.740 N 
ATOM     25  H   LIG    1       -7.913   5.825   5.564  0.00  0.00    +0.400 HD
ATOM     26  C   LIG    1       -7.911   6.898   3.857  0.00  0.00    +0.520 C 
ATOM     27  O   LIG    1       -8.597   7.546   3.096  0.00  0.00    -0.520 OA
ENDBRANCH  21  26
ENDBRANCH   1  21
TORSDOF 3
