REMARK  Name = ZINCpe00000bDdvt.1
REMARK                            x       y       z     vdW  Elec       q    Type
REMARK                         _______ _______ _______ _____ _____    ______ ____
ROOT
ATOM      1  N   LIG    1       -2.116   1.170   1.601  0.00  0.00    -0.510 NA
ATOM      2  C   LIG    1       -2.784   1.337   0.296  0.00  0.00    +0.190 C 
ATOM      3  C   LIG    1       -3.248  -0.063  -0.167  0.00  0.00    +0.030 C 
ATOM      4  C   LIG    1       -3.283  -0.862   1.145  0.00  0.00    -0.110 C 
ATOM      5  C   LIG    1       -3.314  -2.379   1.014  0.00  0.00    +0.300 C 
ATOM      6  N   LIG    1       -4.251  -2.345   2.158  0.00  0.00    -0.640 N 
ATOM      7  C   LIG    1       -4.613  -3.232   3.106  0.00  0.00    +0.590 C 
ATOM      8  O   LIG    1       -5.474  -2.941   3.913  0.00  0.00    -0.530 OA
ATOM      9  C   LIG    1       -4.632  -0.950   1.847  0.00  0.00    +0.310 C 
ATOM     10  C   LIG    1       -2.125  -0.268   1.958  0.00  0.00    +0.230 C 
ENDROOT
BRANCH   7  11
ATOM     11  C   LIG    1       -3.963  -4.557   3.164  0.00  0.00    -0.210 A 
ATOM     12  C   LIG    1       -4.215  -5.424   4.234  0.00  0.00    +0.380 A 
ATOM     13  N   LIG    1       -3.647  -6.606   4.304  0.00  0.00    -0.500 NA
ATOM     14  C   LIG    1       -2.809  -7.038   3.369  0.00  0.00    +0.300 A 
ATOM     15  N   LIG    1       -2.102  -8.204   3.213  0.00  0.00    -0.580 N 
ATOM     16  H   LIG    1       -2.120  -8.951   3.831  0.00  0.00    +0.420 HD
ATOM     17  C   LIG    1       -1.369  -8.159   2.057  0.00  0.00    +0.240 A 
ATOM     18  C   LIG    1       -1.568  -6.987   1.434  0.00  0.00    -0.030 A 
ATOM     19  C   LIG    1       -2.506  -6.222   2.259  0.00  0.00    -0.170 A 
ATOM     20  C   LIG    1       -3.094  -4.965   2.149  0.00  0.00    +0.150 A 
ENDBRANCH   7  11
BRANCH   1  21
ATOM     21  C   LIG    1       -0.745   1.694   1.561  0.00  0.00    +0.130 C 
ATOM     22  C   LIG    1       -0.770   3.155   1.108  0.00  0.00    +0.060 C 
BRANCH  21  26
ATOM     23  C   LIG    1        1.724   1.945   4.477  0.00  0.00    +0.290 C 
ATOM     24  N   LIG    1        1.129   2.032   3.140  0.00  0.00    -0.740 N 
ATOM     25  H   LIG    1        1.643   2.396   2.403  0.00  0.00    +0.400 HD
ATOM     26  C   LIG    1       -0.133   1.605   2.936  0.00  0.00    +0.510 C 
ATOM     27  O   LIG    1       -0.776   1.150   3.857  0.00  0.00    -0.520 OA
ENDBRANCH  21  26
ENDBRANCH   1  21
TORSDOF 3
