REMARK  Name = ZINCpe00000MJIdp.0
REMARK                            x       y       z     vdW  Elec       q    Type
REMARK                         _______ _______ _______ _____ _____    ______ ____
ROOT
ATOM      1  C   LIG    1       -0.911   1.012   3.543  0.00  0.00    +0.120 C 
ATOM      2  C   LIG    1       -1.990   0.209   2.771  0.00  0.00    -0.010 C 
ATOM      3  C   LIG    1       -2.001   0.885   1.383  0.00  0.00    +0.200 C 
ATOM      4  N   LIG    1       -0.700   1.560   1.217  0.00  0.00    -0.510 NA
ATOM      5  C   LIG    1        0.117   1.311   2.423  0.00  0.00    +0.240 C 
ENDROOT
BRANCH   1   6
ATOM      6  O   LIG    1       -1.455   2.221   4.074  0.00  0.00    -0.530 OA
ATOM      7  H   LIG    1       -2.171   2.085   4.709  0.00  0.00    +0.390 HD
ENDBRANCH   1   6
BRANCH   4   8
ATOM      8  C   LIG    1       -0.013   1.086   0.008  0.00  0.00    +0.350 C 
BRANCH   8   9
ATOM      9  C   LIG    1       -0.742   1.585  -1.213  0.00  0.00    +0.180 A 
ATOM     10  N   LIG    1       -0.526   2.714  -1.843  0.00  0.00    -0.460 NA
ATOM     11  C   LIG    1       -1.403   2.732  -2.863  0.00  0.00    +0.180 A 
ATOM     12  N   LIG    1       -2.099   1.637  -2.797  0.00  0.00    -0.380 NA
ATOM     13  O   LIG    1       -1.735   0.964  -1.856  0.00  0.00    +0.080 OA
BRANCH  11  14
ATOM     14  C   LIG    1       -1.554   3.825  -3.890  0.00  0.00    +0.220 C 
BRANCH  14  15
ATOM     15  C   LIG    1       -2.553   4.841  -3.399  0.00  0.00    -0.090 A 
ATOM     16  C   LIG    1       -3.894   4.695  -3.703  0.00  0.00    +0.010 A 
ATOM     17  C   LIG    1       -4.811   5.624  -3.248  0.00  0.00    +0.000 A 
ATOM     18  C   LIG    1       -4.386   6.705  -2.499  0.00  0.00    +0.000 A 
ATOM     19  C   LIG    1       -3.044   6.854  -2.200  0.00  0.00    +0.000 A 
ATOM     20  C   LIG    1       -2.128   5.922  -2.650  0.00  0.00    +0.030 A 
ENDBRANCH  14  15
ENDBRANCH  11  14
ENDBRANCH   8   9
ENDBRANCH   4   8
BRANCH   1  21
ATOM     21  C   LIG    1       -0.284   0.163   4.651  0.00  0.00    +0.330 C 
BRANCH  21  22
ATOM     22  N   LIG    1       -1.336  -0.324   5.547  0.00  0.00    -0.290 N 
ATOM     23  C   LIG    1       -1.570  -1.618   5.866  0.00  0.00    +0.140 A 
ATOM     24  C   LIG    1       -2.623  -1.612   6.716  0.00  0.00    +0.140 A 
ATOM     25  N   LIG    1       -2.982  -0.332   6.868  0.00  0.00    -0.260 NA
ATOM     26  N   LIG    1       -2.200   0.406   6.162  0.00  0.00    -0.090 NA
ENDBRANCH  21  22
ENDBRANCH   1  21
TORSDOF 7
