REMARK  Name = ZINCrH000004rvhG.0
REMARK                            x       y       z     vdW  Elec       q    Type
REMARK                         _______ _______ _______ _____ _____    ______ ____
ROOT
ATOM      1  N   LIG    1        2.213   6.604   2.496  0.00  0.00    -1.000 NA
ATOM      2  C   LIG    1        0.924   6.835   3.163  0.00  0.00    +0.310 C 
ATOM      3  C   LIG    1        0.359   5.477   3.611  0.00  0.00    +0.270 C 
ATOM      4  N   LIG    1        1.410   4.748   4.335  0.00  0.00    -0.600 N 
ATOM      5  C   LIG    1        2.701   4.522   3.670  0.00  0.00    +0.290 C 
ATOM      6  C   LIG    1        1.194   4.295   5.585  0.00  0.00    +0.570 C 
ATOM      7  O   LIG    1        2.045   3.636   6.149  0.00  0.00    -0.520 OA
ATOM      8  C   LIG    1        3.264   5.875   3.220  0.00  0.00    +0.310 C 
ENDROOT
BRANCH   6   9
ATOM      9  C   LIG    1       -0.080   4.600   6.272  0.00  0.00    -0.100 A 
ATOM     10  C   LIG    1       -1.296   4.389   5.620  0.00  0.00    +0.070 A 
ATOM     11  C   LIG    1       -2.482   4.669   6.269  0.00  0.00    -0.030 A 
ATOM     12  C   LIG    1       -2.466   5.171   7.559  0.00  0.00    +0.070 A 
ATOM     13  C   LIG    1       -1.263   5.388   8.209  0.00  0.00    -0.030 A 
ATOM     14 CL   LIG    1       -1.254   6.016   9.828  0.00  0.00    -0.040 Cl
ATOM     15 CL   LIG    1       -3.995   4.400   5.463  0.00  0.00    -0.040 Cl
ATOM     16  C   LIG    1       -0.071   5.105   7.573  0.00  0.00    +0.090 A 
ENDBRANCH   6   9
BRANCH   1  17
ATOM     17  S   LIG    1        2.479   7.161   0.960  0.00  0.00    +2.690 S 
ATOM     18  O   LIG    1        1.573   8.238   0.760  0.00  0.00    -0.950 OA
ATOM     19  O   LIG    1        3.887   7.294   0.819  0.00  0.00    -0.950 OA
BRANCH  17  24
ATOM     20  C   LIG    1        0.793   2.789  -2.841  0.00  0.00    +0.100 C 
ATOM     21  C   LIG    1        1.214   3.881  -1.892  0.00  0.00    -0.030 A 
ATOM     22  C   LIG    1        0.299   4.833  -1.485  0.00  0.00    -0.010 A 
ATOM     23  C   LIG    1        0.685   5.835  -0.614  0.00  0.00    +0.120 A 
ATOM     24  C   LIG    1        1.987   5.884  -0.150  0.00  0.00    -0.680 A 
ATOM     25  C   LIG    1        2.902   4.932  -0.558  0.00  0.00    +0.120 A 
ATOM     26  C   LIG    1        2.516   3.930  -1.429  0.00  0.00    -0.110 A 
ATOM     27  C   LIG    1        3.514   2.892  -1.872  0.00  0.00    +0.100 C 
ENDBRANCH  17  24
ENDBRANCH   1  17
TORSDOF 3
