REMARK  Name = ZINCkj00000kKe5D.0
REMARK                            x       y       z     vdW  Elec       q    Type
REMARK                         _______ _______ _______ _____ _____    ______ ____
ROOT
ATOM      1  C   LIG    1        1.318   6.877   1.299  0.00  0.00    +0.150 C 
ATOM      2  C   LIG    1        0.106   7.792   1.110  0.00  0.00    +0.040 C 
ATOM      3  C   LIG    1       -1.173   6.952   1.105  0.00  0.00    +0.050 C 
ATOM      4  C   LIG    1       -1.125   5.964  -0.071  0.00  0.00    +0.290 C 
ATOM      5  N   LIG    1        0.112   5.178   0.029  0.00  0.00    -0.580 N 
ATOM      6  C   LIG    1        1.394   5.888   0.132  0.00  0.00    +0.310 C 
ENDROOT
BRANCH   5   7
ATOM      7  C   LIG    1        0.071   3.790   0.022  0.00  0.00    +0.330 A 
ATOM      8  N   LIG    1        1.161   3.089   0.249  0.00  0.00    -0.490 NA
ATOM      9  C   LIG    1        1.128   1.757   0.244  0.00  0.00    +0.180 A 
ATOM     10  C   LIG    1       -0.013   1.076   0.007  0.00  0.00    +0.200 A 
ATOM     11  N   LIG    1       -1.181   1.733  -0.242  0.00  0.00    -0.480 N 
ATOM     12  C   LIG    1       -2.412   0.984  -0.505  0.00  0.00    +0.340 C 
ATOM     13  C   LIG    1       -1.189   3.085  -0.240  0.00  0.00    +0.480 A 
ATOM     14  O   LIG    1       -2.218   3.703  -0.455  0.00  0.00    -0.520 OA
ENDBRANCH   5   7
BRANCH   1  15
ATOM     15  N   LIG    1        2.543   7.687   1.336  0.00  0.00    -0.500 N 
ATOM     16  H   LIG    1        2.593   8.259   0.506  0.00  0.00    +0.420 HD
ATOM     17  H   LIG    1        3.347   7.079   1.375  0.00  0.00    +0.430 HD
BRANCH  15  18
ATOM     18  C   LIG    1        2.523   8.551   2.525  0.00  0.00    +0.250 C 
BRANCH  18  19
ATOM     19  C   LIG    1        3.799   9.395   2.563  0.00  0.00    -0.020 C 
ATOM     20  C   LIG    1        3.814  10.350   1.368  0.00  0.00    +0.040 C 
BRANCH  19  22
ATOM     21  C   LIG    1        5.169  10.949   3.959  0.00  0.00    +0.030 C 
ATOM     22  C   LIG    1        3.837  10.202   3.862  0.00  0.00    +0.020 C 
ENDBRANCH  19  22
ENDBRANCH  18  19
ENDBRANCH  15  18
ENDBRANCH   1  15
TORSDOF 5
