REMARK  Name = ZINCnE000001ORaj.0
REMARK                            x       y       z     vdW  Elec       q    Type
REMARK                         _______ _______ _______ _____ _____    ______ ____
ROOT
ATOM      1  S   LIG    1        4.073   2.039  -0.450  0.00  0.00    +2.690 S 
ATOM      2  O   LIG    1        5.158   1.409   0.218  0.00  0.00    -0.960 OA
ATOM      3  O   LIG    1        3.723   3.402  -0.249  0.00  0.00    -0.950 OA
ENDROOT
BRANCH   1   8
ATOM      4  C   LIG    1       -0.848  -1.195   0.864  0.00  0.00    +0.100 C 
ATOM      5  C   LIG    1        0.381  -0.387   0.536  0.00  0.00    -0.020 A 
ATOM      6  C   LIG    1        0.326   0.994   0.555  0.00  0.00    -0.030 A 
ATOM      7  C   LIG    1        1.454   1.735   0.255  0.00  0.00    +0.040 A 
ATOM      8  C   LIG    1        2.636   1.095  -0.066  0.00  0.00    -0.690 A 
ATOM      9  C   LIG    1        2.692  -0.286  -0.083  0.00  0.00    +0.040 A 
ATOM     10  C   LIG    1        3.982  -0.984  -0.430  0.00  0.00    +0.100 C 
ATOM     11  C   LIG    1        1.393   3.241   0.274  0.00  0.00    +0.110 C 
ATOM     12  C   LIG    1        1.564  -1.027   0.218  0.00  0.00    -0.030 A 
ENDBRANCH   1   8
BRANCH   1  13
ATOM     13  N   LIG    1        4.357   1.863  -2.071  0.00  0.00    -1.050 N 
ATOM     14  H   LIG    1        5.150   1.396  -2.377  0.00  0.00    +0.420 HD
BRANCH  13  15
ATOM     15  C   LIG    1        3.454   2.387  -3.000  0.00  0.00    +0.100 A 
ATOM     16  C   LIG    1        2.989   3.690  -2.858  0.00  0.00    +0.000 A 
ATOM     17  C   LIG    1        2.095   4.214  -3.773  0.00  0.00    +0.000 A 
ATOM     18  C   LIG    1        1.658   3.448  -4.834  0.00  0.00    -0.050 A 
ATOM     19  C   LIG    1        2.119   2.137  -4.986  0.00  0.00    -0.130 A 
ATOM     20  C   LIG    1        0.684   4.025  -5.829  0.00  0.00    +0.090 C 
ATOM     21  C   LIG    1        3.026   1.610  -4.065  0.00  0.00    +0.050 A 
BRANCH  19  22
ATOM     22  C   LIG    1        1.653   1.315  -6.120  0.00  0.00    +0.520 C 
ATOM     23  O   LIG    1        0.953   1.814  -6.990  0.00  0.00    -0.680 OA
ATOM     24  O   LIG    1        1.967   0.136  -6.190  0.00  0.00    -0.690 OA
ENDBRANCH  19  22
ENDBRANCH  13  15
ENDBRANCH   1  13
TORSDOF 4
