REMARK  Name = ZINCqH0000004owX.0
REMARK                            x       y       z     vdW  Elec       q    Type
REMARK                         _______ _______ _______ _____ _____    ______ ____
ROOT
ATOM      1  N   LIG    1        0.399   8.147  -1.263  0.00  0.00    -0.730 N 
ATOM      2  H   LIG    1        0.844   7.785  -2.045  0.00  0.00    +0.400 HD
ATOM      3  C   LIG    1       -0.027   7.321  -0.287  0.00  0.00    +0.710 C 
ATOM      4  N   LIG    1        0.166   5.992  -0.398  0.00  0.00    -0.690 N 
ATOM      5  H   LIG    1        0.678   5.636  -1.141  0.00  0.00    +0.410 HD
ATOM      6  O   LIG    1       -0.585   7.774   0.693  0.00  0.00    -0.570 OA
ENDROOT
BRANCH   4   7
ATOM      7  C   LIG    1       -0.374   5.123   0.560  0.00  0.00    +0.170 A 
ATOM      8  C   LIG    1       -1.583   5.427   1.169  0.00  0.00    +0.050 A 
ATOM      9  C   LIG    1       -2.117   4.571   2.114  0.00  0.00    -0.020 A 
ATOM     10  C   LIG    1       -1.446   3.408   2.455  0.00  0.00    +0.100 A 
ATOM     11  C   LIG    1       -0.233   3.101   1.847  0.00  0.00    +0.100 A 
ATOM     12  C   LIG    1        0.304   3.961   0.904  0.00  0.00    -0.040 A 
BRANCH  10  13
ATOM     13  O   LIG    1       -1.973   2.566   3.386  0.00  0.00    -0.310 OA
ATOM     14  C   LIG    1       -3.221   2.945   3.970  0.00  0.00    +0.250 C 
ENDBRANCH  10  13
BRANCH  11  15
ATOM     15  O   LIG    1        0.427   1.960   2.181  0.00  0.00    -0.310 OA
BRANCH  15  16
ATOM     16  C   LIG    1        1.666   1.708   1.516  0.00  0.00    +0.590 C 
ATOM     17  F   LIG    1        1.447   1.625   0.137  0.00  0.00    -0.200 F 
ATOM     18  F   LIG    1        2.559   2.751   1.784  0.00  0.00    -0.200 F 
ENDBRANCH  15  16
ENDBRANCH  11  15
ENDBRANCH   4   7
BRANCH   1  19
ATOM     19  C   LIG    1        0.189   9.592  -1.142  0.00  0.00    +0.340 C 
BRANCH  19  20
ATOM     20  C   LIG    1        0.163  10.212  -2.515  0.00  0.00    -0.250 A 
ATOM     21  C   LIG    1       -0.668  11.197  -2.929  0.00  0.00    +0.250 A 
ATOM     22  N   LIG    1       -0.373  11.470  -4.217  0.00  0.00    -0.370 N 
ATOM     23  N   LIG    1        0.674  10.626  -4.608  0.00  0.00    -0.290 NA
ATOM     24  C   LIG    1        0.999   9.877  -3.586  0.00  0.00    +0.230 A 
BRANCH  22  25
ATOM     25  C   LIG    1       -1.032  12.472  -5.058  0.00  0.00    +0.320 C 
ATOM     26  C   LIG    1        0.017  13.427  -5.631  0.00  0.00    +0.040 C 
ENDBRANCH  22  25
ENDBRANCH  19  20
BRANCH  19  28
ATOM     27  C   LIG    1        1.278   9.669   1.105  0.00  0.00    +0.020 C 
ATOM     28  C   LIG    1        1.329  10.206  -0.326  0.00  0.00    +0.000 C 
ENDBRANCH  19  28
ENDBRANCH   1  19
TORSDOF 8
