REMARK  Name = ZINCrD00000hQ5lC.0
REMARK                            x       y       z     vdW  Elec       q    Type
REMARK                         _______ _______ _______ _____ _____    ______ ____
ROOT
ATOM      1  N   LIG    1        0.435  -5.604   2.370  0.00  0.00    -0.460 N 
ATOM      2  C   LIG    1       -0.957  -6.038   2.254  0.00  0.00    +0.200 C 
ATOM      3  C   LIG    1       -1.834  -5.087   1.544  0.00  0.00    +0.030 C 
ATOM      4  C   LIG    1       -1.343  -4.912   0.085  0.00  0.00    +0.260 C 
ATOM      5  N   LIG    1       -0.084  -4.199   0.080  0.00  0.00    -0.590 N 
ATOM      6  C   LIG    1        1.225  -4.880   0.168  0.00  0.00    +0.300 C 
ATOM      7  C   LIG    1       -0.105  -2.855  -0.013  0.00  0.00    +0.580 C 
ATOM      8  O   LIG    1        0.922  -2.219   0.127  0.00  0.00    -0.510 OA
ATOM      9  C   LIG    1        1.197  -6.018   1.211  0.00  0.00    +0.200 C 
ENDROOT
BRANCH   7  10
ATOM     10  C   LIG    1       -1.374  -2.155  -0.286  0.00  0.00    -0.080 A 
ATOM     11  C   LIG    1       -2.434  -2.255   0.604  0.00  0.00    +0.090 A 
ATOM     12  C   LIG    1       -3.634  -1.598   0.355  0.00  0.00    -0.040 A 
ATOM     13  C   LIG    1       -3.801  -0.840  -0.767  0.00  0.00    +0.090 A 
ATOM     14  C   LIG    1       -2.753  -0.713  -1.694  0.00  0.00    -0.100 A 
ATOM     15  C   LIG    1       -2.900   0.063  -2.859  0.00  0.00    +0.100 A 
ATOM     16  C   LIG    1       -1.839   0.143  -3.717  0.00  0.00    -0.030 A 
ATOM     17  C   LIG    1       -0.657  -0.532  -3.426  0.00  0.00    +0.310 A 
ATOM     18  N   LIG    1       -0.527  -1.254  -2.337  0.00  0.00    -0.460 NA
ATOM     19 CL   LIG    1       -4.939  -1.744   1.490  0.00  0.00    -0.050 Cl
ATOM     20  C   LIG    1       -1.523  -1.373  -1.460  0.00  0.00    +0.160 A 
ENDBRANCH   7  10
BRANCH   1  25
ATOM     21  C   LIG    1        2.565  -7.620   7.125  0.00  0.00    +0.140 C 
ATOM     22  C   LIG    1        2.039  -7.053   5.832  0.00  0.00    +0.040 A 
ATOM     23  C   LIG    1        2.864  -6.283   5.025  0.00  0.00    +0.060 A 
ATOM     24  C   LIG    1        2.338  -5.782   3.845  0.00  0.00    +0.020 A 
ATOM     25  C   LIG    1        1.010  -6.083   3.542  0.00  0.00    +0.250 A 
ATOM     26  N   LIG    1        0.298  -6.823   4.379  0.00  0.00    -0.280 NA
ATOM     27  N   LIG    1        0.794  -7.288   5.468  0.00  0.00    -0.220 NA
ENDBRANCH   1  25
TORSDOF 2
