REMARK  Name = ZINCrH000004v394.0
REMARK                            x       y       z     vdW  Elec       q    Type
REMARK                         _______ _______ _______ _____ _____    ______ ____
ROOT
ATOM      1  O   LIG    1        1.670   8.030  -1.077  0.00  0.00    -0.510 OA
ATOM      2  C   LIG    1        2.764   8.255  -0.603  0.00  0.00    +0.520 C 
ATOM      3  N   LIG    1        3.429   7.282   0.050  0.00  0.00    -0.670 N 
ATOM      4  H   LIG    1        4.274   7.478   0.483  0.00  0.00    +0.420 HD
ENDROOT
BRANCH   2   5
ATOM      5  C   LIG    1        3.378   9.624  -0.743  0.00  0.00    -0.010 C 
ATOM      6  C   LIG    1        2.423  10.536  -1.517  0.00  0.00    +0.060 C 
ATOM      7  C   LIG    1        3.060  11.917  -1.688  0.00  0.00    +0.030 C 
ATOM      8  C   LIG    1        3.309  12.535  -0.309  0.00  0.00    +0.260 C 
ATOM      9  N   LIG    1        4.107  11.598   0.493  0.00  0.00    -0.610 N 
ATOM     10  C   LIG    1        5.255  11.997   1.075  0.00  0.00    +0.600 C 
ATOM     11  O   LIG    1        6.008  11.175   1.562  0.00  0.00    -0.520 OA
ATOM     12  C   LIG    1        3.631  10.216   0.647  0.00  0.00    +0.300 C 
BRANCH  10  13
ATOM     13  C   LIG    1        5.596  13.422   1.123  0.00  0.00    -0.280 A 
ATOM     14  C   LIG    1        6.849  13.931   1.317  0.00  0.00    +0.100 A 
ATOM     15  C   LIG    1        6.883  15.305   1.315  0.00  0.00    +0.000 A 
ATOM     16  C   LIG    1        5.701  15.903   1.127  0.00  0.00    -0.070 A 
ATOM     17  S   LIG    1        4.459  14.749   0.931  0.00  0.00    +0.220 S 
ENDBRANCH  10  13
ENDBRANCH   2   5
BRANCH   3  18
ATOM     18  C   LIG    1        2.901   5.987   0.102  0.00  0.00    +0.160 A 
ATOM     19  C   LIG    1        3.734   4.908   0.368  0.00  0.00    -0.020 A 
ATOM     20  C   LIG    1        3.216   3.631   0.420  0.00  0.00    +0.080 A 
ATOM     21  C   LIG    1        1.855   3.424   0.204  0.00  0.00    -0.040 A 
ATOM     22  C   LIG    1        1.021   4.507  -0.069  0.00  0.00    +0.060 A 
ATOM     23  C   LIG    1        1.543   5.783  -0.113  0.00  0.00    +0.030 A 
BRANCH  21  24
ATOM     24  C   LIG    1        1.294   2.050   0.259  0.00  0.00    +0.080 A 
ATOM     25  C   LIG    1       -0.024   1.756   0.060  0.00  0.00    -0.100 A 
ATOM     26  S   LIG    1       -0.104   0.046   0.235  0.00  0.00    +0.440 S 
ATOM     27  N   LIG    1        1.420  -0.161   0.525  0.00  0.00    -0.280 NA
ATOM     28  N   LIG    1        2.015   0.966   0.505  0.00  0.00    -0.230 NA
ENDBRANCH  21  24
ENDBRANCH   3  18
TORSDOF 4
