REMARK  Name = ZINCrH00000No4OP.0
REMARK                            x       y       z     vdW  Elec       q    Type
REMARK                         _______ _______ _______ _____ _____    ______ ____
ROOT
ATOM      1  O   LIG    1        0.253  -2.660  -0.134  0.00  0.00    -0.430 OA
ATOM      2  C   LIG    1        1.280  -2.018  -0.029  0.00  0.00    +0.590 C 
ATOM      3  N   LIG    1        1.233  -0.671  -0.019  0.00  0.00    -0.450 N 
ATOM      4  C   LIG    1        2.395   0.053  -0.026  0.00  0.00    +0.300 A 
ATOM      5  C   LIG    1        2.367   1.400  -0.017  0.00  0.00    -0.060 A 
ATOM      6  C   LIG    1        1.140   2.089   0.002  0.00  0.00    +0.090 A 
ATOM      7  C   LIG    1       -0.025   1.391   0.009  0.00  0.00    -0.060 A 
ATOM      8  C   LIG    1        0.014  -0.024  -0.001  0.00  0.00    +0.370 A 
ATOM      9  N   LIG    1       -1.103  -0.717   0.005  0.00  0.00    -0.530 NA
ENDROOT
BRANCH   9  10
ATOM     10  C   LIG    1       -2.390  -0.031   0.140  0.00  0.00    +0.130 C 
ATOM     11  C   LIG    1       -3.050  -0.440   1.459  0.00  0.00    +0.030 C 
ATOM     12  C   LIG    1       -4.394   0.277   1.601  0.00  0.00    +0.000 C 
ATOM     13  C   LIG    1       -5.304  -0.110   0.433  0.00  0.00    +0.000 C 
ATOM     14  C   LIG    1       -4.645   0.299  -0.885  0.00  0.00    +0.000 C 
ATOM     15  C   LIG    1       -3.300  -0.418  -1.027  0.00  0.00    +0.030 C 
ENDBRANCH   9  10
BRANCH   2  16
ATOM     16  C   LIG    1        2.575  -2.711   0.086  0.00  0.00    -0.100 A 
ATOM     17  C   LIG    1        2.751  -4.063   0.191  0.00  0.00    +0.320 A 
ATOM     18  N   LIG    1        4.082  -4.277   0.271  0.00  0.00    -0.310 N 
ATOM     19  N   LIG    1        4.699  -3.019   0.220  0.00  0.00    -0.020 NA
ATOM     20  N   LIG    1        3.783  -2.121   0.111  0.00  0.00    -0.210 NA
BRANCH  18  21
ATOM     21  C   LIG    1        4.724  -5.518   0.389  0.00  0.00    +0.140 A 
ATOM     22  C   LIG    1        4.196  -6.498   1.218  0.00  0.00    +0.050 A 
ATOM     23  C   LIG    1        4.830  -7.720   1.332  0.00  0.00    +0.070 A 
ATOM     24  C   LIG    1        5.990  -7.968   0.622  0.00  0.00    +0.050 A 
ATOM     25  C   LIG    1        6.519  -6.995  -0.206  0.00  0.00    +0.080 A 
ATOM     26  C   LIG    1        5.886  -5.772  -0.329  0.00  0.00    -0.080 A 
ATOM     27 BR   LIG    1        6.605  -4.444  -1.466  0.00  0.00    -0.010 Br
ENDBRANCH  18  21
ENDBRANCH   2  16
TORSDOF 3
