REMARK  Name = ZINCrD00000F5LwY.0
REMARK                            x       y       z     vdW  Elec       q    Type
REMARK                         _______ _______ _______ _____ _____    ______ ____
ROOT
ATOM      1  N   LIG    1       -1.916   2.378   1.539  0.00  0.00    -0.980 NA
ENDROOT
BRANCH   1   2
ATOM      2  S   LIG    1       -1.248   1.999   0.072  0.00  0.00    +2.710 S 
ATOM      3  O   LIG    1       -2.047   0.961  -0.477  0.00  0.00    -0.940 OA
ATOM      4  O   LIG    1       -1.012   3.233  -0.593  0.00  0.00    -0.940 OA
BRANCH   2   5
ATOM      5  C   LIG    1        0.336   1.294   0.387  0.00  0.00    -0.820 A 
ATOM      6  C   LIG    1        0.578  -0.018   0.472  0.00  0.00    +0.170 A 
ATOM      7  C   LIG    1        1.889  -0.355   0.720  0.00  0.00    +0.080 A 
ATOM      8  C   LIG    1        2.712   0.728   0.834  0.00  0.00    -0.120 A 
ATOM      9  S   LIG    1        1.767   2.195   0.616  0.00  0.00    +0.370 S 
BRANCH   8  10
ATOM     10  C   LIG    1        4.121   0.678   1.089  0.00  0.00    +0.270 C 
ATOM     11  N   LIG    1        5.238   0.638   1.292  0.00  0.00    -0.370 NA
ENDBRANCH   8  10
ENDBRANCH   2   5
ENDBRANCH   1   2
BRANCH   1  12
ATOM     12  C   LIG    1       -2.787   1.415   2.218  0.00  0.00    +0.330 C 
BRANCH  12  16
ATOM     13  C   LIG    1       -1.027  -1.565   3.189  0.00  0.00    +0.100 C 
ATOM     14  C   LIG    1       -1.766  -0.552   3.570  0.00  0.00    -0.210 C 
ATOM     15  C   LIG    1       -2.899  -0.011   4.408  0.00  0.00    +0.100 C 
ATOM     16  C   LIG    1       -2.100   0.915   3.490  0.00  0.00    -0.010 C 
ENDBRANCH  12  16
ENDBRANCH   1  12
BRANCH   1  17
ATOM     17  C   LIG    1       -1.637   3.676   2.158  0.00  0.00    +0.350 C 
BRANCH  17  18
ATOM     18  C   LIG    1       -2.737   4.646   1.810  0.00  0.00    -0.100 A 
ATOM     19  C   LIG    1       -2.627   5.413   0.692  0.00  0.00    +0.100 A 
ATOM     20  C   LIG    1       -3.653   6.315   0.361  0.00  0.00    +0.080 A 
ATOM     21  N   LIG    1       -3.575   7.079  -0.733  0.00  0.00    -0.420 NA
ATOM     22  C   LIG    1       -4.548   7.916  -1.013  0.00  0.00    +0.250 A 
ATOM     23  C   LIG    1       -5.663   8.018  -0.180  0.00  0.00    +0.260 A 
ATOM     24  N   LIG    1       -5.763   7.278   0.901  0.00  0.00    -0.430 NA
ATOM     25  C   LIG    1       -4.786   6.418   1.208  0.00  0.00    +0.080 A 
ATOM     26  C   LIG    1       -4.862   5.612   2.357  0.00  0.00    +0.050 A 
ATOM     27  C   LIG    1       -3.851   4.747   2.642  0.00  0.00    +0.060 A 
ENDBRANCH  17  18
ENDBRANCH   1  17
TORSDOF 7
