REMARK  Name = ZINCpe00000MJLKP.2
REMARK                            x       y       z     vdW  Elec       q    Type
REMARK                         _______ _______ _______ _____ _____    ______ ____
ROOT
ATOM      1  N   LIG    1       -3.357   3.260  -1.291  0.00  0.00    -0.530 NA
ATOM      2  C   LIG    1       -3.183   1.851  -1.668  0.00  0.00    +0.180 C 
ATOM      3  C   LIG    1       -2.421   1.119  -0.558  0.00  0.00    +0.300 C 
ATOM      4  N   LIG    1       -1.173   1.850  -0.288  0.00  0.00    -0.620 N 
ATOM      5  C   LIG    1       -1.255   3.296  -0.031  0.00  0.00    +0.280 C 
ATOM      6  C   LIG    1        0.013   1.211  -0.272  0.00  0.00    +0.520 C 
ATOM      7  O   LIG    1        0.062   0.017  -0.481  0.00  0.00    -0.510 OA
ATOM      8  C   LIG    1       -2.062   3.943  -1.167  0.00  0.00    +0.190 C 
ENDROOT
BRANCH   1   9
ATOM      9  C   LIG    1       -4.230   3.957  -2.245  0.00  0.00    +0.330 C 
BRANCH   9  10
ATOM     10  C   LIG    1       -4.385   5.396  -1.827  0.00  0.00    -0.100 A 
ATOM     11  C   LIG    1       -4.531   5.715  -0.490  0.00  0.00    +0.050 A 
ATOM     12  C   LIG    1       -4.668   7.036  -0.106  0.00  0.00    +0.010 A 
ATOM     13  C   LIG    1       -4.670   8.037  -1.060  0.00  0.00    +0.010 A 
ATOM     14  C   LIG    1       -4.529   7.717  -2.397  0.00  0.00    +0.010 A 
ATOM     15  C   LIG    1       -4.387   6.396  -2.781  0.00  0.00    +0.030 A 
ENDBRANCH   9  10
BRANCH   9  17
ATOM     16  N   LIG    1       -6.570   2.805  -2.283  0.00  0.00    -0.410 NA
ATOM     17  C   LIG    1       -5.551   3.307  -2.267  0.00  0.00    +0.210 C 
ENDBRANCH   9  17
ENDBRANCH   1   9
BRANCH   6  18
ATOM     18  C   LIG    1        1.280   1.980   0.001  0.00  0.00    +0.210 C 
BRANCH  18  19
ATOM     19  N   LIG    1        2.408   1.044   0.105  0.00  0.00    -0.520 NA
ATOM     20  C   LIG    1        3.688   1.763   0.119  0.00  0.00    +0.170 C 
ATOM     21  C   LIG    1        4.841   0.757   0.082  0.00  0.00    +0.040 C 
ATOM     22  C   LIG    1        4.741  -0.170   1.297  0.00  0.00    -0.020 C 
ATOM     23  C   LIG    1        3.379  -0.870   1.285  0.00  0.00    +0.180 C 
ATOM     24  C   LIG    1        2.270   0.183   1.287  0.00  0.00    +0.190 C 
BRANCH  23  25
ATOM     25  O   LIG    1        3.256  -1.695   2.445  0.00  0.00    -0.570 OA
ATOM     26  H   LIG    1        3.929  -2.387   2.509  0.00  0.00    +0.380 HD
ENDBRANCH  23  25
ENDBRANCH  18  19
ENDBRANCH   6  18
TORSDOF 6
