REMARK  Name = ZINCqH0000004f5w.0
REMARK                            x       y       z     vdW  Elec       q    Type
REMARK                         _______ _______ _______ _____ _____    ______ ____
ROOT
ATOM      1  C   LIG    1        1.270   2.006   0.004  0.00  0.00    -0.140 A 
ATOM      2  C   LIG    1        1.260   3.401  -0.002  0.00  0.00    +0.050 A 
ATOM      3  C   LIG    1        2.451   4.097  -0.011  0.00  0.00    +0.000 A 
ATOM      4  C   LIG    1        3.654   3.414  -0.025  0.00  0.00    +0.060 A 
ATOM      5  C   LIG    1        3.671   2.030  -0.025  0.00  0.00    -0.120 A 
ATOM      6  C   LIG    1        2.487   1.323  -0.010  0.00  0.00    +0.100 A 
ENDROOT
BRANCH   1   9
ATOM      7  N   LIG    1       -1.177   1.917   0.027  0.00  0.00    -0.720 N 
ATOM      8  H   LIG    1       -1.187   2.887   0.028  0.00  0.00    +0.400 HD
ATOM      9  C   LIG    1       -0.004   1.254   0.019  0.00  0.00    +0.560 C 
ATOM     10  O   LIG    1        0.008   0.039   0.019  0.00  0.00    -0.530 OA
BRANCH   7  11
ATOM     11  C   LIG    1       -2.439   1.172   0.036  0.00  0.00    +0.230 C 
ATOM     12  C   LIG    1       -2.804   0.804   1.476  0.00  0.00    +0.020 C 
BRANCH  11  14
ATOM     13  C   LIG    1       -3.243   2.302  -2.042  0.00  0.00    +0.020 C 
ATOM     14  C   LIG    1       -3.547   2.038  -0.566  0.00  0.00    +0.020 C 
ENDBRANCH  11  14
ENDBRANCH   7  11
ENDBRANCH   1   9
BRANCH   5  15
ATOM     15  C   LIG    1        4.986   1.294  -0.040  0.00  0.00    +0.340 C 
BRANCH  15  16
ATOM     16  N   LIG    1        5.396   1.055  -1.426  0.00  0.00    -0.740 N 
ATOM     17  H   LIG    1        4.837   1.362  -2.157  0.00  0.00    +0.400 HD
ATOM     18  C   LIG    1        6.549   0.408  -1.686  0.00  0.00    +0.710 C 
ATOM     19  N   LIG    1        6.926   0.187  -2.961  0.00  0.00    -0.590 N 
ATOM     20  C   LIG    1        6.029   0.546  -4.062  0.00  0.00    +0.290 C 
ATOM     21  O   LIG    1        7.250   0.023  -0.769  0.00  0.00    -0.570 OA
BRANCH  19  22
ATOM     22  C   LIG    1        8.175  -0.384  -3.233  0.00  0.00    +0.150 A 
ATOM     23  C   LIG    1        9.145   0.350  -3.902  0.00  0.00    +0.040 A 
ATOM     24  C   LIG    1       10.378  -0.214  -4.166  0.00  0.00    +0.000 A 
ATOM     25  C   LIG    1       10.644  -1.515  -3.772  0.00  0.00    +0.100 A 
ATOM     26  C   LIG    1        9.676  -2.251  -3.108  0.00  0.00    +0.000 A 
ATOM     27  F   LIG    1       11.848  -2.067  -4.035  0.00  0.00    -0.140 F 
ATOM     28  C   LIG    1        8.444  -1.688  -2.838  0.00  0.00    +0.060 A 
ENDBRANCH  19  22
ENDBRANCH  15  16
ENDBRANCH   5  15
TORSDOF 6
