REMARK  Name = ZINCvU00000008vZ.0
REMARK                            x       y       z     vdW  Elec       q    Type
REMARK                         _______ _______ _______ _____ _____    ______ ____
ROOT
ATOM      1  C   LIG    1       -2.722   4.894  -2.170  0.00  0.00    +0.370 A 
ATOM      2  N   LIG    1       -3.173   4.987  -3.396  0.00  0.00    -0.530 NA
ATOM      3  C   LIG    1       -4.074   4.104  -3.888  0.00  0.00    +0.160 A 
ATOM      4  C   LIG    1       -4.560   4.206  -5.194  0.00  0.00    +0.030 A 
ATOM      5  C   LIG    1       -5.475   3.288  -5.655  0.00  0.00    +0.070 A 
ATOM      6  C   LIG    1       -5.924   2.259  -4.837  0.00  0.00    +0.000 A 
ATOM      7  C   LIG    1       -5.461   2.136  -3.546  0.00  0.00    +0.100 A 
ATOM      8  C   LIG    1       -4.534   3.055  -3.058  0.00  0.00    -0.200 A 
ATOM      9  C   LIG    1       -4.006   2.972  -1.689  0.00  0.00    +0.550 A 
ATOM     10  O   LIG    1       -4.364   2.092  -0.928  0.00  0.00    -0.500 OA
ATOM     11  N   LIG    1       -3.109   3.909  -1.306  0.00  0.00    -0.530 N 
ENDROOT
BRANCH   1  12
ATOM     12  S   LIG    1       -1.556   6.091  -1.611  0.00  0.00    +0.020 S 
BRANCH  12  13
ATOM     13  C   LIG    1       -1.413   7.110  -3.100  0.00  0.00    +0.170 C 
BRANCH  13  17
ATOM     14  C   LIG    1        1.353  10.293  -2.390  0.00  0.00    -0.120 A 
ATOM     15  C   LIG    1        1.804   9.072  -2.898  0.00  0.00    +0.090 A 
ATOM     16  C   LIG    1        0.906   8.050  -3.124  0.00  0.00    +0.030 A 
ATOM     17  C   LIG    1       -0.438   8.231  -2.850  0.00  0.00    -0.050 A 
ATOM     18  C   LIG    1       -0.892   9.440  -2.352  0.00  0.00    +0.030 A 
ATOM     19  C   LIG    1       -0.004  10.469  -2.115  0.00  0.00    +0.080 A 
BRANCH  14  20
ATOM     20  C   LIG    1        2.308  11.393  -2.146  0.00  0.00    +0.510 C 
ATOM     21  O   LIG    1        3.489  11.237  -2.387  0.00  0.00    -0.500 OA
BRANCH  20  23
ATOM     22  C   LIG    1        2.865  13.604  -1.441  0.00  0.00    +0.290 C 
ATOM     23  O   LIG    1        1.871  12.569  -1.656  0.00  0.00    -0.350 OA
ENDBRANCH  20  23
ENDBRANCH  14  20
ENDBRANCH  13  17
ENDBRANCH  12  13
ENDBRANCH   1  12
BRANCH  11  24
ATOM     24  C   LIG    1       -2.552   3.871   0.049  0.00  0.00    +0.370 C 
BRANCH  24  25
ATOM     25  C   LIG    1       -1.243   3.125   0.033  0.00  0.00    -0.090 A 
ATOM     26  C   LIG    1       -0.815   2.504  -1.125  0.00  0.00    +0.020 A 
ATOM     27  C   LIG    1        0.386   1.820  -1.139  0.00  0.00    +0.020 A 
ATOM     28  C   LIG    1        1.159   1.756   0.004  0.00  0.00    +0.040 A 
ATOM     29  C   LIG    1        0.733   2.377   1.163  0.00  0.00    +0.040 A 
ATOM     30  C   LIG    1       -0.472   3.056   1.180  0.00  0.00    -0.020 A 
ATOM     31 CL   LIG    1       -1.012   3.830   2.638  0.00  0.00    -0.060 Cl
ENDBRANCH  24  25
ENDBRANCH  11  24
TORSDOF 7
