REMARK  Name = ZINCqH0000032vLl.0
REMARK                            x       y       z     vdW  Elec       q    Type
REMARK                         _______ _______ _______ _____ _____    ______ ____
ROOT
ATOM      1  N   LIG    1        2.846  -1.024   7.494  0.00  0.00    -0.680 N 
ATOM      2  H   LIG    1        2.187  -1.508   8.017  0.00  0.00    +0.410 HD
ATOM      3  C   LIG    1        4.123  -0.953   7.919  0.00  0.00    +0.710 C 
ATOM      4  N   LIG    1        4.505  -1.629   9.021  0.00  0.00    -0.720 N 
ATOM      5  H   LIG    1        3.862  -2.167   9.507  0.00  0.00    +0.400 HD
ATOM      6  O   LIG    1        4.929  -0.278   7.309  0.00  0.00    -0.570 OA
ENDROOT
BRANCH   1  12
ATOM      7  C   LIG    1        2.119   2.645   2.636  0.00  0.00    +0.130 A 
ATOM      8  N   LIG    1        1.464   1.558   2.803  0.00  0.00    -0.460 NA
ATOM      9  C   LIG    1        1.712   0.830   3.910  0.00  0.00    +0.060 A 
ATOM     10  C   LIG    1        1.131  -0.391   4.314  0.00  0.00    +0.100 A 
ATOM     11  C   LIG    1        1.505  -0.985   5.479  0.00  0.00    +0.010 A 
ATOM     12  C   LIG    1        2.470  -0.401   6.298  0.00  0.00    +0.180 A 
ATOM     13  C   LIG    1        3.055   0.795   5.926  0.00  0.00    +0.070 A 
ATOM     14  C   LIG    1        2.680   1.413   4.734  0.00  0.00    -0.150 A 
ATOM     15  S   LIG    1        3.219   2.911   3.982  0.00  0.00    +0.050 S 
BRANCH   7  17
ATOM     16  C   LIG    1        0.520   4.068   1.385  0.00  0.00    +0.060 C 
ATOM     17  C   LIG    1        1.965   3.570   1.456  0.00  0.00    +0.070 C 
ATOM     18  C   LIG    1        2.309   2.816   0.170  0.00  0.00    +0.060 C 
ENDBRANCH   7  17
ENDBRANCH   1  12
BRANCH   4  19
ATOM     19  C   LIG    1        5.893  -1.551   9.482  0.00  0.00    +0.320 C 
BRANCH  19  20
ATOM     20  C   LIG    1        5.947  -1.835  10.961  0.00  0.00    -0.100 A 
ATOM     21  C   LIG    1        5.149  -2.825  11.505  0.00  0.00    +0.010 A 
ATOM     22  C   LIG    1        5.201  -3.088  12.861  0.00  0.00    +0.020 A 
ATOM     23  C   LIG    1        6.046  -2.357  13.675  0.00  0.00    +0.020 A 
ATOM     24  C   LIG    1        6.840  -1.364  13.132  0.00  0.00    +0.020 A 
ATOM     25  C   LIG    1        6.791  -1.103  11.776  0.00  0.00    +0.030 A 
ENDBRANCH  19  20
BRANCH  19  26
ATOM     26  C   LIG    1        6.726  -2.568   8.745  0.00  0.00    +0.510 C 
ATOM     27  O   LIG    1        6.211  -3.286   7.915  0.00  0.00    -0.530 OA
ATOM     28  N   LIG    1        8.043  -2.678   9.007  0.00  0.00    -0.850 N 
ATOM     29  H   LIG    1        8.579  -3.332   8.533  0.00  0.00    +0.410 HD
ATOM     30  H   LIG    1        8.456  -2.103   9.671  0.00  0.00    +0.400 HD
ENDBRANCH  19  26
ENDBRANCH   4  19
TORSDOF 5
