REMARK  Name = ZINCqH0000038Ifx.0
REMARK                            x       y       z     vdW  Elec       q    Type
REMARK                         _______ _______ _______ _____ _____    ______ ____
ROOT
ATOM      1  N   LIG    1        7.626   0.944  -0.065  0.00  0.00    -0.670 N 
ATOM      2  H   LIG    1        8.100   1.046  -0.905  0.00  0.00    +0.410 HD
ATOM      3  C   LIG    1        8.314   0.862   1.092  0.00  0.00    +0.590 C 
ATOM      4  O   LIG    1        7.726   0.650   2.135  0.00  0.00    -0.500 OA
ENDROOT
BRANCH   1   8
ATOM      5  C   LIG    1        3.462   0.756  -0.029  0.00  0.00    +0.100 A 
ATOM      6  C   LIG    1        4.198   0.010   0.881  0.00  0.00    +0.040 A 
ATOM      7  C   LIG    1        5.577   0.068   0.866  0.00  0.00    +0.050 A 
ATOM      8  C   LIG    1        6.228   0.881  -0.053  0.00  0.00    +0.160 A 
ATOM      9  C   LIG    1        5.491   1.631  -0.960  0.00  0.00    +0.010 A 
ATOM     10  C   LIG    1        4.112   1.569  -0.948  0.00  0.00    +0.050 A 
BRANCH   5  14
ATOM     11  C   LIG    1       -1.196  -0.955  -0.004  0.00  0.00    +0.140 C 
ATOM     12  C   LIG    1        0.008  -0.048  -0.006  0.00  0.00    +0.000 A 
ATOM     13  C   LIG    1        1.295  -0.444  -0.022  0.00  0.00    -0.020 A 
ATOM     14  N   LIG    1        2.060   0.694  -0.017  0.00  0.00    -0.410 N 
ATOM     15  C   LIG    1        1.205   1.749   0.002  0.00  0.00    +0.400 A 
ATOM     16  C   LIG    1        1.798  -1.864  -0.041  0.00  0.00    +0.140 C 
ATOM     17  N   LIG    1       -0.018   1.293   0.009  0.00  0.00    -0.480 NA
ENDBRANCH   5  14
ENDBRANCH   1   8
BRANCH   3  18
ATOM     18  C   LIG    1        9.776   1.030   1.091  0.00  0.00    -0.280 A 
ATOM     19  C   LIG    1       10.581   1.269  -0.004  0.00  0.00    +0.310 A 
ATOM     20  N   LIG    1       11.848   1.361   0.427  0.00  0.00    -0.450 N 
ATOM     21  H   LIG    1       12.619   1.527  -0.138  0.00  0.00    +0.450 HD
ATOM     22  N   LIG    1       11.891   1.173   1.811  0.00  0.00    -0.260 NA
ATOM     23  C   LIG    1       10.668   0.971   2.255  0.00  0.00    +0.210 A 
BRANCH  23  24
ATOM     24  C   LIG    1       10.271   0.731   3.656  0.00  0.00    +0.040 A 
ATOM     25  C   LIG    1       10.990   0.043   4.583  0.00  0.00    -0.010 A 
ATOM     26  C   LIG    1       10.239   0.061   5.775  0.00  0.00    -0.070 A 
ATOM     27  C   LIG    1        9.110   0.751   5.520  0.00  0.00    +0.200 A 
ATOM     28  O   LIG    1        9.135   1.159   4.241  0.00  0.00    -0.140 OA
ENDBRANCH  23  24
ENDBRANCH   3  18
TORSDOF 4
