REMARK  Name = ZINCnE000001LMsA.1
REMARK                            x       y       z     vdW  Elec       q    Type
REMARK                         _______ _______ _______ _____ _____    ______ ____
ROOT
ATOM      1  N   LIG    1        0.770   5.144   0.021  0.00  0.00    -0.700 NA
ATOM      2  C   LIG    1       -0.135   6.144   0.035  0.00  0.00    +0.660 C 
ATOM      3  N   LIG    1        0.279   7.427   0.037  0.00  0.00    -0.620 N 
ATOM      4  C   LIG    1        1.712   7.761   0.031  0.00  0.00    +0.260 C 
ATOM      5  C   LIG    1        1.983   8.766   1.151  0.00  0.00    +0.200 C 
ATOM      6  O   LIG    1        1.074   9.863   1.032  0.00  0.00    -0.380 OA
ATOM      7  C   LIG    1       -0.302   9.501   1.176  0.00  0.00    +0.190 C 
ATOM      8  C   LIG    1       -0.690   8.534   0.051  0.00  0.00    +0.270 C 
ATOM      9  O   LIG    1       -1.323   5.888   0.045  0.00  0.00    -0.620 OA
ENDROOT
BRANCH   7  10
ATOM     10  C   LIG    1       -1.159  10.738   1.094  0.00  0.00    -0.060 A 
ATOM     11  C   LIG    1       -2.250  10.880   1.931  0.00  0.00    +0.030 A 
ATOM     12  C   LIG    1       -3.036  12.014   1.856  0.00  0.00    +0.020 A 
ATOM     13  C   LIG    1       -2.731  13.008   0.946  0.00  0.00    +0.020 A 
ATOM     14  C   LIG    1       -1.639  12.867   0.108  0.00  0.00    -0.040 A 
ATOM     15 CL   LIG    1       -1.255  14.115  -1.036  0.00  0.00    -0.080 Cl
ATOM     16  C   LIG    1       -0.850  11.734   0.186  0.00  0.00    +0.060 A 
ENDBRANCH   7  10
BRANCH   1  20
ATOM     17  C   LIG    1       -0.016   1.356   0.009  0.00  0.00    -0.120 A 
ATOM     18  C   LIG    1       -1.110   2.125   0.018  0.00  0.00    +0.200 A 
ATOM     19  N   LIG    1       -0.893   3.428   0.028  0.00  0.00    -0.540 NA
ATOM     20  C   LIG    1        0.343   3.820   0.019  0.00  0.00    +0.390 A 
ATOM     21  S   LIG    1        1.397   2.408   0.002  0.00  0.00    -0.060 S 
BRANCH  17  23
ATOM     22  C   LIG    1        1.284  -0.635  -0.013  0.00  0.00    +0.220 C 
ATOM     23  O   LIG    1        0.002  -0.004   0.002  0.00  0.00    -0.290 OA
ENDBRANCH  17  23
ENDBRANCH   1  20
TORSDOF 3
