REMARK  Name = ZINCvU000000061n.0
REMARK                            x       y       z     vdW  Elec       q    Type
REMARK                         _______ _______ _______ _____ _____    ______ ____
ROOT
ATOM      1  C   LIG    1        4.387   8.266  -0.416  0.00  0.00    +0.520 C 
ATOM      2  O   LIG    1        5.516   7.818  -0.437  0.00  0.00    -0.490 OA
ENDROOT
BRANCH   1   3
ATOM      3  C   LIG    1        4.169   9.725  -0.509  0.00  0.00    -0.070 A 
ATOM      4  C   LIG    1        2.902  10.274  -0.378  0.00  0.00    +0.070 A 
ATOM      5  C   LIG    1        2.741  11.668  -0.472  0.00  0.00    +0.230 A 
ATOM      6  N   LIG    1        3.759  12.480  -0.682  0.00  0.00    -0.440 NA
ATOM      7  C   LIG    1        5.010  12.036  -0.820  0.00  0.00    +0.130 A 
ATOM      8  C   LIG    1        6.075  12.928  -1.043  0.00  0.00    +0.050 A 
ATOM      9  C   LIG    1        7.343  12.447  -1.163  0.00  0.00    +0.040 A 
ATOM     10  C   LIG    1        7.604  11.081  -1.086  0.00  0.00    +0.030 A 
ATOM     11  C   LIG    1        6.596  10.188  -0.875  0.00  0.00    +0.050 A 
ATOM     12  C   LIG    1        5.283  10.648  -0.736  0.00  0.00    -0.060 A 
BRANCH   5  13
ATOM     13  C   LIG    1        1.389  12.240  -0.331  0.00  0.00    -0.170 A 
ATOM     14  C   LIG    1        1.089  13.555  -0.393  0.00  0.00    +0.070 A 
ATOM     15  C   LIG    1       -0.248  13.848  -0.236  0.00  0.00    +0.010 A 
ATOM     16  C   LIG    1       -1.041  12.789  -0.036  0.00  0.00    -0.030 A 
ATOM     17  S   LIG    1       -0.080  11.316  -0.046  0.00  0.00    +0.150 S 
ENDBRANCH   5  13
ENDBRANCH   1   3
BRANCH   1  18
ATOM     18  O   LIG    1        3.334   7.433  -0.310  0.00  0.00    -0.320 OA
BRANCH  18  19
ATOM     19  C   LIG    1        3.623   6.012  -0.224  0.00  0.00    +0.270 C 
BRANCH  19  22
ATOM     20  N   LIG    1        2.355   3.899  -0.017  0.00  0.00    -0.660 N 
ATOM     21  H   LIG    1        3.202   3.431   0.041  0.00  0.00    +0.420 HD
ATOM     22  C   LIG    1        2.332   5.243  -0.110  0.00  0.00    +0.520 C 
ATOM     23  O   LIG    1        1.272   5.834  -0.103  0.00  0.00    -0.500 OA
BRANCH  20  30
ATOM     24  C   LIG    1        1.086   1.922  -0.606  0.00  0.00    +0.100 A 
ATOM     25  C   LIG    1       -0.104   1.213  -0.591  0.00  0.00    -0.060 A 
ATOM     26  C   LIG    1       -1.223   1.754   0.017  0.00  0.00    +0.040 A 
ATOM     27  C   LIG    1       -1.155   2.996   0.619  0.00  0.00    -0.100 A 
ATOM     28  C   LIG    1        0.029   3.710   0.608  0.00  0.00    +0.070 A 
ATOM     29  C   LIG    1       -2.376   3.576   1.285  0.00  0.00    +0.100 C 
ATOM     30  C   LIG    1        1.154   3.177  -0.004  0.00  0.00    +0.120 A 
BRANCH  24  32
ATOM     31  C   LIG    1        2.043   0.104  -1.804  0.00  0.00    +0.250 C 
ATOM     32  O   LIG    1        2.186   1.395  -1.207  0.00  0.00    -0.320 OA
ENDBRANCH  24  32
ENDBRANCH  20  30
ENDBRANCH  19  22
ENDBRANCH  18  19
ENDBRANCH   1  18
TORSDOF 7
