REMARK  Name = ZINCqH0000035n7M.0
REMARK                            x       y       z     vdW  Elec       q    Type
REMARK                         _______ _______ _______ _____ _____    ______ ____
ROOT
ATOM      1  C   LIG    1        3.420   4.540   2.853  0.00  0.00    -0.200 A 
ATOM      2  C   LIG    1        2.978   5.210   1.706  0.00  0.00    +0.130 A 
ATOM      3  C   LIG    1        3.657   6.348   1.308  0.00  0.00    -0.060 A 
ATOM      4  C   LIG    1        4.741   6.787   2.045  0.00  0.00    +0.340 A 
ATOM      5  N   LIG    1        5.142   6.140   3.123  0.00  0.00    -0.530 NA
ATOM      6  C   LIG    1        4.525   5.051   3.551  0.00  0.00    +0.370 A 
ENDROOT
BRANCH   1   9
ATOM      7  N   LIG    1        1.670   2.845   2.646  0.00  0.00    -0.640 N 
ATOM      8  H   LIG    1        1.357   3.302   1.850  0.00  0.00    +0.410 HD
ATOM      9  C   LIG    1        2.734   3.322   3.323  0.00  0.00    +0.560 C 
ATOM     10  O   LIG    1        3.127   2.748   4.320  0.00  0.00    -0.440 OA
BRANCH   7  15
ATOM     11  N   LIG    1       -0.055   1.116   2.499  0.00  0.00    -0.470 N 
ATOM     12  C   LIG    1       -0.373   0.008   3.248  0.00  0.00    +0.120 A 
ATOM     13  C   LIG    1        0.509  -0.047   4.262  0.00  0.00    +0.170 A 
ATOM     14  N   LIG    1        1.348   0.995   4.147  0.00  0.00    -0.460 NA
ATOM     15  C   LIG    1        1.024   1.698   3.088  0.00  0.00    +0.430 A 
BRANCH  11  16
ATOM     16  C   LIG    1       -0.744   1.579   1.292  0.00  0.00    +0.320 C 
BRANCH  16  17
ATOM     17  C   LIG    1       -0.024   1.038   0.055  0.00  0.00    +0.150 C 
BRANCH  17  19
ATOM     18  C   LIG    1       -0.101   1.037  -2.341  0.00  0.00    +0.210 C 
ATOM     19  O   LIG    1       -0.696   1.489  -1.123  0.00  0.00    -0.390 OA
ENDBRANCH  17  19
ENDBRANCH  16  17
ENDBRANCH  11  16
ENDBRANCH   7  15
ENDBRANCH   1   9
BRANCH   6  20
ATOM     20  O   LIG    1        4.967   4.423   4.667  0.00  0.00    -0.210 OA
BRANCH  20  21
ATOM     21  C   LIG    1        6.098   4.890   5.257  0.00  0.00    +0.110 A 
ATOM     22  C   LIG    1        7.298   4.212   5.094  0.00  0.00    +0.030 A 
ATOM     23  C   LIG    1        8.447   4.691   5.692  0.00  0.00    +0.060 A 
ATOM     24  C   LIG    1        8.401   5.841   6.460  0.00  0.00    -0.090 A 
ATOM     25  C   LIG    1        7.205   6.516   6.628  0.00  0.00    +0.060 A 
ATOM     26 BR   LIG    1        9.975   6.490   7.283  0.00  0.00    -0.040 Br
ATOM     27  C   LIG    1        6.054   6.043   6.028  0.00  0.00    +0.040 A 
ENDBRANCH  20  21
ENDBRANCH   6  20
TORSDOF 7
