REMARK  Name = ZINCqH0000002Uot.0
REMARK                            x       y       z     vdW  Elec       q    Type
REMARK                         _______ _______ _______ _____ _____    ______ ____
ROOT
ATOM      1  N   LIG    1        8.919   1.490  -0.642  0.00  0.00    -0.450 N 
ATOM      2  C   LIG    1        7.600   1.165  -0.517  0.00  0.00    +0.150 A 
ATOM      3  N   LIG    1        7.520  -0.148  -0.528  0.00  0.00    -0.290 NA
ATOM      4  N   LIG    1        8.693  -0.661  -0.644  0.00  0.00    -0.250 NA
ATOM      5  C   LIG    1        9.593   0.292  -0.715  0.00  0.00    +0.220 A 
ENDROOT
BRANCH   5   6
ATOM      6  C   LIG    1       11.053   0.113  -0.854  0.00  0.00    +0.030 A 
ATOM      7  C   LIG    1       11.588  -1.095  -1.318  0.00  0.00    +0.020 A 
ATOM      8  C   LIG    1       12.957  -1.217  -1.437  0.00  0.00    +0.280 A 
ATOM      9  N   LIG    1       13.757  -0.220  -1.111  0.00  0.00    -0.480 NA
ATOM     10  C   LIG    1       13.295   0.933  -0.666  0.00  0.00    +0.270 A 
ATOM     11  C   LIG    1       11.940   1.144  -0.521  0.00  0.00    -0.030 A 
ENDBRANCH   5   6
BRANCH   1  12
ATOM     12  C   LIG    1        9.498   2.836  -0.686  0.00  0.00    +0.310 C 
BRANCH  12  14
ATOM     13  C   LIG    1       10.330   4.745   0.694  0.00  0.00    +0.040 C 
ATOM     14  C   LIG    1        9.725   3.340   0.740  0.00  0.00    +0.000 C 
ENDBRANCH  12  14
ENDBRANCH   1  12
BRANCH   2  15
ATOM     15  S   LIG    1        6.253   2.293  -0.377  0.00  0.00    +0.090 S 
BRANCH  15  16
ATOM     16  C   LIG    1        4.875   1.125  -0.264  0.00  0.00    +0.110 C 
BRANCH  16  17
ATOM     17  C   LIG    1        3.581   1.886  -0.133  0.00  0.00    +0.540 C 
ATOM     18  N   LIG    1        2.414   1.219  -0.032  0.00  0.00    -0.660 N 
ATOM     19  H   LIG    1        2.412   0.251   0.020  0.00  0.00    +0.420 HD
ATOM     20  O   LIG    1        3.590   3.099  -0.117  0.00  0.00    -0.500 OA
BRANCH  18  21
ATOM     21  C   LIG    1        1.206   1.924  -0.004  0.00  0.00    +0.130 A 
ATOM     22  C   LIG    1        0.075   1.390  -0.607  0.00  0.00    -0.010 A 
ATOM     23  C   LIG    1       -1.115   2.091  -0.583  0.00  0.00    +0.030 A 
ATOM     24  C   LIG    1       -1.183   3.318   0.050  0.00  0.00    -0.100 A 
ATOM     25  C   LIG    1       -0.059   3.853   0.651  0.00  0.00    +0.030 A 
ATOM     26  C   LIG    1       -2.485   4.078   0.080  0.00  0.00    +0.090 C 
ATOM     27  C   LIG    1        1.136   3.159   0.626  0.00  0.00    +0.030 A 
ENDBRANCH  18  21
ENDBRANCH  16  17
ENDBRANCH  15  16
ENDBRANCH   2  15
TORSDOF 7
