REMARK  Name = ZINCpe000000YeE0.0
REMARK                            x       y       z     vdW  Elec       q    Type
REMARK                         _______ _______ _______ _____ _____    ______ ____
ROOT
ATOM      1  C   LIG    1       -2.423  -0.475  -0.264  0.00  0.00    +0.440 C 
ATOM      2  O   LIG    1       -1.384  -1.102  -0.224  0.00  0.00    -0.490 OA
ENDROOT
BRANCH   1   6
ATOM      3  C   LIG    1       -4.763   3.873  -0.392  0.00  0.00    +0.340 C 
ATOM      4  N   LIG    1       -3.554   3.065  -0.223  0.00  0.00    -0.560 N 
ATOM      5  C   LIG    1       -3.629   1.722  -0.334  0.00  0.00    +0.570 A 
ATOM      6  C   LIG    1       -2.404   0.932  -0.160  0.00  0.00    -0.440 A 
ATOM      7  C   LIG    1       -1.210   1.623   0.113  0.00  0.00    +0.550 A 
ATOM      8  N   LIG    1       -1.242   2.985   0.211  0.00  0.00    -0.540 N 
ATOM      9  C   LIG    1       -0.005   3.713   0.502  0.00  0.00    +0.340 C 
ATOM     10  O   LIG    1       -4.691   1.177  -0.571  0.00  0.00    -0.490 OA
ATOM     11  C   LIG    1       -2.384   3.670   0.040  0.00  0.00    +0.710 A 
ATOM     12  O   LIG    1       -2.359   4.881   0.132  0.00  0.00    -0.530 OA
BRANCH   7  13
ATOM     13  N   LIG    1       -0.043   0.945   0.284  0.00  0.00    -0.800 N 
ATOM     14  H   LIG    1       -0.057   0.018   0.569  0.00  0.00    +0.440 HD
ATOM     15  H   LIG    1        0.804   1.390   0.124  0.00  0.00    +0.410 HD
ENDBRANCH   7  13
ENDBRANCH   1   6
BRANCH   1  16
ATOM     16  C   LIG    1       -3.735  -1.200  -0.425  0.00  0.00    +0.230 C 
BRANCH  16  17
ATOM     17  N   LIG    1       -3.487  -2.646  -0.510  0.00  0.00    -0.480 N 
ATOM     18  C   LIG    1       -3.217  -3.213   0.819  0.00  0.00    +0.230 C 
ATOM     19  C   LIG    1       -3.935  -2.447   1.909  0.00  0.00    +0.000 C 
ATOM     20  C   LIG    1       -5.443  -2.610   1.949  0.00  0.00    +0.100 C 
ATOM     21  S   LIG    1       -6.183  -1.815   0.486  0.00  0.00    -0.140 S 
ATOM     22  C   LIG    1       -5.881  -3.045  -0.759  0.00  0.00    -0.140 A 
ATOM     23  C   LIG    1       -6.936  -3.714  -1.351  0.00  0.00    +0.060 A 
ATOM     24  C   LIG    1       -6.671  -4.663  -2.325  0.00  0.00    +0.000 A 
ATOM     25  C   LIG    1       -5.365  -4.928  -2.693  0.00  0.00    +0.030 A 
ATOM     26  C   LIG    1       -4.313  -4.259  -2.096  0.00  0.00    +0.040 A 
ATOM     27  C   LIG    1       -4.571  -3.308  -1.113  0.00  0.00    +0.120 A 
ENDBRANCH  16  17
ENDBRANCH   1  16
TORSDOF 4
