REMARK  Name = ZINCrD00000F5LuP.0
REMARK                            x       y       z     vdW  Elec       q    Type
REMARK                         _______ _______ _______ _____ _____    ______ ____
ROOT
ATOM      1  C   LIG    1       -3.699   2.308   3.223  0.00  0.00    +0.480 C 
ATOM      2  O   LIG    1       -3.857   2.514   4.413  0.00  0.00    -0.430 OA
ENDROOT
BRANCH   1   7
ATOM      3  C   LIG    1       -0.238   1.291   2.590  0.00  0.00    -0.220 A 
ATOM      4  C   LIG    1       -0.783   1.263   1.318  0.00  0.00    +0.130 A 
ATOM      5  N   LIG    1       -2.073   1.628   1.402  0.00  0.00    -0.530 N 
ATOM      6  H   LIG    1       -2.687   1.696   0.655  0.00  0.00    +0.420 HD
ATOM      7  C   LIG    1       -2.387   1.887   2.719  0.00  0.00    -0.090 A 
ATOM      8  C   LIG    1       -0.052   0.893   0.054  0.00  0.00    +0.160 C 
ATOM      9  C   LIG    1       -1.267   1.689   3.473  0.00  0.00    -0.010 A 
ATOM     10  C   LIG    1       -1.149   1.862   4.966  0.00  0.00    +0.140 C 
BRANCH   3  11
ATOM     11  C   LIG    1        1.151   0.967   2.953  0.00  0.00    +0.550 C 
ATOM     12  O   LIG    1        1.996   1.841   2.965  0.00  0.00    -0.500 OA
BRANCH  11  13
ATOM     13  O   LIG    1        1.486  -0.299   3.273  0.00  0.00    -0.350 OA
BRANCH  13  15
ATOM     14  C   LIG    1        3.062  -2.028   3.951  0.00  0.00    +0.070 C 
ATOM     15  C   LIG    1        2.874  -0.545   3.621  0.00  0.00    +0.200 C 
ENDBRANCH  13  15
ENDBRANCH  11  13
ENDBRANCH   3  11
ENDBRANCH   1   7
BRANCH   1  16
ATOM     16  C   LIG    1       -4.824   2.483   2.290  0.00  0.00    -0.160 C 
ATOM     17  C   LIG    1       -6.057   2.879   2.763  0.00  0.00    +0.260 C 
BRANCH  17  18
ATOM     18  C   LIG    1       -7.211   2.909   1.864  0.00  0.00    -0.090 A 
ATOM     19  C   LIG    1       -7.314   1.981   0.817  0.00  0.00    +0.060 A 
ATOM     20  C   LIG    1       -8.404   2.012  -0.024  0.00  0.00    +0.040 A 
ATOM     21  C   LIG    1       -9.398   2.962   0.152  0.00  0.00    +0.080 A 
ATOM     22  C   LIG    1       -9.311   3.889   1.177  0.00  0.00    +0.030 A 
ATOM     23  O   LIG    1      -10.144   4.905   1.550  0.00  0.00    -0.300 OA
ATOM     24  C   LIG    1       -9.351   5.761   2.393  0.00  0.00    +0.440 C 
ATOM     25  O   LIG    1       -8.365   4.872   2.952  0.00  0.00    -0.300 OA
ATOM     26  C   LIG    1       -8.220   3.871   2.040  0.00  0.00    +0.080 A 
ENDBRANCH  17  18
BRANCH  16  27
ATOM     27  C   LIG    1       -4.638   2.242   0.891  0.00  0.00    +0.260 C 
ATOM     28  N   LIG    1       -4.490   2.050  -0.219  0.00  0.00    -0.410 NA
ENDBRANCH  16  27
ENDBRANCH   1  16
TORSDOF 7
