REMARK  Name = ZINCpe00000VVH5d.0
REMARK                            x       y       z     vdW  Elec       q    Type
REMARK                         _______ _______ _______ _____ _____    ______ ____
ROOT
ATOM      1  C   LIG    1       -0.742   1.679  -3.235  0.00  0.00    +0.210 C 
ATOM      2  C   LIG    1       -2.162   1.124  -3.109  0.00  0.00    +0.260 C 
ATOM      3  O   LIG    1       -2.938   1.594  -4.217  0.00  0.00    -0.360 OA
ATOM      4  C   LIG    1       -2.526   1.033  -5.466  0.00  0.00    +0.290 C 
ATOM      5  C   LIG    1       -1.037   1.168  -5.618  0.00  0.00    +0.490 C 
ATOM      6  O   LIG    1       -0.545   1.020  -6.717  0.00  0.00    -0.530 OA
ATOM      7  N   LIG    1       -0.233   1.445  -4.584  0.00  0.00    -0.580 N 
ENDROOT
BRANCH   1  10
ATOM      8  N   LIG    1        0.311   1.512  -1.002  0.00  0.00    -0.720 N 
ATOM      9  H   LIG    1       -0.153   2.328  -0.757  0.00  0.00    +0.410 HD
ATOM     10  C   LIG    1        0.154   0.992  -2.236  0.00  0.00    +0.510 C 
ATOM     11  O   LIG    1        0.733  -0.028  -2.542  0.00  0.00    -0.510 OA
BRANCH   8  12
ATOM     12  C   LIG    1        1.182   0.845  -0.032  0.00  0.00    +0.370 C 
BRANCH  12  18
ATOM     13  C   LIG    1        2.963   4.492   2.695  0.00  0.00    +0.180 C 
ATOM     14  C   LIG    1        2.013   3.332   2.549  0.00  0.00    +0.320 A 
ATOM     15  N   LIG    1        1.211   3.030   3.550  0.00  0.00    -0.510 NA
ATOM     16  C   LIG    1        0.363   2.018   3.459  0.00  0.00    +0.330 A 
ATOM     17  C   LIG    1        0.322   1.277   2.288  0.00  0.00    -0.070 A 
ATOM     18  C   LIG    1        1.184   1.622   1.259  0.00  0.00    +0.160 A 
ATOM     19  N   LIG    1        2.005   2.647   1.423  0.00  0.00    -0.500 NA
ENDBRANCH  12  18
ENDBRANCH   8  12
ENDBRANCH   1  10
BRANCH   7  20
ATOM     20  C   LIG    1        1.212   1.518  -4.814  0.00  0.00    +0.350 C 
BRANCH  20  21
ATOM     21  C   LIG    1        1.593   2.930  -5.175  0.00  0.00    -0.110 A 
ATOM     22  C   LIG    1        1.711   3.297  -6.502  0.00  0.00    +0.040 A 
ATOM     23  C   LIG    1        2.057   4.594  -6.833  0.00  0.00    +0.000 A 
ATOM     24  C   LIG    1        2.293   5.522  -5.836  0.00  0.00    +0.010 A 
ATOM     25  C   LIG    1        2.180   5.154  -4.508  0.00  0.00    +0.000 A 
ATOM     26  C   LIG    1        1.831   3.858  -4.178  0.00  0.00    +0.000 A 
ENDBRANCH  20  21
ENDBRANCH   7  20
TORSDOF 5
