REMARK  Name = ZINCvU00000007Cp.0
REMARK                            x       y       z     vdW  Elec       q    Type
REMARK                         _______ _______ _______ _____ _____    ______ ____
ROOT
ATOM      1  O   LIG    1       -0.715   1.567  -1.168  0.00  0.00    -0.330 OA
ENDROOT
BRANCH   1   2
ATOM      2  C   LIG    1       -0.209   1.218  -2.368  0.00  0.00    +0.510 C 
ATOM      3  O   LIG    1        0.791   0.531  -2.429  0.00  0.00    -0.490 OA
BRANCH   2   6
ATOM      4  C   LIG    1       -2.633   2.881  -4.700  0.00  0.00    -0.100 A 
ATOM      5  C   LIG    1       -2.021   2.461  -3.540  0.00  0.00    +0.100 A 
ATOM      6  C   LIG    1       -0.870   1.670  -3.606  0.00  0.00    -0.150 A 
ATOM      7  C   LIG    1       -0.344   1.315  -4.856  0.00  0.00    +0.170 A 
ATOM      8  C   LIG    1       -0.977   1.743  -6.014  0.00  0.00    -0.110 A 
ATOM      9  C   LIG    1       -2.113   2.523  -5.934  0.00  0.00    +0.070 A 
BRANCH   4  11
ATOM     10  C   LIG    1       -4.972   2.971  -3.883  0.00  0.00    +0.030 C 
ATOM     11  C   LIG    1       -3.874   3.732  -4.628  0.00  0.00    +0.030 C 
ATOM     12  C   LIG    1       -3.558   5.031  -3.884  0.00  0.00    +0.030 C 
ENDBRANCH   4  11
BRANCH   8  13
ATOM     13  C   LIG    1       -0.420   1.360  -7.361  0.00  0.00    +0.030 C 
ATOM     14  C   LIG    1       -0.056   2.625  -8.140  0.00  0.00    +0.040 C 
ATOM     15  C   LIG    1       -1.470   0.565  -8.139  0.00  0.00    +0.030 C 
ENDBRANCH   8  13
BRANCH   7  16
ATOM     16  O   LIG    1        0.775   0.553  -4.932  0.00  0.00    -0.480 OA
ATOM     17  H   LIG    1        0.603  -0.398  -4.956  0.00  0.00    +0.400 HD
ENDBRANCH   7  16
ENDBRANCH   2   6
ENDBRANCH   1   2
BRANCH   1  18
ATOM     18  C   LIG    1       -0.013   1.086   0.008  0.00  0.00    +0.250 C 
BRANCH  18  19
ATOM     19  C   LIG    1       -0.718   1.572   1.248  0.00  0.00    +0.520 C 
ATOM     20  N   LIG    1       -0.242   1.246   2.466  0.00  0.00    -0.720 N 
ATOM     21  H   LIG    1        0.555   0.699   2.544  0.00  0.00    +0.400 HD
ATOM     22  O   LIG    1       -1.714   2.256   1.150  0.00  0.00    -0.510 OA
BRANCH  20  23
ATOM     23  C   LIG    1       -0.927   1.718   3.671  0.00  0.00    +0.270 C 
BRANCH  23  24
ATOM     24  C   LIG    1       -0.187   1.212   4.911  0.00  0.00    -0.070 C 
ATOM     25  C   LIG    1        1.248   1.741   4.900  0.00  0.00    +0.030 C 
ATOM     26  C   LIG    1        1.988   1.234   6.139  0.00  0.00    -0.020 C 
ATOM     27  C   LIG    1        2.009  -0.295   6.131  0.00  0.00    +0.010 C 
ATOM     28  C   LIG    1        0.573  -0.825   6.142  0.00  0.00    -0.020 C 
ATOM     29  C   LIG    1       -0.143  -0.332   7.401  0.00  0.00    +0.010 C 
ATOM     30  C   LIG    1       -0.163   1.198   7.409  0.00  0.00    -0.010 C 
ATOM     31  C   LIG    1        1.272   1.728   7.398  0.00  0.00    +0.010 C 
ATOM     32  C   LIG    1       -0.167  -0.318   4.902  0.00  0.00    +0.030 C 
ATOM     33  C   LIG    1       -0.903   1.705   6.169  0.00  0.00    +0.040 C 
ENDBRANCH  23  24
ENDBRANCH  20  23
ENDBRANCH  18  19
ENDBRANCH   1  18
TORSDOF 9
