REMARK  Name = ZINCtV00000L6kxY.0
REMARK                            x       y       z     vdW  Elec       q    Type
REMARK                         _______ _______ _______ _____ _____    ______ ____
ROOT
ATOM      1  C   LIG    1       -0.753   1.593  -1.232  0.00  0.00    +0.040 C 
ATOM      2  C   LIG    1       -0.258   1.110  -2.596  0.00  0.00    +0.040 C 
ATOM      3  C   LIG    1       -0.004   2.554  -2.157  0.00  0.00    +0.000 C 
ATOM      4 CL   LIG    1        1.682   3.003  -1.703  0.00  0.00    -0.070 Cl
ATOM      5 CL   LIG    1       -0.965   3.850  -2.963  0.00  0.00    -0.070 Cl
ENDROOT
BRANCH   1   6
ATOM      6  C   LIG    1       -0.013   1.086   0.008  0.00  0.00    +0.280 C 
BRANCH   6   7
ATOM      7  O   LIG    1       -0.692   1.554   1.203  0.00  0.00    -0.340 OA
BRANCH   7   9
ATOM      8  O   LIG    1        0.837   0.505   2.423  0.00  0.00    -0.490 OA
ATOM      9  C   LIG    1       -0.164   1.193   2.388  0.00  0.00    +0.520 C 
BRANCH   9  10
ATOM     10  C   LIG    1       -0.802   1.633   3.646  0.00  0.00    -0.100 A 
ATOM     11  C   LIG    1       -1.949   2.428   3.609  0.00  0.00    +0.110 A 
ATOM     12  C   LIG    1       -2.544   2.831   4.788  0.00  0.00    -0.040 A 
ATOM     13  C   LIG    1       -1.999   2.458   6.005  0.00  0.00    +0.080 A 
ATOM     14  C   LIG    1       -0.859   1.674   6.048  0.00  0.00    -0.040 A 
ATOM     15 CL   LIG    1       -0.182   1.211   7.579  0.00  0.00    -0.040 Cl
ATOM     16 CL   LIG    1       -3.974   3.815   4.745  0.00  0.00    -0.040 Cl
ATOM     17  C   LIG    1       -0.257   1.260   4.876  0.00  0.00    +0.120 A 
ENDBRANCH   9  10
ENDBRANCH   7   9
ENDBRANCH   6   7
ENDBRANCH   1   6
BRANCH   2  18
ATOM     18  C   LIG    1       -1.306   0.876  -3.686  0.00  0.00    +0.280 C 
BRANCH  18  19
ATOM     19  O   LIG    1       -0.666   0.312  -4.861  0.00  0.00    -0.340 OA
BRANCH  19  20
ATOM     20  C   LIG    1       -1.456   0.045  -5.919  0.00  0.00    +0.520 C 
ATOM     21  O   LIG    1       -2.647   0.277  -5.862  0.00  0.00    -0.490 OA
BRANCH  20  22
ATOM     22  C   LIG    1       -0.873  -0.529  -7.149  0.00  0.00    -0.100 A 
ATOM     23  C   LIG    1        0.496  -0.791  -7.220  0.00  0.00    +0.110 A 
ATOM     24  C   LIG    1        1.034  -1.333  -8.371  0.00  0.00    -0.040 A 
ATOM     25  C   LIG    1        0.219  -1.607  -9.456  0.00  0.00    +0.080 A 
ATOM     26  C   LIG    1       -1.139  -1.345  -9.394  0.00  0.00    -0.040 A 
ATOM     27 CL   LIG    1       -2.152  -1.691 -10.761  0.00  0.00    -0.040 Cl
ATOM     28 CL   LIG    1        2.735  -1.665  -8.459  0.00  0.00    -0.040 Cl
ATOM     29  C   LIG    1       -1.689  -0.808  -8.247  0.00  0.00    +0.120 A 
ENDBRANCH  20  22
ENDBRANCH  19  20
ENDBRANCH  18  19
ENDBRANCH   2  18
TORSDOF 8
