REMARK  Name = ZINCpk00000kGVP1.0
REMARK                            x       y       z     vdW  Elec       q    Type
REMARK                         _______ _______ _______ _____ _____    ______ ____
ROOT
ATOM      1  C   LIG    1       -2.402  -3.270  -2.632  0.00  0.00    +0.260 C 
ATOM      2  C   LIG    1       -2.284  -2.836  -1.149  0.00  0.00    +0.050 C 
ATOM      3  C   LIG    1       -1.095  -1.844  -1.178  0.00  0.00    +0.000 C 
ATOM      4  C   LIG    1       -1.271  -1.077  -2.506  0.00  0.00    +0.000 C 
ATOM      5  C   LIG    1       -2.102  -1.984  -3.430  0.00  0.00    +0.150 C 
ENDROOT
BRANCH   1   7
ATOM      6  C   LIG    1       -3.971  -4.558  -3.981  0.00  0.00    +0.510 C 
ATOM      7  N   LIG    1       -3.755  -3.750  -2.924  0.00  0.00    -0.730 N 
ATOM      8  H   LIG    1       -4.496  -3.487  -2.356  0.00  0.00    +0.400 HD
ATOM      9  O   LIG    1       -3.045  -4.887  -4.691  0.00  0.00    -0.520 OA
BRANCH   6  10
ATOM     10  C   LIG    1       -5.363  -5.051  -4.281  0.00  0.00    +0.060 C 
BRANCH  10  11
ATOM     11  C   LIG    1       -5.331  -5.943  -5.524  0.00  0.00    +0.160 C 
BRANCH  11  15
ATOM     12  C   LIG    1       -9.685  -6.940  -7.968  0.00  0.00    +0.150 C 
ATOM     13  C   LIG    1       -8.619  -6.865  -6.906  0.00  0.00    +0.080 A 
ATOM     14  C   LIG    1       -7.403  -6.285  -7.036  0.00  0.00    -0.120 A 
ATOM     15  C   LIG    1       -6.723  -6.437  -5.823  0.00  0.00    +0.080 A 
ATOM     16  N   LIG    1       -7.505  -7.077  -4.993  0.00  0.00    -0.300 NA
ATOM     17  N   LIG    1       -8.708  -7.358  -5.653  0.00  0.00    -0.370 N 
ATOM     18  C   LIG    1       -9.860  -8.062  -5.084  0.00  0.00    +0.350 C 
ENDBRANCH  11  15
ENDBRANCH  10  11
ENDBRANCH   6  10
ENDBRANCH   1   7
BRANCH   5  19
ATOM     19  O   LIG    1       -1.355  -2.301  -4.606  0.00  0.00    -0.550 OA
ATOM     20  H   LIG    1       -1.116  -1.531  -5.140  0.00  0.00    +0.380 HD
ENDBRANCH   5  19
BRANCH   3  21
ATOM     21  C   LIG    1       -1.171  -0.882   0.009  0.00  0.00    +0.330 C 
BRANCH  21  22
ATOM     22  N   LIG    1        0.002  -0.004   0.002  0.00  0.00    -0.360 N 
ATOM     23  C   LIG    1       -0.016   1.346   0.009  0.00  0.00    +0.250 A 
ATOM     24  C   LIG    1        1.267   1.776  -0.001  0.00  0.00    -0.190 A 
ATOM     25  C   LIG    1        2.098   0.650  -0.015  0.00  0.00    +0.250 A 
ATOM     26 CL   LIG    1        1.791   3.431   0.003  0.00  0.00    -0.040 Cl
ATOM     27  N   LIG    1        1.341  -0.417  -0.013  0.00  0.00    -0.280 NA
ENDBRANCH  21  22
ENDBRANCH   3  21
TORSDOF 7
