REMARK  Name = ZINCvU00000004Ji.0
REMARK                            x       y       z     vdW  Elec       q    Type
REMARK                         _______ _______ _______ _____ _____    ______ ____
ROOT
ATOM      1  C   LIG    1       -3.199   4.226  -1.034  0.00  0.00    +0.150 A 
ATOM      2  N   LIG    1       -4.279   4.815  -0.571  0.00  0.00    -0.280 NA
ATOM      3  N   LIG    1       -4.273   4.803   0.714  0.00  0.00    -0.260 NA
ATOM      4  C   LIG    1       -3.191   4.202   1.153  0.00  0.00    +0.250 A 
ATOM      5  N   LIG    1       -2.470   3.810   0.046  0.00  0.00    -0.420 N 
ENDROOT
BRANCH   5   6
ATOM      6  C   LIG    1       -1.242   3.131   0.031  0.00  0.00    +0.050 A 
ATOM      7  C   LIG    1       -1.215   1.744   0.012  0.00  0.00    +0.120 A 
ATOM      8  C   LIG    1       -0.005   1.077   0.003  0.00  0.00    +0.010 A 
ATOM      9  C   LIG    1        1.181   1.791   0.001  0.00  0.00    +0.160 A 
ATOM     10  C   LIG    1        1.158   3.176   0.015  0.00  0.00    -0.010 A 
ATOM     11  F   LIG    1        2.363   1.136  -0.012  0.00  0.00    -0.120 F 
ATOM     12  C   LIG    1       -0.051   3.848   0.029  0.00  0.00    +0.160 A 
ATOM     13  F   LIG    1       -0.073   5.198   0.042  0.00  0.00    -0.110 F 
ENDBRANCH   5   6
BRANCH   4  14
ATOM     14  C   LIG    1       -2.818   3.986   2.567  0.00  0.00    -0.030 A 
ATOM     15  C   LIG    1       -1.819   3.069   2.896  0.00  0.00    +0.010 A 
ATOM     16  C   LIG    1       -1.470   2.877   4.216  0.00  0.00    +0.010 A 
ATOM     17  C   LIG    1       -2.117   3.583   5.215  0.00  0.00    +0.030 A 
ATOM     18  C   LIG    1       -3.112   4.490   4.896  0.00  0.00    +0.010 A 
ATOM     19  C   LIG    1       -3.466   4.696   3.579  0.00  0.00    +0.070 A 
ENDBRANCH   4  14
BRANCH   1  20
ATOM     20  S   LIG    1       -2.771   4.011  -2.729  0.00  0.00    +0.100 S 
BRANCH  20  21
ATOM     21  C   LIG    1       -4.193   4.807  -3.516  0.00  0.00    +0.130 C 
BRANCH  21  23
ATOM     22  O   LIG    1       -3.066   4.209  -5.502  0.00  0.00    -0.500 OA
ATOM     23  C   LIG    1       -4.040   4.742  -5.014  0.00  0.00    +0.540 C 
ATOM     24  N   LIG    1       -4.987   5.275  -5.812  0.00  0.00    -0.660 N 
ATOM     25  H   LIG    1       -5.798   5.640  -5.425  0.00  0.00    +0.420 HD
BRANCH  24  26
ATOM     26  C   LIG    1       -4.800   5.300  -7.198  0.00  0.00    +0.170 A 
ATOM     27  C   LIG    1       -5.281   6.367  -7.945  0.00  0.00    -0.010 A 
ATOM     28  C   LIG    1       -5.090   6.394  -9.313  0.00  0.00    +0.070 A 
ATOM     29  C   LIG    1       -4.431   5.354  -9.942  0.00  0.00    -0.030 A 
ATOM     30  C   LIG    1       -3.954   4.285  -9.201  0.00  0.00    +0.120 A 
ATOM     31  F   LIG    1       -3.310   3.270  -9.818  0.00  0.00    -0.130 F 
ATOM     32  C   LIG    1       -4.138   4.256  -7.830  0.00  0.00    -0.010 A 
ENDBRANCH  24  26
ENDBRANCH  21  23
ENDBRANCH  20  21
ENDBRANCH   1  20
TORSDOF 6
