REMARK  Name = ZINCrg00001JduY7.0
REMARK                            x       y       z     vdW  Elec       q    Type
REMARK                         _______ _______ _______ _____ _____    ______ ____
ROOT
ATOM      1  C   LIG    1        0.802   0.976   9.868  0.00  0.00    +0.220 C 
ATOM      2  C   LIG    1        0.257   1.516  11.195  0.00  0.00    +0.220 C 
ATOM      3  O   LIG    1        1.152   1.159  12.251  0.00  0.00    -0.380 OA
ATOM      4  C   LIG    1        2.459   1.724  12.126  0.00  0.00    +0.220 C 
ATOM      5  C   LIG    1        3.117   1.195  10.846  0.00  0.00    +0.270 C 
ATOM      6  N   LIG    1        2.196   1.424   9.722  0.00  0.00    -0.590 N 
ATOM      7  C   LIG    1        2.616   2.027   8.592  0.00  0.00    +0.620 C 
ATOM      8  O   LIG    1        1.816   2.316   7.723  0.00  0.00    -0.530 OA
ENDROOT
BRANCH   7   9
ATOM      9  C   LIG    1        4.049   2.335   8.409  0.00  0.00    -0.010 A 
ATOM     10  N   LIG    1        5.036   1.978   9.206  0.00  0.00    -0.260 NA
ATOM     11  N   LIG    1        6.154   2.414   8.746  0.00  0.00    -0.380 N 
ATOM     12  H   LIG    1        7.018   2.275   9.164  0.00  0.00    +0.450 HD
ATOM     13  C   LIG    1        5.952   3.096   7.598  0.00  0.00    +0.180 A 
ATOM     14  C   LIG    1        4.623   3.066   7.342  0.00  0.00    -0.140 A 
ATOM     15  C   LIG    1        3.906   3.683   6.169  0.00  0.00    +0.130 C 
ENDBRANCH   7   9
BRANCH   1  16
ATOM     16  C   LIG    1       -0.038   1.517   8.709  0.00  0.00    +0.070 C 
BRANCH  16  19
ATOM     17  N   LIG    1       -0.315   1.074   6.291  0.00  0.00    -0.730 N 
ATOM     18  H   LIG    1       -0.981   1.779   6.270  0.00  0.00    +0.400 HD
ATOM     19  C   LIG    1        0.305   0.767   7.447  0.00  0.00    +0.560 C 
ATOM     20  O   LIG    1        1.138  -0.114   7.473  0.00  0.00    -0.560 OA
BRANCH  17  21
ATOM     21  C   LIG    1        0.018   0.345   5.065  0.00  0.00    +0.260 C 
BRANCH  21  22
ATOM     22  C   LIG    1       -0.821   0.886   3.905  0.00  0.00    +0.100 C 
BRANCH  22  23
ATOM     23  C   LIG    1       -0.473   0.124   2.625  0.00  0.00    +0.030 C 
ATOM     24  N   LIG    1        0.875  -0.432   2.483  0.00  0.00    -0.120 NA
ATOM     25  N   LIG    1       -0.011  -1.262   2.737  0.00  0.00    -0.120 NA
BRANCH  23  26
ATOM     26  C   LIG    1       -1.228   0.543   1.362  0.00  0.00    +0.120 C 
BRANCH  26  27
ATOM     27  C   LIG    1       -0.667  -0.214   0.157  0.00  0.00    +0.160 C 
BRANCH  27  29
ATOM     28  C   LIG    1       -1.973   0.512  -2.027  0.00  0.00    +0.030 C 
ATOM     29  C   LIG    1       -1.394   0.190  -1.058  0.00  0.00    -0.190 C 
ENDBRANCH  27  29
ENDBRANCH  26  27
ENDBRANCH  23  26
ENDBRANCH  22  23
ENDBRANCH  21  22
ENDBRANCH  17  21
ENDBRANCH  16  19
ENDBRANCH   1  16
TORSDOF 9
