REMARK  Name = ZINCrD000006Vq9D.0
REMARK                            x       y       z     vdW  Elec       q    Type
REMARK                         _______ _______ _______ _____ _____    ______ ____
ROOT
ATOM      1  O   LIG    1       -2.844  -1.430  -6.425  0.00  0.00    -0.520 OA
ATOM      2  C   LIG    1       -3.220  -0.275  -6.458  0.00  0.00    +0.570 C 
ATOM      3  N   LIG    1       -2.885   0.571  -5.465  0.00  0.00    -0.710 N 
ATOM      4  H   LIG    1       -3.185   1.493  -5.491  0.00  0.00    +0.410 HD
ENDROOT
BRANCH   2   5
ATOM      5  C   LIG    1       -4.049   0.203  -7.591  0.00  0.00    +0.120 A 
ATOM      6  N   LIG    1       -4.453   1.458  -7.609  0.00  0.00    -0.440 NA
ATOM      7  C   LIG    1       -5.194   1.932  -8.610  0.00  0.00    +0.120 A 
ATOM      8  C   LIG    1       -5.618   3.275  -8.625  0.00  0.00    +0.050 A 
ATOM      9  C   LIG    1       -6.378   3.731  -9.657  0.00  0.00    +0.030 A 
ATOM     10  C   LIG    1       -6.748   2.889 -10.705  0.00  0.00    +0.020 A 
ATOM     11  C   LIG    1       -6.359   1.585 -10.726  0.00  0.00    +0.030 A 
ATOM     12  C   LIG    1       -5.573   1.078  -9.679  0.00  0.00    -0.090 A 
ATOM     13  C   LIG    1       -5.151  -0.265  -9.666  0.00  0.00    +0.090 A 
ATOM     14  C   LIG    1       -4.389  -0.692  -8.617  0.00  0.00    +0.020 A 
ENDBRANCH   2   5
BRANCH   3  15
ATOM     15  C   LIG    1       -2.066   0.099  -4.345  0.00  0.00    +0.290 C 
BRANCH  15  16
ATOM     16  C   LIG    1       -1.832   1.249  -3.364  0.00  0.00    +0.070 C 
BRANCH  16  17
ATOM     17  C   LIG    1       -0.990   0.764  -2.212  0.00  0.00    +0.520 C 
ATOM     18  N   LIG    1       -0.746   1.577  -1.166  0.00  0.00    -0.550 N 
ATOM     19  C   LIG    1       -1.181   2.980  -1.193  0.00  0.00    +0.270 C 
ATOM     20  C   LIG    1       -0.023   3.841  -0.672  0.00  0.00    +0.020 C 
ATOM     21  C   LIG    1        0.258   3.464   0.783  0.00  0.00    +0.080 C 
ATOM     22  C   LIG    1        0.426   1.973   0.919  0.00  0.00    -0.120 A 
ATOM     23  C   LIG    1        1.091   1.473   2.025  0.00  0.00    +0.020 A 
ATOM     24  C   LIG    1        1.253   0.110   2.183  0.00  0.00    -0.020 A 
ATOM     25  C   LIG    1        0.751  -0.764   1.236  0.00  0.00    +0.030 A 
ATOM     26  C   LIG    1        0.088  -0.273   0.130  0.00  0.00    +0.020 A 
ATOM     27  C   LIG    1       -0.074   1.098  -0.033  0.00  0.00    +0.150 A 
ATOM     28  O   LIG    1       -0.532  -0.359  -2.227  0.00  0.00    -0.510 OA
ENDBRANCH  16  17
ENDBRANCH  15  16
ENDBRANCH   3  15
TORSDOF 4
