REMARK  Name = ZINCqH0000050Wtj.0
REMARK                            x       y       z     vdW  Elec       q    Type
REMARK                         _______ _______ _______ _____ _____    ______ ____
ROOT
ATOM      1  C   LIG    1       -4.888   0.919   0.245  0.00  0.00    +0.240 C 
ENDROOT
BRANCH   1   2
ATOM      2  C   LIG    1       -4.892   0.141   1.536  0.00  0.00    -0.120 A 
ATOM      3  C   LIG    1       -5.301   0.748   2.708  0.00  0.00    +0.040 A 
ATOM      4  C   LIG    1       -5.309   0.033   3.891  0.00  0.00    +0.010 A 
ATOM      5  C   LIG    1       -4.899  -1.288   3.903  0.00  0.00    +0.030 A 
ATOM      6  C   LIG    1       -4.486  -1.893   2.731  0.00  0.00    +0.010 A 
ATOM      7  C   LIG    1       -4.482  -1.179   1.548  0.00  0.00    +0.030 A 
ENDBRANCH   1   2
BRANCH   1   8
ATOM      8  C   LIG    1       -3.601   1.694   0.130  0.00  0.00    +0.530 C 
ATOM      9  N   LIG    1       -2.428   1.039   0.019  0.00  0.00    -0.660 N 
ATOM     10  H   LIG    1       -2.418   0.073  -0.063  0.00  0.00    +0.410 HD
ATOM     11  O   LIG    1       -3.620   2.907   0.137  0.00  0.00    -0.490 OA
BRANCH   9  12
ATOM     12  C   LIG    1       -1.224   1.754   0.023  0.00  0.00    +0.140 A 
ATOM     13  C   LIG    1       -1.106   2.913   0.779  0.00  0.00    +0.050 A 
ATOM     14  C   LIG    1        0.085   3.613   0.786  0.00  0.00    +0.010 A 
ATOM     15  C   LIG    1        1.158   3.163   0.036  0.00  0.00    +0.090 A 
ATOM     16  C   LIG    1        1.041   2.010  -0.722  0.00  0.00    +0.010 A 
ATOM     17  F   LIG    1        2.322   3.849   0.044  0.00  0.00    -0.140 F 
ATOM     18  C   LIG    1       -0.147   1.306  -0.731  0.00  0.00    +0.030 A 
ENDBRANCH   9  12
ENDBRANCH   1   8
BRANCH   1  19
ATOM     19  O   LIG    1       -6.010   1.841   0.233  0.00  0.00    -0.330 OA
BRANCH  19  20
ATOM     20  C   LIG    1       -7.170   1.387  -0.283  0.00  0.00    +0.540 C 
ATOM     21  O   LIG    1       -7.242   0.250  -0.712  0.00  0.00    -0.490 OA
BRANCH  20  27
ATOM     22  C   LIG    1       -7.309   4.309   0.733  0.00  0.00    +0.330 C 
ATOM     23  N   LIG    1       -8.410   3.561   0.122  0.00  0.00    -0.420 N 
ATOM     24  C   LIG    1       -9.656   4.033  -0.095  0.00  0.00    +0.210 A 
ATOM     25  C   LIG    1      -10.402   3.059  -0.670  0.00  0.00    -0.060 A 
ATOM     26  C   LIG    1       -9.589   1.932  -0.826  0.00  0.00    +0.060 A 
ATOM     27  C   LIG    1       -8.345   2.261  -0.329  0.00  0.00    -0.050 A 
ENDBRANCH  20  27
ENDBRANCH  19  20
ENDBRANCH   1  19
TORSDOF 6
