REMARK  Name = ZINCvU00000007zj.0
REMARK                            x       y       z     vdW  Elec       q    Type
REMARK                         _______ _______ _______ _____ _____    ______ ____
ROOT
ATOM      1  C   LIG    1        1.378   1.917   0.133  0.00  0.00    +0.150 A 
ATOM      2  C   LIG    1        0.163   1.258   0.263  0.00  0.00    +0.060 A 
ATOM      3  C   LIG    1       -1.011   1.982   0.334  0.00  0.00    +0.030 A 
ATOM      4  C   LIG    1       -0.976   3.369   0.286  0.00  0.00    +0.140 A 
ATOM      5  C   LIG    1        0.239   4.029   0.156  0.00  0.00    +0.060 A 
ATOM      6  C   LIG    1        1.413   3.305   0.080  0.00  0.00    -0.050 A 
ATOM      7 CL   LIG    1        2.932   4.130  -0.083  0.00  0.00    -0.060 Cl
ENDROOT
BRANCH   1   9
ATOM      8  C   LIG    1        2.536  -0.119  -0.293  0.00  0.00    +0.510 C 
ATOM      9  N   LIG    1        2.568   1.182   0.056  0.00  0.00    -0.660 N 
ATOM     10  H   LIG    1        3.416   1.610   0.253  0.00  0.00    +0.410 HD
ATOM     11  O   LIG    1        1.490  -0.629  -0.636  0.00  0.00    -0.480 OA
BRANCH   8  12
ATOM     12  C   LIG    1        3.799  -0.941  -0.256  0.00  0.00    +0.280 C 
ATOM     13  C   LIG    1        4.357  -0.954   1.168  0.00  0.00    +0.080 C 
BRANCH  12  20
ATOM     14  C   LIG    1        5.061  -2.390  -2.688  0.00  0.00    +0.140 C 
ATOM     15  C   LIG    1        4.043  -2.955  -1.732  0.00  0.00    +0.080 A 
ATOM     16  C   LIG    1        3.509  -4.197  -1.777  0.00  0.00    -0.110 A 
ATOM     17  C   LIG    1        2.609  -4.318  -0.713  0.00  0.00    +0.070 A 
ATOM     18  N   LIG    1        2.608  -3.191  -0.049  0.00  0.00    -0.270 NA
ATOM     19  C   LIG    1        1.788  -5.538  -0.385  0.00  0.00    +0.160 C 
ATOM     20  N   LIG    1        3.501  -2.313  -0.676  0.00  0.00    -0.360 N 
ENDBRANCH  12  20
ENDBRANCH   8  12
ENDBRANCH   1   9
BRANCH   4  21
ATOM     21  N   LIG    1       -2.167   4.103   0.364  0.00  0.00    -0.670 N 
ATOM     22  H   LIG    1       -2.975   3.760  -0.049  0.00  0.00    +0.410 HD
ATOM     23  C   LIG    1       -2.189   5.285   1.012  0.00  0.00    +0.520 C 
ATOM     24  O   LIG    1       -1.161   5.753   1.453  0.00  0.00    -0.500 OA
BRANCH  23  25
ATOM     25  C   LIG    1       -3.491   6.023   1.187  0.00  0.00    -0.040 C 
ATOM     26  C   LIG    1       -4.499   5.117   1.896  0.00  0.00    +0.070 C 
ATOM     27  C   LIG    1       -4.040   6.422  -0.184  0.00  0.00    +0.080 C 
BRANCH  25  28
ATOM     28  C   LIG    1       -3.258   7.261   2.015  0.00  0.00    -0.070 A 
ATOM     29  C   LIG    1       -3.837   7.375   3.265  0.00  0.00    +0.020 A 
ATOM     30  C   LIG    1       -3.620   8.508   4.026  0.00  0.00    +0.000 A 
ATOM     31  C   LIG    1       -2.833   9.532   3.533  0.00  0.00    +0.000 A 
ATOM     32  C   LIG    1       -2.258   9.420   2.281  0.00  0.00    +0.000 A 
ATOM     33  C   LIG    1       -2.471   8.284   1.522  0.00  0.00    +0.030 A 
ENDBRANCH  25  28
ENDBRANCH  23  25
ENDBRANCH   4  21
TORSDOF 6
