REMARK  Name = ZINCrD000000BRQC.0
REMARK                            x       y       z     vdW  Elec       q    Type
REMARK                         _______ _______ _______ _____ _____    ______ ____
ROOT
ATOM      1  O   LIG    1        1.021   3.230  -1.830  0.00  0.00    -0.580 OA
ATOM      2  C   LIG    1        1.774   2.902  -0.933  0.00  0.00    +0.710 C 
ATOM      3  N   LIG    1        1.366   2.019  -0.000  0.00  0.00    -0.630 N 
ATOM      4  C   LIG    1       -0.020   1.531   0.013  0.00  0.00    +0.300 C 
ATOM      5  C   LIG    1       -0.003  -0.001   0.002  0.00  0.00    +0.030 C 
ATOM      6  C   LIG    1        0.853  -0.506   1.166  0.00  0.00    +0.100 C 
ATOM      7  C   LIG    1        2.289  -0.006   1.000  0.00  0.00    +0.030 C 
ATOM      8  C   LIG    1        2.299   1.526   1.022  0.00  0.00    +0.280 C 
ATOM      9  N   LIG    1        3.016   3.422  -0.872  0.00  0.00    -0.740 N 
ATOM     10  H   LIG    1        3.641   3.107  -0.200  0.00  0.00    +0.400 HD
ENDROOT
BRANCH   9  11
ATOM     11  C   LIG    1        3.422   4.462  -1.820  0.00  0.00    +0.260 C 
ATOM     12  C   LIG    1        4.547   5.299  -1.206  0.00  0.00    +0.020 C 
ATOM     13  C   LIG    1        4.777   6.557  -2.052  0.00  0.00    +0.120 C 
ATOM     14  C   LIG    1        4.926   6.136  -3.493  0.00  0.00    -0.240 A 
ATOM     15  C   LIG    1        5.432   6.842  -4.521  0.00  0.00    +0.240 A 
ATOM     16  N   LIG    1        5.367   6.062  -5.624  0.00  0.00    -0.480 N 
ATOM     17  H   LIG    1        5.662   6.309  -6.515  0.00  0.00    +0.440 HD
ATOM     18  N   LIG    1        4.800   4.833  -5.254  0.00  0.00    -0.290 NA
ATOM     19  C   LIG    1        4.535   4.878  -3.980  0.00  0.00    +0.090 A 
ATOM     20  C   LIG    1        3.912   3.807  -3.117  0.00  0.00    +0.120 C 
ENDBRANCH   9  11
BRANCH   6  21
ATOM     21  C   LIG    1        0.843  -2.013   1.179  0.00  0.00    +0.060 A 
ATOM     22  N   LIG    1        0.422  -2.740   2.158  0.00  0.00    -0.440 NA
ATOM     23  C   LIG    1        0.481  -4.048   2.003  0.00  0.00    -0.020 A 
ATOM     24  C   LIG    1        0.989  -4.445   0.833  0.00  0.00    -0.020 A 
ATOM     25  S   LIG    1        1.397  -3.006  -0.098  0.00  0.00    +0.200 S 
BRANCH  23  26
ATOM     26  C   LIG    1        0.019  -5.016   3.062  0.00  0.00    +0.550 C 
ATOM     27  F   LIG    1       -1.362  -4.886   3.241  0.00  0.00    -0.170 F 
ATOM     28  F   LIG    1        0.674  -4.737   4.266  0.00  0.00    -0.170 F 
ATOM     29  F   LIG    1        0.317  -6.322   2.661  0.00  0.00    -0.170 F 
ENDBRANCH  23  26
ENDBRANCH   6  21
TORSDOF 3
