REMARK  Name = ZINCrH00000No4v8.0
REMARK                            x       y       z     vdW  Elec       q    Type
REMARK                         _______ _______ _______ _____ _____    ______ ____
ROOT
ATOM      1  C   LIG    1        4.689   1.473  -0.162  0.00  0.00    +0.400 A 
ATOM      2  N   LIG    1        3.549   2.095  -0.155  0.00  0.00    -0.480 NA
ATOM      3  C   LIG    1        2.376   1.427  -0.025  0.00  0.00    +0.150 A 
ATOM      4  C   LIG    1        1.149   2.094  -0.017  0.00  0.00    +0.040 A 
ATOM      5  C   LIG    1       -0.017   1.376   0.116  0.00  0.00    +0.070 A 
ATOM      6  C   LIG    1        0.009  -0.007   0.244  0.00  0.00    +0.010 A 
ATOM      7  C   LIG    1        1.207  -0.689   0.239  0.00  0.00    +0.100 A 
ATOM      8  C   LIG    1        2.399   0.020   0.105  0.00  0.00    -0.190 A 
ATOM      9  C   LIG    1        3.705  -0.653   0.093  0.00  0.00    +0.540 A 
ATOM     10  O   LIG    1        3.795  -1.863   0.201  0.00  0.00    -0.500 OA
ATOM     11  N   LIG    1        4.805   0.124  -0.042  0.00  0.00    -0.410 N 
ENDROOT
BRANCH  11  12
ATOM     12  N   LIG    1        6.075  -0.468  -0.060  0.00  0.00    -0.270 NA
ATOM     13  C   LIG    1        6.415  -1.250  -1.045  0.00  0.00    +0.390 C 
BRANCH  13  14
ATOM     14  C   LIG    1        7.697  -1.958  -1.008  0.00  0.00    -0.020 A 
ATOM     15  C   LIG    1        8.174  -2.803  -1.969  0.00  0.00    +0.030 A 
ATOM     16  C   LIG    1        9.430  -3.252  -1.524  0.00  0.00    -0.060 A 
ATOM     17  C   LIG    1        9.660  -2.669  -0.329  0.00  0.00    +0.220 A 
ATOM     18  O   LIG    1        8.615  -1.884  -0.024  0.00  0.00    -0.150 OA
ENDBRANCH  13  14
ENDBRANCH  11  12
BRANCH   1  19
ATOM     19  C   LIG    1        5.948   2.289  -0.310  0.00  0.00    +0.310 C 
BRANCH  19  20
ATOM     20  O   LIG    1        5.608   3.673  -0.419  0.00  0.00    -0.280 OA
BRANCH  20  27
ATOM     21  C   LIG    1        4.957   6.413  -0.650  0.00  0.00    +0.090 C 
ATOM     22  C   LIG    1        6.378   5.910  -0.677  0.00  0.00    -0.110 A 
ATOM     23  C   LIG    1        7.424   6.801  -0.814  0.00  0.00    +0.050 A 
ATOM     24  C   LIG    1        8.727   6.339  -0.846  0.00  0.00    -0.030 A 
ATOM     25  C   LIG    1        8.987   4.986  -0.735  0.00  0.00    +0.040 A 
ATOM     26  C   LIG    1        7.944   4.091  -0.592  0.00  0.00    -0.080 A 
ATOM     27  C   LIG    1        6.636   4.551  -0.560  0.00  0.00    +0.120 A 
ENDBRANCH  20  27
ENDBRANCH  19  20
ENDBRANCH   1  19
TORSDOF 5
