REMARK  Name = ZINCpe000000YlCe.0
REMARK                            x       y       z     vdW  Elec       q    Type
REMARK                         _______ _______ _______ _____ _____    ______ ____
ROOT
ATOM      1  C   LIG    1        0.858  -0.479  -1.176  0.00  0.00    -0.010 C 
ATOM      2  C   LIG    1        2.242   0.168  -1.090  0.00  0.00    +0.030 C 
ATOM      3  C   LIG    1        2.103   1.689  -1.177  0.00  0.00    +0.010 C 
ATOM      4  C   LIG    1        1.261   2.189   0.002  0.00  0.00    +0.270 C 
ATOM      5  N   LIG    1       -0.018   1.465   0.010  0.00  0.00    -0.610 N 
ATOM      6  C   LIG    1       -1.187   2.136   0.019  0.00  0.00    +0.530 C 
ATOM      7  O   LIG    1       -2.236   1.527   0.021  0.00  0.00    -0.530 OA
ATOM      8  C   LIG    1        0.002  -0.004   0.002  0.00  0.00    +0.270 C 
ENDROOT
BRANCH   1   9
ATOM      9  C   LIG    1        1.001  -2.002  -1.123  0.00  0.00    +0.150 C 
BRANCH   9  15
ATOM     10  C   LIG    1       -1.041  -2.744   1.086  0.00  0.00    +0.330 C 
ATOM     11  N   LIG    1       -1.226  -2.957  -0.351  0.00  0.00    -0.460 N 
ATOM     12  C   LIG    1       -2.322  -3.510  -0.956  0.00  0.00    +0.110 A 
ATOM     13  C   LIG    1       -2.073  -3.522  -2.279  0.00  0.00    +0.140 A 
ATOM     14  N   LIG    1       -0.861  -2.984  -2.478  0.00  0.00    -0.490 NA
ATOM     15  C   LIG    1       -0.349  -2.640  -1.328  0.00  0.00    +0.200 A 
ENDBRANCH   9  15
ENDBRANCH   1   9
BRANCH   6  16
ATOM     16  C   LIG    1       -1.191   3.643   0.028  0.00  0.00    +0.210 C 
BRANCH  16  17
ATOM     17  C   LIG    1       -2.613   4.141   0.037  0.00  0.00    +0.290 A 
ATOM     18  N   LIG    1       -3.321   4.386   1.114  0.00  0.00    -0.320 NA
ATOM     19  N   LIG    1       -4.579   4.829   0.686  0.00  0.00    -0.320 N 
ATOM     20  C   LIG    1       -5.703   5.222   1.342  0.00  0.00    +0.350 A 
ATOM     21  C   LIG    1       -6.787   5.606   0.620  0.00  0.00    -0.040 A 
ATOM     22  C   LIG    1       -6.719   5.587  -0.779  0.00  0.00    +0.400 A 
ATOM     23  N   LIG    1       -5.618   5.203  -1.384  0.00  0.00    -0.450 NA
ATOM     24  C   LIG    1       -4.545   4.823  -0.681  0.00  0.00    +0.440 A 
ATOM     25  N   LIG    1       -3.337   4.406  -1.042  0.00  0.00    -0.510 NA
ENDBRANCH  16  17
ENDBRANCH   6  16
TORSDOF 4
