REMARK  Name = ZINCnE000001PB21.1
REMARK                            x       y       z     vdW  Elec       q    Type
REMARK                         _______ _______ _______ _____ _____    ______ ____
ROOT
ATOM      1  S   LIG    1        3.001   1.035  -1.731  0.00  0.00    +2.530 S 
ATOM      2  O   LIG    1        3.339   2.263  -2.361  0.00  0.00    -1.020 OA
ATOM      3  O   LIG    1        2.133   0.103  -2.361  0.00  0.00    -1.010 OA
ENDROOT
BRANCH   1   4
ATOM      4  C   LIG    1        2.489   1.321  -0.014  0.00  0.00    -0.310 C 
BRANCH   4   9
ATOM      5  C   LIG    1       -2.556   4.142   0.049  0.00  0.00    +0.100 C 
ATOM      6  C   LIG    1       -1.242   3.405   0.032  0.00  0.00    -0.070 A 
ATOM      7  C   LIG    1       -0.054   4.112   0.025  0.00  0.00    +0.000 A 
ATOM      8  C   LIG    1        1.153   3.438   0.010  0.00  0.00    +0.060 A 
ATOM      9  C   LIG    1        1.173   2.056   0.002  0.00  0.00    -0.110 A 
ATOM     10  C   LIG    1       -0.016   1.347   0.009  0.00  0.00    +0.110 A 
ATOM     11  F   LIG    1        0.002  -0.004   0.002  0.00  0.00    -0.130 F 
ATOM     12  C   LIG    1       -1.224   2.023   0.019  0.00  0.00    -0.020 A 
ENDBRANCH   4   9
ENDBRANCH   1   4
BRANCH   1  13
ATOM     13  N   LIG    1        4.442   0.230  -1.603  0.00  0.00    -1.070 NA
BRANCH  13  14
ATOM     14  C   LIG    1        5.133  -0.156  -2.758  0.00  0.00    +0.380 A 
ATOM     15  N   LIG    1        4.745   0.054  -3.994  0.00  0.00    -0.410 NA
ATOM     16  N   LIG    1        5.714  -0.482  -4.853  0.00  0.00    -0.500 N 
ATOM     17  H   LIG    1        5.688  -0.467  -5.822  0.00  0.00    +0.420 HD
ATOM     18  C   LIG    1        6.689  -1.026  -4.095  0.00  0.00    +0.080 A 
ATOM     19  C   LIG    1        6.358  -0.840  -2.797  0.00  0.00    -0.150 A 
BRANCH  18  20
ATOM     20  C   LIG    1        7.927  -1.718  -4.604  0.00  0.00    +0.070 C 
ATOM     21  C   LIG    1        9.010  -0.676  -4.952  0.00  0.00    +0.020 C 
ATOM     22  C   LIG    1        9.696  -1.250  -6.218  0.00  0.00    +0.010 C 
ATOM     23  C   LIG    1        8.510  -1.866  -7.001  0.00  0.00    -0.010 C 
ATOM     24  C   LIG    1        7.610  -2.475  -5.906  0.00  0.00    +0.010 C 
ENDBRANCH  18  20
ENDBRANCH  13  14
ENDBRANCH   1  13
TORSDOF 5
