REMARK  Name = ZINCpe00000yWFLb.1
REMARK                            x       y       z     vdW  Elec       q    Type
REMARK                         _______ _______ _______ _____ _____    ______ ____
ROOT
ATOM      1  C   LIG    1       -1.697   4.014  -0.003  0.00  0.00    +0.600 C 
ATOM      2  N   LIG    1       -3.026   3.829   0.122  0.00  0.00    -0.600 N 
ATOM      3  C   LIG    1       -3.594   2.476   0.220  0.00  0.00    +0.300 C 
ATOM      4  C   LIG    1       -4.518   2.429   1.447  0.00  0.00    +0.170 C 
ATOM      5  N   LIG    1       -5.506   3.511   1.353  0.00  0.00    -0.540 NA
ATOM      6  C   LIG    1       -4.857   4.829   1.383  0.00  0.00    +0.170 C 
ATOM      7  C   LIG    1       -3.947   4.976   0.159  0.00  0.00    +0.290 C 
ATOM      8  O   LIG    1       -0.957   3.055  -0.110  0.00  0.00    -0.530 OA
ENDROOT
BRANCH   1  15
ATOM      9  C   LIG    1        1.449   9.006  -1.061  0.00  0.00    +0.070 C 
ATOM     10  C   LIG    1        1.542   7.873  -0.036  0.00  0.00    +0.240 C 
ATOM     11  O   LIG    1        2.600   6.976  -0.400  0.00  0.00    -0.360 OA
ATOM     12  C   LIG    1        2.643   5.767   0.363  0.00  0.00    +0.140 C 
ATOM     13  C   LIG    1        1.452   4.873  -0.018  0.00  0.00    +0.110 C 
ATOM     14  C   LIG    1        0.218   5.732  -0.017  0.00  0.00    -0.140 A 
ATOM     15  C   LIG    1       -1.139   5.382  -0.010  0.00  0.00    +0.010 A 
ATOM     16  N   LIG    1       -1.822   6.515  -0.004  0.00  0.00    -0.260 NA
ATOM     17  N   LIG    1       -1.015   7.521  -0.016  0.00  0.00    -0.360 N 
ATOM     18  H   LIG    1       -1.287   8.452  -0.016  0.00  0.00    +0.450 HD
ATOM     19  C   LIG    1        3.950   5.027   0.072  0.00  0.00    +0.080 C 
ATOM     20  C   LIG    1        0.254   7.091  -0.023  0.00  0.00    -0.020 A 
ENDBRANCH   1  15
BRANCH   5  21
ATOM     21  C   LIG    1       -6.516   3.397   2.413  0.00  0.00    +0.200 C 
BRANCH  21  22
ATOM     22  C   LIG    1       -7.775   4.164   2.004  0.00  0.00    +0.300 C 
ATOM     23  F   LIG    1       -8.207   3.716   0.751  0.00  0.00    -0.180 F 
ATOM     24  F   LIG    1       -7.486   5.531   1.936  0.00  0.00    -0.190 F 
BRANCH  22  25
ATOM     25  C   LIG    1       -8.876   3.926   3.039  0.00  0.00    +0.190 C 
BRANCH  25  26
ATOM     26  O   LIG    1       -8.434   4.383   4.319  0.00  0.00    -0.560 OA
ATOM     27  H   LIG    1       -9.083   4.264   5.025  0.00  0.00    +0.390 HD
ENDBRANCH  25  26
ENDBRANCH  22  25
ENDBRANCH  21  22
ENDBRANCH   5  21
TORSDOF 5
