REMARK  Name = ZINCpe00000yWFLb.0
REMARK                            x       y       z     vdW  Elec       q    Type
REMARK                         _______ _______ _______ _____ _____    ______ ____
ROOT
ATOM      1  C   LIG    1        3.478   0.903  -0.062  0.00  0.00    +0.590 C 
ATOM      2  N   LIG    1        4.091   2.098   0.051  0.00  0.00    -0.610 N 
ATOM      3  C   LIG    1        3.311   3.340   0.161  0.00  0.00    +0.300 C 
ATOM      4  C   LIG    1        3.824   4.125   1.379  0.00  0.00    +0.190 C 
ATOM      5  N   LIG    1        5.276   4.313   1.257  0.00  0.00    -0.530 NA
ATOM      6  C   LIG    1        5.983   3.026   1.276  0.00  0.00    +0.190 C 
ATOM      7  C   LIG    1        5.559   2.195   0.060  0.00  0.00    +0.270 C 
ATOM      8  O   LIG    1        2.267   0.848  -0.161  0.00  0.00    -0.510 OA
ENDROOT
BRANCH   1  15
ATOM      9  C   LIG    1        5.526  -4.716  -0.618  0.00  0.00    +0.070 C 
ATOM     10  C   LIG    1        4.934  -3.886   0.523  0.00  0.00    +0.260 C 
ATOM     11  O   LIG    1        3.560  -4.247   0.725  0.00  0.00    -0.370 OA
ATOM     12  C   LIG    1        2.845  -3.404   1.631  0.00  0.00    +0.150 C 
ATOM     13  C   LIG    1        2.583  -2.038   0.976  0.00  0.00    +0.110 C 
ATOM     14  C   LIG    1        3.880  -1.569   0.376  0.00  0.00    -0.120 A 
ATOM     15  C   LIG    1        4.273  -0.335  -0.066  0.00  0.00    -0.030 A 
ATOM     16  N   LIG    1        5.561  -0.489  -0.511  0.00  0.00    -0.400 N 
ATOM     17  H   LIG    1        6.110   0.218  -0.885  0.00  0.00    +0.450 HD
ATOM     18  N   LIG    1        5.931  -1.714  -0.358  0.00  0.00    -0.240 NA
ATOM     19  C   LIG    1        1.510  -4.061   1.988  0.00  0.00    +0.060 C 
ATOM     20  C   LIG    1        4.976  -2.421   0.166  0.00  0.00    -0.000 A 
ENDBRANCH   1  15
BRANCH   5  21
ATOM     21  C   LIG    1        5.781   5.207   2.308  0.00  0.00    +0.210 C 
BRANCH  21  22
ATOM     22  C   LIG    1        7.124   5.796   1.873  0.00  0.00    +0.300 C 
ATOM     23  F   LIG    1        6.983   6.408   0.623  0.00  0.00    -0.180 F 
ATOM     24  F   LIG    1        8.076   4.774   1.788  0.00  0.00    -0.190 F 
BRANCH  22  25
ATOM     25  C   LIG    1        7.582   6.834   2.900  0.00  0.00    +0.200 C 
BRANCH  25  26
ATOM     26  O   LIG    1        7.726   6.209   4.177  0.00  0.00    -0.560 OA
ATOM     27  H   LIG    1        8.014   6.809   4.878  0.00  0.00    +0.400 HD
ENDBRANCH  25  26
ENDBRANCH  22  25
ENDBRANCH  21  22
ENDBRANCH   5  21
TORSDOF 5
