REMARK  Name = ZINCrD000000fFKR.0
REMARK                            x       y       z     vdW  Elec       q    Type
REMARK                         _______ _______ _______ _____ _____    ______ ____
ROOT
ATOM      1  C   LIG    1       -0.166   7.036   1.357  0.00  0.00    +0.520 C 
ATOM      2  N   LIG    1        0.700   6.144   0.835  0.00  0.00    -0.720 N 
ATOM      3  H   LIG    1        1.646   6.356   0.791  0.00  0.00    +0.410 HD
ATOM      4  O   LIG    1       -1.349   6.771   1.411  0.00  0.00    -0.530 OA
ENDROOT
BRANCH   2   5
ATOM      5  C   LIG    1        0.213   4.856   0.335  0.00  0.00    +0.340 C 
ATOM      6  C   LIG    1       -0.263   5.018  -1.110  0.00  0.00    +0.060 C 
BRANCH   5   7
ATOM      7  C   LIG    1        1.329   3.844   0.386  0.00  0.00    +0.270 A 
ATOM      8  N   LIG    1        2.597   4.130   0.355  0.00  0.00    -0.480 NA
ATOM      9  C   LIG    1        3.325   2.986   0.419  0.00  0.00    +0.050 A 
ATOM     10  C   LIG    1        4.696   2.715   0.422  0.00  0.00    +0.070 A 
ATOM     11  C   LIG    1        5.134   1.423   0.497  0.00  0.00    +0.000 A 
ATOM     12  C   LIG    1        4.231   0.372   0.572  0.00  0.00    +0.030 A 
ATOM     13  C   LIG    1        2.873   0.616   0.570  0.00  0.00    +0.010 A 
ATOM     14  C   LIG    1        2.410   1.922   0.494  0.00  0.00    +0.050 A 
ATOM     15  N   LIG    1        1.155   2.497   0.466  0.00  0.00    -0.590 N 
ATOM     16  H   LIG    1        0.307   2.027   0.498  0.00  0.00    +0.430 HD
ENDBRANCH   5   7
ENDBRANCH   2   5
BRANCH   1  17
ATOM     17  C   LIG    1        0.334   8.361   1.872  0.00  0.00    +0.060 C 
BRANCH  17  18
ATOM     18  C   LIG    1       -0.844   9.178   2.406  0.00  0.00    +0.310 C 
BRANCH  18  19
ATOM     19  C   LIG    1       -0.330  10.449   3.031  0.00  0.00    -0.100 A 
ATOM     20  C   LIG    1        0.033  11.516   2.231  0.00  0.00    +0.020 A 
ATOM     21  C   LIG    1        0.500  12.684   2.805  0.00  0.00    +0.000 A 
ATOM     22  C   LIG    1        0.612  12.781   4.179  0.00  0.00    -0.080 A 
ATOM     23  C   LIG    1        0.254  11.712   4.980  0.00  0.00    +0.000 A 
ATOM     24  C   LIG    1        1.125  14.053   4.805  0.00  0.00    +0.090 C 
ATOM     25  C   LIG    1       -0.217  10.546   4.406  0.00  0.00    +0.020 A 
ENDBRANCH  18  19
BRANCH  18  28
ATOM     26  C   LIG    1       -4.005   9.981   0.405  0.00  0.00    +0.090 C 
ATOM     27  C   LIG    1       -3.052   9.752   1.549  0.00  0.00    +0.520 C 
ATOM     28  N   LIG    1       -1.749   9.508   1.302  0.00  0.00    -0.720 N 
ATOM     29  H   LIG    1       -1.411   9.551   0.394  0.00  0.00    +0.400 HD
ATOM     30  O   LIG    1       -3.456   9.787   2.692  0.00  0.00    -0.540 OA
ENDBRANCH  18  28
ENDBRANCH  17  18
ENDBRANCH   1  17
TORSDOF 6
