REMARK  Name = ZINCrH000004rg1j.0
REMARK                            x       y       z     vdW  Elec       q    Type
REMARK                         _______ _______ _______ _____ _____    ______ ____
ROOT
ATOM      1  C   LIG    1        2.125   0.807  -0.548  0.00  0.00    +0.240 C 
ATOM      2  C   LIG    1        1.176  -0.374  -0.842  0.00  0.00    +0.030 C 
ATOM      3  C   LIG    1       -0.044  -0.075   0.068  0.00  0.00    +0.040 C 
ATOM      4  C   LIG    1       -0.105   1.472   0.007  0.00  0.00    +0.240 C 
ATOM      5  N   LIG    1        1.304   1.905  -0.017  0.00  0.00    -0.630 N 
ATOM      6  C   LIG    1        1.763   3.108   0.380  0.00  0.00    +0.730 C 
ATOM      7  N   LIG    1        0.922   3.998   0.944  0.00  0.00    -0.740 N 
ATOM      8  H   LIG    1       -0.014   3.772   1.063  0.00  0.00    +0.400 HD
ATOM      9  O   LIG    1        2.936   3.391   0.230  0.00  0.00    -0.580 OA
ENDROOT
BRANCH   1  10
ATOM     10  C   LIG    1        2.817   1.252  -1.838  0.00  0.00    +0.070 C 
BRANCH  10  15
ATOM     11  C   LIG    1        6.281  -2.974  -3.720  0.00  0.00    +0.090 C 
ATOM     12  C   LIG    1        5.378  -1.871  -3.230  0.00  0.00    -0.090 A 
ATOM     13  C   LIG    1        4.094  -1.756  -3.729  0.00  0.00    +0.000 A 
ATOM     14  C   LIG    1        3.266  -0.745  -3.279  0.00  0.00    +0.010 A 
ATOM     15  C   LIG    1        3.721   0.150  -2.329  0.00  0.00    -0.080 A 
ATOM     16  C   LIG    1        5.006   0.038  -1.833  0.00  0.00    +0.010 A 
ATOM     17  C   LIG    1        5.833  -0.976  -2.280  0.00  0.00    +0.000 A 
ENDBRANCH  10  15
ENDBRANCH   1  10
BRANCH   7  18
ATOM     18  C   LIG    1        1.421   5.306   1.376  0.00  0.00    +0.270 C 
BRANCH  18  19
ATOM     19  C   LIG    1        0.272   6.117   1.977  0.00  0.00    +0.300 C 
BRANCH  19  20
ATOM     20  N   LIG    1        0.771   7.425   2.409  0.00  0.00    -0.490 N 
ATOM     21  C   LIG    1        1.178   7.758   3.664  0.00  0.00    +0.470 A 
ATOM     22  N   LIG    1        1.562   9.001   3.694  0.00  0.00    -0.490 NA
ATOM     23  C   LIG    1        1.420   9.553   2.462  0.00  0.00    +0.040 A 
ATOM     24  C   LIG    1        1.670  10.825   1.941  0.00  0.00    +0.070 A 
ATOM     25  C   LIG    1        1.418  11.082   0.623  0.00  0.00    +0.000 A 
ATOM     26  C   LIG    1        0.915  10.092  -0.208  0.00  0.00    +0.030 A 
ATOM     27  C   LIG    1        0.660   8.829   0.284  0.00  0.00    +0.010 A 
ATOM     28  C   LIG    1        0.910   8.549   1.620  0.00  0.00    +0.050 A 
ENDBRANCH  19  20
ENDBRANCH  18  19
ENDBRANCH   7  18
TORSDOF 5
