REMARK  Name = ZINCvU00000008LO.0
REMARK                            x       y       z     vdW  Elec       q    Type
REMARK                         _______ _______ _______ _____ _____    ______ ____
ROOT
ATOM      1  N   LIG    1        7.470   6.565  -3.603  0.00  0.00    -0.530 NA
ATOM      2  C   LIG    1        6.493   7.417  -2.910  0.00  0.00    +0.200 C 
ATOM      3  C   LIG    1        6.373   6.967  -1.451  0.00  0.00    +0.200 C 
ATOM      4  N   LIG    1        5.963   5.557  -1.408  0.00  0.00    -0.540 NA
ATOM      5  C   LIG    1        6.940   4.705  -2.102  0.00  0.00    +0.180 C 
ATOM      6  C   LIG    1        7.060   5.155  -3.560  0.00  0.00    +0.190 C 
ENDROOT
BRANCH   1   7
ATOM      7  C   LIG    1        7.670   7.013  -4.988  0.00  0.00    +0.280 C 
BRANCH   7  11
ATOM      8  C   LIG    1       10.185   4.515  -6.841  0.00  0.00    -0.160 A 
ATOM      9  C   LIG    1        8.903   4.140  -7.026  0.00  0.00    +0.030 A 
ATOM     10  C   LIG    1        7.971   4.954  -6.416  0.00  0.00    +0.010 A 
ATOM     11  C   LIG    1        8.479   5.986  -5.737  0.00  0.00    -0.180 A 
ATOM     12  S   LIG    1       10.233   5.970  -5.854  0.00  0.00    +0.150 S 
BRANCH   8  19
ATOM     13 CL   LIG    1       10.296   1.538  -6.354  0.00  0.00    -0.060 Cl
ATOM     14  C   LIG    1       11.508   2.436  -7.214  0.00  0.00    -0.020 A 
ATOM     15  C   LIG    1       12.611   1.787  -7.733  0.00  0.00    +0.030 A 
ATOM     16  C   LIG    1       13.580   2.503  -8.413  0.00  0.00    +0.040 A 
ATOM     17  C   LIG    1       13.449   3.869  -8.583  0.00  0.00    +0.020 A 
ATOM     18  C   LIG    1       12.348   4.529  -8.075  0.00  0.00    +0.030 A 
ATOM     19  C   LIG    1       11.367   3.814  -7.388  0.00  0.00    -0.010 A 
ENDBRANCH   8  19
ENDBRANCH   7  11
ENDBRANCH   1   7
BRANCH   4  20
ATOM     20  C   LIG    1        5.763   5.109  -0.024  0.00  0.00    +0.350 C 
BRANCH  20  21
ATOM     21  C   LIG    1        5.113   3.749  -0.025  0.00  0.00    +0.180 A 
ATOM     22  N   LIG    1        5.730   2.600  -0.036  0.00  0.00    -0.280 NA
ATOM     23  N   LIG    1        4.865   1.648  -0.027  0.00  0.00    -0.270 NA
ATOM     24  C   LIG    1        3.657   2.160  -0.020  0.00  0.00    +0.210 A 
ATOM     25  O   LIG    1        3.792   3.502  -0.014  0.00  0.00    -0.210 OA
BRANCH  24  26
ATOM     26  C   LIG    1        2.385   1.407  -0.013  0.00  0.00    -0.030 A 
ATOM     27  C   LIG    1        1.167   2.088   0.002  0.00  0.00    +0.050 A 
ATOM     28  C   LIG    1       -0.017   1.379   0.010  0.00  0.00    +0.010 A 
ATOM     29  C   LIG    1        0.002  -0.004   0.002  0.00  0.00    +0.040 A 
ATOM     30  C   LIG    1        1.206  -0.685  -0.013  0.00  0.00    +0.020 A 
ATOM     31  C   LIG    1        2.397   0.011  -0.020  0.00  0.00    +0.070 A 
ENDBRANCH  24  26
ENDBRANCH  20  21
ENDBRANCH   4  20
TORSDOF 6
