REMARK  Name = ZINCnE000001TyDJ.0
REMARK                            x       y       z     vdW  Elec       q    Type
REMARK                         _______ _______ _______ _____ _____    ______ ____
ROOT
ATOM      1  C   LIG    1        0.557  -0.462   1.601  0.00  0.00    -0.030 C 
ATOM      2  C   LIG    1       -0.349   0.078   0.491  0.00  0.00    +0.010 C 
ATOM      3  C   LIG    1       -0.336   1.609   0.521  0.00  0.00    +0.000 C 
ATOM      4  C   LIG    1        1.090   2.108   0.267  0.00  0.00    +0.250 C 
ATOM      5  N   LIG    1        1.992   1.478   1.241  0.00  0.00    -0.610 N 
ATOM      6  C   LIG    1        2.803   2.229   2.011  0.00  0.00    +0.520 C 
ATOM      7  O   LIG    1        3.471   1.707   2.879  0.00  0.00    -0.540 OA
ATOM      8  C   LIG    1        1.993   0.014   1.359  0.00  0.00    +0.270 C 
ENDROOT
BRANCH   6   9
ATOM      9  C   LIG    1        2.881   3.719   1.795  0.00  0.00    +0.000 C 
ATOM     10  C   LIG    1        3.472   4.003   0.412  0.00  0.00    +0.040 C 
ATOM     11  C   LIG    1        4.875   3.400   0.323  0.00  0.00    +0.020 C 
ATOM     12  C   LIG    1        5.768   4.026   1.397  0.00  0.00    +0.020 C 
ATOM     13  C   LIG    1        5.178   3.742   2.780  0.00  0.00    +0.000 C 
ATOM     14  C   LIG    1        3.774   4.344   2.869  0.00  0.00    +0.060 C 
BRANCH  13  15
ATOM     15  C   LIG    1        6.070   4.367   3.853  0.00  0.00    +0.450 C 
ATOM     16  F   LIG    1        7.354   3.816   3.772  0.00  0.00    -0.190 F 
ATOM     17  F   LIG    1        5.530   4.108   5.118  0.00  0.00    -0.180 F 
ATOM     18  F   LIG    1        6.143   5.750   3.652  0.00  0.00    -0.190 F 
ENDBRANCH  13  15
ENDBRANCH   6   9
BRANCH   1  19
ATOM     19  C   LIG    1        0.517  -1.992   1.592  0.00  0.00    +0.030 C 
BRANCH  19  20
ATOM     20  C   LIG    1       -0.892  -2.467   1.953  0.00  0.00    -0.070 C 
BRANCH  20  22
ATOM     21  O   LIG    1        0.074  -4.608   1.675  0.00  0.00    -0.700 OA
ATOM     22  C   LIG    1       -0.932  -3.974   1.944  0.00  0.00    +0.490 C 
ATOM     23  O   LIG    1       -1.969  -4.558   2.207  0.00  0.00    -0.710 OA
ENDBRANCH  20  22
ENDBRANCH  19  20
ENDBRANCH   1  19
TORSDOF 5
