REMARK  Name = ZINCnE000001OcEE.0
REMARK                            x       y       z     vdW  Elec       q    Type
REMARK                         _______ _______ _______ _____ _____    ______ ____
ROOT
ATOM      1  C   LIG    1       -3.141  -0.012   3.517  0.00  0.00    +0.300 C 
ENDROOT
BRANCH   1   2
ATOM      2  C   LIG    1       -2.967   0.118   5.008  0.00  0.00    -0.100 A 
ATOM      3  C   LIG    1       -2.106  -0.728   5.681  0.00  0.00    +0.020 A 
ATOM      4  C   LIG    1       -1.943  -0.605   7.048  0.00  0.00    +0.000 A 
ATOM      5  C   LIG    1       -2.650   0.357   7.744  0.00  0.00    -0.070 A 
ATOM      6  C   LIG    1       -3.516   1.200   7.073  0.00  0.00    +0.000 A 
ATOM      7  C   LIG    1       -3.675   1.081   5.705  0.00  0.00    +0.030 A 
BRANCH   5   8
ATOM      8  C   LIG    1       -2.477   0.488   9.236  0.00  0.00    +0.030 C 
ATOM      9  C   LIG    1       -1.014   0.802   9.553  0.00  0.00    +0.020 C 
ATOM     10  C   LIG    1       -0.838   0.935  11.068  0.00  0.00    +0.000 C 
ATOM     11  C   LIG    1       -1.236  -0.378  11.744  0.00  0.00    +0.000 C 
ATOM     12  C   LIG    1       -2.699  -0.693  11.426  0.00  0.00    +0.000 C 
ATOM     13  C   LIG    1       -2.875  -0.825   9.912  0.00  0.00    +0.010 C 
ENDBRANCH   5   8
ENDBRANCH   1   2
BRANCH   1  15
ATOM     14  C   LIG    1       -2.136   0.891   1.489  0.00  0.00    +0.570 C 
ATOM     15  N   LIG    1       -2.168   0.845   2.836  0.00  0.00    -0.720 N 
ATOM     16  H   LIG    1       -1.546   1.380   3.353  0.00  0.00    +0.410 HD
ATOM     17  O   LIG    1       -2.914   0.222   0.841  0.00  0.00    -0.560 OA
BRANCH  14  21
ATOM     18  C   LIG    1       -0.830   3.102  -1.445  0.00  0.00    +0.060 C 
ATOM     19  C   LIG    1       -1.150   1.781  -0.743  0.00  0.00    -0.010 C 
ATOM     20  C   LIG    1       -0.013   1.086   0.008  0.00  0.00    +0.040 C 
ATOM     21  C   LIG    1       -1.136   1.773   0.788  0.00  0.00    -0.220 C 
BRANCH  21  22
ATOM     22  C   LIG    1       -0.806   3.066   1.487  0.00  0.00    +0.530 C 
ATOM     23  O   LIG    1       -1.506   4.049   1.313  0.00  0.00    -0.680 OA
ATOM     24  O   LIG    1        0.160   3.130   2.228  0.00  0.00    -0.690 OA
ENDBRANCH  21  22
ENDBRANCH  14  21
ENDBRANCH   1  15
TORSDOF 5
