REMARK  Name = ZINCrg000000rt8r.0
REMARK                            x       y       z     vdW  Elec       q    Type
REMARK                         _______ _______ _______ _____ _____    ______ ____
ROOT
ATOM      1  N   LIG    1       -1.433  -2.562   0.308  0.00  0.00    -0.520 NA
ATOM      2  C   LIG    1       -1.895  -2.813   1.680  0.00  0.00    +0.180 C 
ATOM      3  C   LIG    1       -3.058  -3.810   1.650  0.00  0.00    +0.280 C 
ATOM      4  N   LIG    1       -2.629  -5.006   0.909  0.00  0.00    -0.630 N 
ATOM      5  C   LIG    1       -2.028  -4.823  -0.421  0.00  0.00    +0.320 C 
ATOM      6  C   LIG    1       -2.782  -6.238   1.435  0.00  0.00    +0.720 C 
ATOM      7  N   LIG    1       -3.505  -6.405   2.560  0.00  0.00    -0.640 N 
ATOM      8  C   LIG    1       -4.470  -5.385   2.999  0.00  0.00    +0.250 C 
ATOM      9  C   LIG    1       -5.809  -6.083   3.284  0.00  0.00    +0.220 C 
ATOM     10  O   LIG    1       -5.588  -7.175   4.181  0.00  0.00    -0.380 OA
ATOM     11  C   LIG    1       -4.737  -8.198   3.658  0.00  0.00    +0.220 C 
ATOM     12  C   LIG    1       -3.346  -7.610   3.390  0.00  0.00    +0.270 C 
ATOM     13  O   LIG    1       -2.269  -7.198   0.894  0.00  0.00    -0.580 OA
ATOM     14  C   LIG    1       -0.905  -3.786  -0.309  0.00  0.00    +0.170 C 
ENDROOT
BRANCH   1  15
ATOM     15  C   LIG    1       -0.436  -1.484   0.278  0.00  0.00    +0.210 C 
BRANCH  15  26
ATOM     16  C   LIG    1       -1.980   2.697   0.156  0.00  0.00    +0.050 C 
ATOM     17  C   LIG    1       -0.873   2.262   1.118  0.00  0.00    +0.230 C 
ATOM     18  C   LIG    1        0.332   3.212   1.023  0.00  0.00    +0.090 C 
ATOM     19  C   LIG    1        1.476   2.332   0.569  0.00  0.00    -0.130 A 
ATOM     20  C   LIG    1        2.798   2.631   0.302  0.00  0.00    +0.060 A 
ATOM     21  C   LIG    1        3.665   1.636  -0.108  0.00  0.00    -0.010 A 
ATOM     22  C   LIG    1        3.207   0.339  -0.251  0.00  0.00    +0.050 A 
ATOM     23  C   LIG    1        1.888   0.036   0.014  0.00  0.00    -0.030 A 
ATOM     24  C   LIG    1        1.005   1.037   0.424  0.00  0.00    +0.140 A 
ATOM     25  N   LIG    1       -0.355   0.945   0.735  0.00  0.00    -0.550 N 
ATOM     26  C   LIG    1       -1.084  -0.188   0.689  0.00  0.00    +0.530 C 
ATOM     27  O   LIG    1       -2.261  -0.164   0.979  0.00  0.00    -0.500 OA
ENDBRANCH  15  26
ENDBRANCH   1  15
TORSDOF 2
