REMARK  Name = ZINCrD00000hQ4oR.0
REMARK                            x       y       z     vdW  Elec       q    Type
REMARK                         _______ _______ _______ _____ _____    ______ ____
ROOT
ATOM      1  C   LIG    1        1.611   3.964  -4.216  0.00  0.00    +0.550 C 
ATOM      2  N   LIG    1        0.345   3.955  -4.676  0.00  0.00    -0.600 N 
ATOM      3  O   LIG    1        2.147   2.923  -3.887  0.00  0.00    -0.540 OA
ENDROOT
BRANCH   1   5
ATOM      4  C   LIG    1        3.597   5.243  -3.658  0.00  0.00    +0.140 C 
ATOM      5  C   LIG    1        2.347   5.234  -4.112  0.00  0.00    -0.090 C 
ENDBRANCH   1   5
BRANCH   2   6
ATOM      6  C   LIG    1       -0.388   2.691  -4.780  0.00  0.00    +0.330 C 
BRANCH   6   7
ATOM      7  C   LIG    1       -0.186   2.105  -6.155  0.00  0.00    -0.130 A 
ATOM      8  C   LIG    1        0.836   1.202  -6.377  0.00  0.00    +0.070 A 
ATOM      9  C   LIG    1        1.024   0.664  -7.635  0.00  0.00    -0.020 A 
ATOM     10  C   LIG    1        0.184   1.032  -8.677  0.00  0.00    +0.170 A 
ATOM     11  C   LIG    1       -0.842   1.939  -8.451  0.00  0.00    -0.130 A 
ATOM     12  C   LIG    1       -1.754   2.338  -9.582  0.00  0.00    +0.090 C 
ATOM     13  C   LIG    1       -0.963   2.361 -10.891  0.00  0.00    +0.070 C 
ATOM     14  C   LIG    1       -0.169   1.090 -11.032  0.00  0.00    +0.520 C 
ATOM     15  O   LIG    1       -0.011   0.601 -12.130  0.00  0.00    -0.520 OA
ATOM     16  N   LIG    1        0.369   0.492  -9.954  0.00  0.00    -0.560 N 
ATOM     17  C   LIG    1        1.154  -0.735 -10.118  0.00  0.00    +0.310 C 
ATOM     18  C   LIG    1       -1.026   2.473  -7.191  0.00  0.00    +0.060 A 
ENDBRANCH   6   7
ENDBRANCH   2   6
BRANCH   2  19
ATOM     19  C   LIG    1       -0.300   5.210  -5.072  0.00  0.00    +0.330 C 
BRANCH  19  20
ATOM     20  C   LIG    1       -1.067   5.771  -3.903  0.00  0.00    -0.150 A 
ATOM     21  C   LIG    1       -2.356   5.337  -3.651  0.00  0.00    +0.060 A 
ATOM     22  C   LIG    1       -3.059   5.845  -2.576  0.00  0.00    -0.080 A 
ATOM     23  C   LIG    1       -2.477   6.802  -1.757  0.00  0.00    +0.130 A 
ATOM     24  C   LIG    1       -1.186   7.240  -2.016  0.00  0.00    -0.020 A 
ATOM     25  C   LIG    1       -0.484   6.723  -3.088  0.00  0.00    +0.070 A 
BRANCH  23  26
ATOM     26  O   LIG    1       -3.169   7.309  -0.704  0.00  0.00    -0.320 OA
ATOM     27  C   LIG    1       -4.493   6.811  -0.497  0.00  0.00    +0.250 C 
ENDBRANCH  23  26
ENDBRANCH  19  20
ENDBRANCH   2  19
TORSDOF 6
