REMARK  Name = ZINCrD000000Arxu.0
REMARK                            x       y       z     vdW  Elec       q    Type
REMARK                         _______ _______ _______ _____ _____    ______ ____
ROOT
ATOM      1  C   LIG    1        2.511   0.344   0.601  0.00  0.00    -0.090 A 
ATOM      2  C   LIG    1        1.401  -0.459   0.406  0.00  0.00    +0.020 A 
ATOM      3  C   LIG    1        0.158   0.110   0.218  0.00  0.00    +0.040 A 
ATOM      4  C   LIG    1        0.022   1.499   0.226  0.00  0.00    -0.120 A 
ATOM      5  C   LIG    1        1.146   2.303   0.424  0.00  0.00    +0.060 A 
ATOM      6  C   LIG    1        2.383   1.721   0.610  0.00  0.00    +0.020 A 
ENDROOT
BRANCH   4   7
ATOM      7  C   LIG    1       -1.305   2.116   0.020  0.00  0.00    +0.550 C 
ATOM      8  N   LIG    1       -2.409   1.522   0.515  0.00  0.00    -0.600 N 
ATOM      9  C   LIG    1       -2.280   0.217   1.123  0.00  0.00    +0.260 C 
ATOM     10  C   LIG    1       -2.454  -0.881   0.053  0.00  0.00    +0.010 C 
ATOM     11  C   LIG    1       -3.857  -0.952  -0.382  0.00  0.00    +0.000 C 
ATOM     12  C   LIG    1       -4.373   0.317  -1.053  0.00  0.00    +0.010 C 
ATOM     13  C   LIG    1       -4.847   1.284   0.004  0.00  0.00    +0.020 C 
ATOM     14  C   LIG    1       -3.701   2.229   0.409  0.00  0.00    +0.270 C 
ATOM     15  O   LIG    1       -1.401   3.160  -0.597  0.00  0.00    -0.530 OA
ENDBRANCH   4   7
BRANCH   1  16
ATOM     16  C   LIG    1        3.865  -0.285   0.806  0.00  0.00    +0.320 C 
BRANCH  16  19
ATOM     17  O   LIG    1        6.314  -1.356   0.463  0.00  0.00    -0.510 OA
ATOM     18  C   LIG    1        5.753  -1.008  -0.554  0.00  0.00    +0.520 C 
ATOM     19  N   LIG    1        4.523  -0.461  -0.491  0.00  0.00    -0.720 N 
ATOM     20  H   LIG    1        4.074  -0.182  -1.304  0.00  0.00    +0.400 HD
BRANCH  18  21
ATOM     21  C   LIG    1        6.430  -1.189  -1.888  0.00  0.00    +0.220 C 
BRANCH  21  22
ATOM     22  O   LIG    1        7.714  -1.785  -1.694  0.00  0.00    -0.290 OA
BRANCH  22  23
ATOM     23  C   LIG    1        8.460  -2.017  -2.806  0.00  0.00    +0.130 A 
ATOM     24  C   LIG    1        7.965  -1.684  -4.058  0.00  0.00    -0.080 A 
ATOM     25  C   LIG    1        8.728  -1.916  -5.186  0.00  0.00    +0.050 A 
ATOM     26  C   LIG    1        9.980  -2.490  -5.068  0.00  0.00    -0.030 A 
ATOM     27  C   LIG    1       10.474  -2.829  -3.822  0.00  0.00    +0.050 A 
ATOM     28  C   LIG    1        9.717  -2.594  -2.691  0.00  0.00    -0.020 A 
ENDBRANCH  22  23
ENDBRANCH  21  22
ENDBRANCH  18  21
ENDBRANCH  16  19
ENDBRANCH   1  16
TORSDOF 6
