REMARK  Name = ZINCkj00000a7RZ8.0
REMARK                            x       y       z     vdW  Elec       q    Type
REMARK                         _______ _______ _______ _____ _____    ______ ____
ROOT
ATOM      1  O   LIG    1       -1.409   5.479   0.179  0.00  0.00    -0.510 OA
ATOM      2  C   LIG    1       -0.278   5.080  -0.020  0.00  0.00    +0.600 C 
ATOM      3  N   LIG    1       -0.072   3.814  -0.434  0.00  0.00    -0.720 N 
ATOM      4  H   LIG    1        0.830   3.496  -0.593  0.00  0.00    +0.410 HD
ENDROOT
BRANCH   3   5
ATOM      5  C   LIG    1       -1.212   2.918  -0.644  0.00  0.00    +0.160 C 
ATOM      6  C   LIG    1       -2.034   3.363  -1.833  0.00  0.00    +0.070 C 
ATOM      7  C   LIG    1       -1.302   2.755  -3.065  0.00  0.00    +0.060 C 
ATOM      8  C   LIG    1       -0.205   1.823  -2.494  0.00  0.00    +0.080 C 
ATOM      9  C   LIG    1       -1.829   2.505   0.683  0.00  0.00    +0.100 C 
ATOM     10  C   LIG    1       -0.748   1.505   1.211  0.00  0.00    +0.280 C 
ATOM     11  N   LIG    1       -0.012   1.005   0.008  0.00  0.00    -0.490 N 
ATOM     12  H   LIG    1        0.930   1.366   0.001  0.00  0.00    +0.420 HD
ATOM     13  H   LIG    1        0.002  -0.004   0.002  0.00  0.00    +0.440 HD
ATOM     14  C   LIG    1       -0.738   1.496  -1.125  0.00  0.00    +0.120 C 
ENDBRANCH   3   5
BRANCH   2  15
ATOM     15  C   LIG    1        0.869   5.981   0.191  0.00  0.00    -0.030 A 
ATOM     16  C   LIG    1        0.658   7.283   0.611  0.00  0.00    +0.150 A 
ATOM     17  C   LIG    1        1.780   8.109   0.807  0.00  0.00    +0.000 A 
ATOM     18  C   LIG    1        1.933   9.422   1.213  0.00  0.00    +0.020 A 
ATOM     19  C   LIG    1        3.303   9.693   1.211  0.00  0.00    +0.020 A 
ATOM     20  C   LIG    1        3.954   8.570   0.813  0.00  0.00    +0.170 A 
ATOM     21  N   LIG    1        3.041   7.594   0.563  0.00  0.00    -0.390 N 
ATOM     22  C   LIG    1        3.168   6.297   0.144  0.00  0.00    +0.530 A 
ATOM     23  N   LIG    1        2.131   5.537  -0.030  0.00  0.00    -0.490 NA
ENDBRANCH   2  15
TORSDOF 2
