REMARK  Name = ZINCkj000005fPyS.0
REMARK                            x       y       z     vdW  Elec       q    Type
REMARK                         _______ _______ _______ _____ _____    ______ ____
ROOT
ATOM      1  C   LIG    1       -3.424   4.807   3.413  0.00  0.00    +0.500 C 
ATOM      2  N   LIG    1       -3.310   3.582   2.864  0.00  0.00    -0.580 N 
ATOM      3  C   LIG    1       -3.647   2.380   3.640  0.00  0.00    +0.260 C 
ATOM      4  C   LIG    1       -2.456   1.418   3.602  0.00  0.00    +0.020 C 
ATOM      5  C   LIG    1       -2.076   1.139   2.146  0.00  0.00    +0.040 C 
ATOM      6  C   LIG    1       -1.663   2.447   1.466  0.00  0.00    -0.020 C 
ATOM      7  C   LIG    1       -2.845   3.421   1.480  0.00  0.00    +0.300 C 
ATOM      8  O   LIG    1       -3.142   5.791   2.762  0.00  0.00    -0.530 OA
ENDROOT
BRANCH   1   9
ATOM      9  C   LIG    1       -3.901   4.956   4.834  0.00  0.00    +0.170 C 
BRANCH   9  10
ATOM     10  N   LIG    1       -3.498   6.270   5.352  0.00  0.00    -0.620 N 
ATOM     11  H   LIG    1       -2.493   6.348   5.325  0.00  0.00    +0.440 HD
ATOM     12  H   LIG    1       -3.818   6.369   6.303  0.00  0.00    +0.440 HD
ATOM     13  H   LIG    1       -3.907   6.996   4.782  0.00  0.00    +0.440 HD
ENDBRANCH   9  10
BRANCH   9  14
ATOM     14  C   LIG    1       -5.426   4.838   4.874  0.00  0.00    +0.080 C 
BRANCH  14  16
ATOM     15  C   LIG    1       -7.426   4.745   6.369  0.00  0.00    +0.040 C 
ATOM     16  C   LIG    1       -5.902   4.863   6.328  0.00  0.00    +0.010 C 
ENDBRANCH  14  16
ENDBRANCH   9  14
ENDBRANCH   1   9
BRANCH   6  17
ATOM     17  C   LIG    1       -1.252   2.162   0.020  0.00  0.00    +0.150 C 
BRANCH  17  18
ATOM     18  C   LIG    1       -0.016   1.301   0.009  0.00  0.00    +0.200 A 
ATOM     19  N   LIG    1        0.002  -0.004   0.002  0.00  0.00    -0.480 NA
ATOM     20  C   LIG    1        1.274  -0.429  -0.012  0.00  0.00    +0.140 A 
ATOM     21  C   LIG    1        2.075   0.653  -0.014  0.00  0.00    +0.130 A 
ATOM     22  N   LIG    1        1.258   1.751  -0.001  0.00  0.00    -0.460 N 
ATOM     23  C   LIG    1        1.684   3.153   0.003  0.00  0.00    +0.320 C 
ENDBRANCH  17  18
ENDBRANCH   6  17
TORSDOF 6
