REMARK  Name = ZINCAx0000000gGN.0
REMARK                            x       y       z     vdW  Elec       q    Type
REMARK                         _______ _______ _______ _____ _____    ______ ____
ROOT
ATOM      1  C   LIG    1       -2.028   6.011  -7.745  0.00  0.00    +0.100 C 
ATOM      2  C   LIG    1       -1.001   6.014  -6.611  0.00  0.00    +0.170 C 
ATOM      3  N   LIG    1       -0.604   7.392  -6.275  0.00  0.00    -0.720 N 
ATOM      4  H   LIG    1       -0.170   8.030  -6.863  0.00  0.00    +0.440 HD
ATOM      5  C   LIG    1       -0.964   7.595  -4.995  0.00  0.00    +0.710 C 
ATOM      6  N   LIG    1       -1.540   6.518  -4.449  0.00  0.00    -0.560 N 
ATOM      7  O   LIG    1       -0.784   8.639  -4.399  0.00  0.00    -0.530 OA
ATOM      8  C   LIG    1       -1.621   5.499  -5.327  0.00  0.00    +0.540 C 
ATOM      9  O   LIG    1       -2.093   4.399  -5.132  0.00  0.00    -0.450 OA
ENDROOT
BRANCH   2  10
ATOM     10  C   LIG    1        0.206   5.191  -6.984  0.00  0.00    -0.090 A 
ATOM     11  C   LIG    1        1.228   5.773  -7.668  0.00  0.00    +0.050 A 
ATOM     12  C   LIG    1        2.354   5.008  -8.018  0.00  0.00    -0.050 A 
ATOM     13  C   LIG    1        3.430   5.574  -8.723  0.00  0.00    +0.030 A 
ATOM     14  C   LIG    1        4.505   4.802  -9.044  0.00  0.00    +0.000 A 
ATOM     15  C   LIG    1        4.556   3.458  -8.683  0.00  0.00    +0.010 A 
ATOM     16  C   LIG    1        3.533   2.876  -7.998  0.00  0.00    +0.020 A 
ATOM     17  C   LIG    1        2.407   3.640  -7.650  0.00  0.00    -0.040 A 
ATOM     18  C   LIG    1        1.332   3.075  -6.943  0.00  0.00    +0.030 A 
ATOM     19  C   LIG    1        0.260   3.848  -6.617  0.00  0.00    +0.030 A 
ENDBRANCH   2  10
BRANCH   6  20
ATOM     20  C   LIG    1       -2.027   6.455  -3.069  0.00  0.00    +0.360 C 
BRANCH  20  21
ATOM     21  C   LIG    1       -0.923   5.963  -2.168  0.00  0.00    +0.500 C 
ATOM     22  N   LIG    1       -1.144   5.825  -0.846  0.00  0.00    -0.700 N 
ATOM     23  H   LIG    1       -2.013   6.042  -0.473  0.00  0.00    +0.410 HD
ATOM     24  O   LIG    1        0.163   5.692  -2.634  0.00  0.00    -0.520 OA
BRANCH  22  25
ATOM     25  C   LIG    1       -0.070   5.347   0.030  0.00  0.00    +0.300 C 
BRANCH  25  26
ATOM     26  C   LIG    1       -0.050   3.840   0.022  0.00  0.00    -0.100 A 
ATOM     27  C   LIG    1        1.156   3.165   0.008  0.00  0.00    +0.020 A 
ATOM     28  C   LIG    1        1.175   1.783   0.000  0.00  0.00    +0.000 A 
ATOM     29  C   LIG    1       -0.013   1.076   0.008  0.00  0.00    +0.000 A 
ATOM     30  C   LIG    1       -1.219   1.751   0.017  0.00  0.00    +0.000 A 
ATOM     31  C   LIG    1       -1.238   3.133   0.030  0.00  0.00    +0.020 A 
ENDBRANCH  25  26
BRANCH  25  32
ATOM     32  C   LIG    1       -0.314   5.847   1.455  0.00  0.00    +0.200 C 
BRANCH  32  33
ATOM     33  N   LIG    1       -0.454   7.309   1.444  0.00  0.00    -0.530 NA
ATOM     34  C   LIG    1        0.811   7.956   1.065  0.00  0.00    +0.150 C 
ATOM     35  C   LIG    1        0.606   9.472   1.008  0.00  0.00    +0.220 C 
ATOM     36  O   LIG    1        0.121   9.930   2.273  0.00  0.00    -0.380 OA
ATOM     37  C   LIG    1       -1.110   9.321   2.673  0.00  0.00    +0.220 C 
ATOM     38  C   LIG    1       -0.922   7.804   2.747  0.00  0.00    +0.150 C 
ENDBRANCH  32  33
ENDBRANCH  25  32
ENDBRANCH  22  25
ENDBRANCH  20  21
ENDBRANCH   6  20
TORSDOF 7
