REMARK  Name = ZINCrD0000071Bzg.0
REMARK                            x       y       z     vdW  Elec       q    Type
REMARK                         _______ _______ _______ _____ _____    ______ ____
ROOT
ATOM      1  O   LIG    1       -1.247   8.542  -0.252  0.00  0.00    -0.330 OA
ENDROOT
BRANCH   1   2
ATOM      2  C   LIG    1       -1.173   9.883  -0.354  0.00  0.00    +0.520 C 
ATOM      3  O   LIG    1       -0.089  10.432  -0.376  0.00  0.00    -0.510 OA
BRANCH   2   7
ATOM      4  C   LIG    1       -4.726  12.194  -0.602  0.00  0.00    +0.170 A 
ATOM      5  C   LIG    1       -3.487  12.823  -0.626  0.00  0.00    -0.030 A 
ATOM      6  C   LIG    1       -2.332  12.078  -0.546  0.00  0.00    +0.140 A 
ATOM      7  C   LIG    1       -2.407  10.686  -0.440  0.00  0.00    -0.170 A 
ATOM      8  C   LIG    1       -3.655  10.056  -0.421  0.00  0.00    +0.130 A 
ATOM      9  C   LIG    1       -4.805  10.810  -0.497  0.00  0.00    -0.090 A 
BRANCH   4  10
ATOM     10  O   LIG    1       -5.862  12.932  -0.681  0.00  0.00    -0.310 OA
BRANCH  10  11
ATOM     11  C   LIG    1       -7.101  12.222  -0.651  0.00  0.00    +0.190 C 
BRANCH  11  12
ATOM     12  C   LIG    1       -8.261  13.215  -0.750  0.00  0.00    +0.040 C 
BRANCH  12  14
ATOM     13  C   LIG    1      -10.748  13.447  -0.817  0.00  0.00    +0.030 C 
ATOM     14  C   LIG    1       -9.588  12.454  -0.717  0.00  0.00    +0.020 C 
ENDBRANCH  12  14
ENDBRANCH  11  12
ENDBRANCH  10  11
ENDBRANCH   4  10
ENDBRANCH   2   7
ENDBRANCH   1   2
BRANCH   1  15
ATOM     15  C   LIG    1        0.008   7.816  -0.172  0.00  0.00    +0.270 C 
BRANCH  15  16
ATOM     16  C   LIG    1       -0.272   6.339  -0.063  0.00  0.00    +0.520 C 
ATOM     17  N   LIG    1        0.750   5.465   0.024  0.00  0.00    -0.670 N 
ATOM     18  H   LIG    1        1.661   5.789   0.094  0.00  0.00    +0.420 HD
ATOM     19  O   LIG    1       -1.417   5.938  -0.054  0.00  0.00    -0.490 OA
BRANCH  17  20
ATOM     20  C   LIG    1        0.495   4.087   0.014  0.00  0.00    +0.160 A 
ATOM     21  C   LIG    1        1.301   3.227   0.746  0.00  0.00    +0.010 A 
ATOM     22  C   LIG    1        1.048   1.868   0.742  0.00  0.00    +0.060 A 
ATOM     23  C   LIG    1       -0.004   1.360  -0.002  0.00  0.00    +0.020 A 
ATOM     24  O   LIG    1       -0.455   0.082  -0.176  0.00  0.00    -0.310 OA
ATOM     25  C   LIG    1       -1.293   0.125  -1.346  0.00  0.00    +0.430 C 
ATOM     26  O   LIG    1       -1.773   1.483  -1.373  0.00  0.00    -0.310 OA
ATOM     27  C   LIG    1       -0.815   2.221  -0.739  0.00  0.00    +0.060 A 
ATOM     28  C   LIG    1       -0.564   3.582  -0.729  0.00  0.00    +0.050 A 
ENDBRANCH  17  20
ENDBRANCH  15  16
ENDBRANCH   1  15
TORSDOF 9
