REMARK  Name = ZINCah0000001Cgc.0
REMARK                            x       y       z     vdW  Elec       q    Type
REMARK                         _______ _______ _______ _____ _____    ______ ____
ROOT
ATOM      1  C   LIG    1        0.002  -0.004   0.002  0.00  0.00    -0.050 A 
ATOM      2  C   LIG    1        1.126  -0.805  -0.019  0.00  0.00    +0.060 A 
ATOM      3  C   LIG    1        0.682  -2.131  -0.016  0.00  0.00    -0.070 A 
ATOM      4  C   LIG    1       -0.673  -2.115  -0.003  0.00  0.00    +0.220 A 
ATOM      5  N   LIG    1       -1.097  -0.834   0.008  0.00  0.00    -0.530 N 
ATOM      6  H   LIG    1       -2.023  -0.545   0.019  0.00  0.00    +0.420 HD
ENDROOT
BRANCH   1   7
ATOM      7  C   LIG    1       -0.018   1.461   0.010  0.00  0.00    +0.540 C 
ATOM      8  O   LIG    1        1.027   2.083   0.003  0.00  0.00    -0.500 OA
BRANCH   7   9
ATOM      9  O   LIG    1       -1.195   2.119   0.019  0.00  0.00    -0.370 OA
BRANCH   9  11
ATOM     10  C   LIG    1       -2.560   4.136   0.037  0.00  0.00    +0.070 C 
ATOM     11  C   LIG    1       -1.139   3.570   0.027  0.00  0.00    +0.200 C 
ENDBRANCH   9  11
ENDBRANCH   7   9
ENDBRANCH   1   7
TORSDOF 3
