REMARK  Name = ZINCtV00000L6jgz.0
REMARK                            x       y       z     vdW  Elec       q    Type
REMARK                         _______ _______ _______ _____ _____    ______ ____
ROOT
ATOM      1  C   LIG    1        2.942   3.551   2.343  0.00  0.00    +0.330 A 
ATOM      2  C   LIG    1        3.933   3.936   3.190  0.00  0.00    -0.390 A 
ATOM      3  S   LIG    1        4.876   5.241   2.500  0.00  0.00    +0.170 S 
ATOM      4  C   LIG    1        3.900   5.277   1.037  0.00  0.00    +0.110 A 
ATOM      5  N   LIG    1        3.991   6.060  -0.037  0.00  0.00    -0.470 NA
ATOM      6  C   LIG    1        3.176   5.973  -1.076  0.00  0.00    +0.200 A 
ATOM      7  C   LIG    1        2.168   5.035  -1.095  0.00  0.00    -0.120 A 
ATOM      8  C   LIG    1        2.013   4.177  -0.002  0.00  0.00    +0.080 A 
ATOM      9  C   LIG    1        1.216   4.882  -2.252  0.00  0.00    +0.080 C 
ATOM     10  C   LIG    1        1.239   6.128  -3.135  0.00  0.00    +0.030 C 
ATOM     11  C   LIG    1        2.699   6.446  -3.480  0.00  0.00    +0.030 C 
ATOM     12  C   LIG    1        3.398   6.938  -2.215  0.00  0.00    +0.110 C 
ATOM     13  C   LIG    1        2.900   4.302   1.105  0.00  0.00    -0.160 A 
ENDROOT
BRANCH   8  14
ATOM     14  C   LIG    1        0.944   3.162   0.007  0.00  0.00    -0.180 A 
ATOM     15  C   LIG    1        1.137   1.825   0.005  0.00  0.00    +0.040 A 
ATOM     16  C   LIG    1       -0.019   1.077   0.014  0.00  0.00    +0.010 A 
ATOM     17  C   LIG    1       -1.154   1.786   0.017  0.00  0.00    -0.030 A 
ATOM     18  S   LIG    1       -0.781   3.504   0.021  0.00  0.00    +0.150 S 
ENDBRANCH   8  14
BRANCH   2  19
ATOM     19  C   LIG    1        4.176   3.353   4.457  0.00  0.00    +0.610 C 
ATOM     20  N   LIG    1        5.186   3.806   5.225  0.00  0.00    -0.670 N 
ATOM     21  H   LIG    1        5.788   4.486   4.883  0.00  0.00    +0.410 HD
ATOM     22  O   LIG    1        3.472   2.441   4.853  0.00  0.00    -0.540 OA
BRANCH  20  23
ATOM     23  C   LIG    1        5.367   3.298   6.515  0.00  0.00    +0.160 A 
ATOM     24  C   LIG    1        5.827   4.125   7.531  0.00  0.00    -0.010 A 
ATOM     25  C   LIG    1        6.000   3.622   8.806  0.00  0.00    +0.050 A 
ATOM     26  C   LIG    1        5.726   2.292   9.069  0.00  0.00    +0.010 A 
ATOM     27  C   LIG    1        5.272   1.463   8.057  0.00  0.00    -0.020 A 
ATOM     28 CL   LIG    1        4.929  -0.205   8.392  0.00  0.00    -0.060 Cl
ATOM     29  C   LIG    1        5.092   1.962   6.781  0.00  0.00    +0.040 A 
ENDBRANCH  20  23
ENDBRANCH   2  19
BRANCH   1  30
ATOM     30  N   LIG    1        2.050   2.529   2.639  0.00  0.00    -0.820 N 
ATOM     31  H   LIG    1        2.118   2.054   3.482  0.00  0.00    +0.420 HD
ATOM     32  H   LIG    1        1.359   2.290   2.002  0.00  0.00    +0.400 HD
ENDBRANCH   1  30
TORSDOF 4
