REMARK  Name = ZINCnE000001NhJd.1
REMARK                            x       y       z     vdW  Elec       q    Type
REMARK                         _______ _______ _______ _____ _____    ______ ____
ROOT
ATOM      1  C   LIG    1       -2.350   2.925   3.754  0.00  0.00    +0.340 A 
ATOM      2  N   LIG    1       -1.679   3.896   3.217  0.00  0.00    -0.560 NA
ATOM      3  C   LIG    1       -1.282   3.729   1.970  0.00  0.00    +0.260 A 
ATOM      4  C   LIG    1       -1.643   2.566   1.423  0.00  0.00    -0.330 A 
ATOM      5  S   LIG    1       -2.541   1.650   2.631  0.00  0.00    +0.030 S 
ENDROOT
BRANCH   1   7
ATOM      6  C   LIG    1       -2.634   3.983   5.857  0.00  0.00    +0.480 C 
ATOM      7  N   LIG    1       -2.842   2.921   5.054  0.00  0.00    -0.680 NA
ATOM      8  O   LIG    1       -2.016   4.942   5.445  0.00  0.00    -0.560 OA
BRANCH   6  10
ATOM      9  C   LIG    1       -2.170   3.272   8.187  0.00  0.00    +0.080 C 
ATOM     10  C   LIG    1       -3.167   3.979   7.266  0.00  0.00    -0.430 C 
BRANCH  10  11
ATOM     11  S   LIG    1       -3.403   5.687   7.829  0.00  0.00    +2.440 S 
ATOM     12  O   LIG    1       -4.502   6.248   7.123  0.00  0.00    -0.940 OA
ATOM     13  O   LIG    1       -2.148   6.351   7.799  0.00  0.00    -0.920 OA
ATOM     14  C   LIG    1       -3.890   5.448   9.560  0.00  0.00    -0.300 C 
ENDBRANCH  10  11
ENDBRANCH   6  10
ENDBRANCH   1   7
BRANCH   4  15
ATOM     15  C   LIG    1       -1.332   2.113   0.020  0.00  0.00    +0.190 C 
BRANCH  15  16
ATOM     16  C   LIG    1       -0.017   1.378   0.010  0.00  0.00    -0.040 A 
ATOM     17  C   LIG    1        0.002  -0.004   0.002  0.00  0.00    +0.050 A 
ATOM     18  C   LIG    1        1.210  -0.680  -0.013  0.00  0.00    -0.030 A 
ATOM     19  C   LIG    1        2.398   0.028  -0.020  0.00  0.00    +0.030 A 
ATOM     20  C   LIG    1        2.379   1.410  -0.014  0.00  0.00    +0.040 A 
ATOM     21 CL   LIG    1        1.233  -2.415  -0.021  0.00  0.00    -0.070 Cl
ATOM     22  C   LIG    1        1.172   2.086   0.002  0.00  0.00    -0.030 A 
ATOM     23 CL   LIG    1        1.149   3.821   0.011  0.00  0.00    -0.050 Cl
ENDBRANCH  15  16
ENDBRANCH   4  15
TORSDOF 5
