REMARK  Name = ZINCpk00000xI9Er.0
REMARK                            x       y       z     vdW  Elec       q    Type
REMARK                         _______ _______ _______ _____ _____    ______ ____
ROOT
ATOM      1  C   LIG    1       -5.395  -3.676   0.034  0.00  0.00    +0.390 C 
ENDROOT
BRANCH   1   2
ATOM      2  C   LIG    1       -5.840  -3.412  -1.381  0.00  0.00    +0.180 A 
ATOM      3  C   LIG    1       -7.003  -3.986  -1.857  0.00  0.00    -0.140 A 
ATOM      4  C   LIG    1       -7.399  -3.721  -3.173  0.00  0.00    +0.510 A 
ATOM      5  N   LIG    1       -6.627  -2.922  -3.941  0.00  0.00    -0.420 N 
ATOM      6  C   LIG    1       -6.995  -2.661  -5.225  0.00  0.00    +0.270 A 
ATOM      7  C   LIG    1       -6.239  -1.864  -6.013  0.00  0.00    -0.130 A 
ATOM      8  C   LIG    1       -5.059  -1.295  -5.512  0.00  0.00    +0.130 A 
ATOM      9  C   LIG    1       -4.681  -1.551  -4.228  0.00  0.00    +0.040 A 
ATOM     10  C   LIG    1       -6.665  -1.586  -7.431  0.00  0.00    +0.130 C 
ATOM     11  C   LIG    1       -5.482  -2.383  -3.424  0.00  0.00    +0.390 A 
ATOM     12  O   LIG    1       -8.425  -4.209  -3.622  0.00  0.00    -0.530 OA
ATOM     13  N   LIG    1       -5.114  -2.635  -2.169  0.00  0.00    -0.530 NA
ENDBRANCH   1   2
BRANCH   1  20
ATOM     14  C   LIG    1       -2.785  -2.393   0.016  0.00  0.00    -0.070 C 
ATOM     15  C   LIG    1       -2.945  -3.750   0.010  0.00  0.00    +0.200 C 
ATOM     16  S   LIG    1       -1.649  -4.959  -0.017  0.00  0.00    +0.040 S 
ATOM     17  C   LIG    1       -2.786  -6.385  -0.006  0.00  0.00    +0.110 C 
ATOM     18  C   LIG    1       -4.155  -5.745   0.010  0.00  0.00    +0.520 C 
ATOM     19  O   LIG    1       -5.183  -6.388   0.017  0.00  0.00    -0.470 OA
ATOM     20  N   LIG    1       -4.135  -4.423   0.018  0.00  0.00    -0.540 N 
BRANCH  14  21
ATOM     21  C   LIG    1       -1.497  -1.840   0.006  0.00  0.00    +0.510 C 
ATOM     22  O   LIG    1       -0.521  -2.569  -0.007  0.00  0.00    -0.510 OA
BRANCH  21  23
ATOM     23  O   LIG    1       -1.339  -0.499   0.012  0.00  0.00    -0.350 OA
BRANCH  23  25
ATOM     24  C   LIG    1       -0.019   1.526   0.010  0.00  0.00    +0.070 C 
ATOM     25  C   LIG    1        0.002  -0.004   0.002  0.00  0.00    +0.200 C 
ENDBRANCH  23  25
ENDBRANCH  21  23
ENDBRANCH  14  21
ENDBRANCH   1  20
TORSDOF 5
