REMARK  Name = ZINCpe00000bZ6kd.0
REMARK                            x       y       z     vdW  Elec       q    Type
REMARK                         _______ _______ _______ _____ _____    ______ ____
ROOT
ATOM      1  C   LIG    1        5.011   2.579  -4.998  0.00  0.00    +0.610 C 
ATOM      2  N   LIG    1        4.674   1.664  -4.068  0.00  0.00    -0.630 N 
ATOM      3  C   LIG    1        5.289   0.334  -3.839  0.00  0.00    +0.290 C 
ATOM      4  C   LIG    1        5.322   0.177  -2.300  0.00  0.00    +0.010 C 
ATOM      5  C   LIG    1        4.215   1.108  -1.797  0.00  0.00    -0.110 C 
ATOM      6  C   LIG    1        4.588   2.046  -0.656  0.00  0.00    +0.310 C 
ATOM      7  N   LIG    1        3.240   1.816  -0.108  0.00  0.00    -0.640 N 
ATOM      8  C   LIG    1        2.386   2.499   0.680  0.00  0.00    +0.580 C 
ATOM      9  O   LIG    1        2.696   3.591   1.107  0.00  0.00    -0.530 OA
ATOM     10  C   LIG    1        3.236   0.511  -0.792  0.00  0.00    +0.300 C 
ATOM     11  C   LIG    1        3.606   1.762  -3.042  0.00  0.00    +0.290 C 
ATOM     12  O   LIG    1        5.989   2.402  -5.699  0.00  0.00    -0.520 OA
ENDROOT
BRANCH   1  18
ATOM     13  C   LIG    1        3.352   7.126  -6.513  0.00  0.00    +0.100 C 
ATOM     14  C   LIG    1        3.455   5.789  -5.825  0.00  0.00    -0.180 A 
ATOM     15  C   LIG    1        2.553   5.265  -4.961  0.00  0.00    +0.050 A 
ATOM     16  N   LIG    1        2.992   4.049  -4.553  0.00  0.00    -0.540 N 
ATOM     17  H   LIG    1        2.534   3.461  -3.933  0.00  0.00    +0.410 HD
ATOM     18  C   LIG    1        4.197   3.788  -5.166  0.00  0.00    -0.060 A 
ATOM     19  C   LIG    1        1.271   5.926  -4.525  0.00  0.00    +0.140 C 
ATOM     20  C   LIG    1        4.502   4.872  -5.961  0.00  0.00    +0.060 A 
ENDBRANCH   1  18
BRANCH   8  21
ATOM     21  C   LIG    1        1.046   1.905   1.031  0.00  0.00    -0.070 C 
ATOM     22  C   LIG    1       -0.198   2.571   0.440  0.00  0.00    +0.080 C 
ATOM     23  C   LIG    1        0.121   2.731   1.928  0.00  0.00    +0.210 C 
ATOM     24  F   LIG    1       -0.682   2.037   2.840  0.00  0.00    -0.180 F 
ENDBRANCH   8  21
BRANCH   4  25
ATOM     25  C   LIG    1        5.022  -1.271  -1.905  0.00  0.00    +0.190 C 
BRANCH  25  26
ATOM     26  O   LIG    1        6.120  -2.104  -2.282  0.00  0.00    -0.570 OA
ATOM     27  H   LIG    1        5.998  -3.038  -2.061  0.00  0.00    +0.390 HD
ENDBRANCH  25  26
ENDBRANCH   4  25
TORSDOF 4
