REMARK  Name = ZINCkj000005jjmE.0
REMARK                            x       y       z     vdW  Elec       q    Type
REMARK                         _______ _______ _______ _____ _____    ______ ____
ROOT
ATOM      1  C   LIG    1        0.156  -2.893   1.254  0.00  0.00    +0.600 C 
ATOM      2  N   LIG    1       -0.853  -2.764   0.370  0.00  0.00    -0.740 N 
ATOM      3  H   LIG    1       -0.992  -1.919  -0.087  0.00  0.00    +0.400 HD
ATOM      4  O   LIG    1        0.389  -3.976   1.757  0.00  0.00    -0.520 OA
ENDROOT
BRANCH   1  10
ATOM      5  C   LIG    1        0.904   3.751   0.343  0.00  0.00    +0.040 C 
ATOM      6  C   LIG    1        1.013   2.225   0.391  0.00  0.00    -0.020 C 
ATOM      7  C   LIG    1       -0.384   1.618   0.554  0.00  0.00    +0.050 C 
ATOM      8  C   LIG    1       -0.303   0.098   0.371  0.00  0.00    +0.270 C 
ATOM      9  N   LIG    1        0.769  -0.424   1.221  0.00  0.00    -0.440 N 
ATOM     10  C   LIG    1        0.974  -1.728   1.611  0.00  0.00    -0.110 A 
ATOM     11  C   LIG    1        2.094  -1.719   2.396  0.00  0.00    +0.270 A 
ATOM     12  N   LIG    1        2.533  -0.461   2.468  0.00  0.00    -0.490 NA
ATOM     13  C   LIG    1        1.751   0.318   1.771  0.00  0.00    +0.250 A 
ATOM     14  C   LIG    1        1.886   1.811   1.581  0.00  0.00    +0.170 C 
ENDBRANCH   1  10
BRANCH   2  15
ATOM     15  C   LIG    1       -1.740  -3.897   0.100  0.00  0.00    +0.280 C 
BRANCH  15  16
ATOM     16  C   LIG    1       -2.792  -3.487  -0.933  0.00  0.00    +0.000 C 
ATOM     17  C   LIG    1       -2.119  -3.214  -2.289  0.00  0.00    +0.040 C 
ATOM     18  C   LIG    1       -2.731  -4.213  -3.293  0.00  0.00    +0.050 C 
ATOM     19  C   LIG    1       -4.102  -4.582  -2.675  0.00  0.00    +0.170 C 
ATOM     20  C   LIG    1       -3.789  -4.643  -1.160  0.00  0.00    +0.060 C 
BRANCH  19  21
ATOM     21  N   LIG    1       -4.560  -5.889  -3.165  0.00  0.00    -0.630 N 
ATOM     22  H   LIG    1       -4.676  -5.851  -4.167  0.00  0.00    +0.440 HD
ATOM     23  H   LIG    1       -5.441  -6.120  -2.733  0.00  0.00    +0.440 HD
ATOM     24  H   LIG    1       -3.876  -6.593  -2.933  0.00  0.00    +0.430 HD
ENDBRANCH  19  21
ENDBRANCH  15  16
ENDBRANCH   2  15
TORSDOF 4
