REMARK  Name = ZINCqH0000005AZw.0
REMARK                            x       y       z     vdW  Elec       q    Type
REMARK                         _______ _______ _______ _____ _____    ______ ____
ROOT
ATOM      1  C   LIG    1        1.250  -2.161  -0.022  0.00  0.00    +0.560 C 
ATOM      2  N   LIG    1        0.095  -2.856  -0.015  0.00  0.00    -0.720 N 
ATOM      3  H   LIG    1       -0.754  -2.387  -0.004  0.00  0.00    +0.400 HD
ATOM      4  O   LIG    1        2.313  -2.748  -0.035  0.00  0.00    -0.530 OA
ENDROOT
BRANCH   1   9
ATOM      5  C   LIG    1        2.383   1.420  -0.013  0.00  0.00    -0.090 A 
ATOM      6  C   LIG    1        1.170   2.086   0.002  0.00  0.00    +0.050 A 
ATOM      7  C   LIG    1       -0.017   1.375   0.010  0.00  0.00    +0.010 A 
ATOM      8  C   LIG    1        0.002  -0.004   0.002  0.00  0.00    +0.040 A 
ATOM      9  C   LIG    1        1.222  -0.682  -0.013  0.00  0.00    -0.130 A 
ATOM     10  C   LIG    1        2.416   0.041  -0.021  0.00  0.00    +0.100 A 
BRANCH   5  11
ATOM     11  C   LIG    1        3.671   2.203  -0.021  0.00  0.00    +0.170 C 
BRANCH  11  12
ATOM     12  C   LIG    1        4.086   2.471  -1.444  0.00  0.00    +0.460 C 
ATOM     13  O   LIG    1        3.407   2.069  -2.359  0.00  0.00    -0.500 OA
BRANCH  12  15
ATOM     14  C   LIG    1        5.550   3.380  -3.091  0.00  0.00    +0.260 C 
ATOM     15  O   LIG    1        5.212   3.158  -1.697  0.00  0.00    -0.360 OA
ENDBRANCH  12  15
ENDBRANCH  11  12
ENDBRANCH   5  11
ENDBRANCH   1   9
BRANCH   2  16
ATOM     16  C   LIG    1        0.122  -4.321  -0.024  0.00  0.00    +0.240 C 
ATOM     17  C   LIG    1        0.244  -4.820  -1.465  0.00  0.00    +0.020 C 
BRANCH  16  18
ATOM     18  C   LIG    1       -1.169  -4.859   0.595  0.00  0.00    -0.060 C 
ATOM     19  C   LIG    1       -1.291  -4.359   2.036  0.00  0.00    +0.020 C 
ATOM     20  C   LIG    1       -2.583  -4.897   2.655  0.00  0.00    -0.020 C 
ATOM     21  C   LIG    1       -3.782  -4.405   1.841  0.00  0.00    +0.010 C 
ATOM     22  C   LIG    1       -3.660  -4.904   0.400  0.00  0.00    -0.020 C 
ATOM     23  C   LIG    1       -3.631  -6.434   0.391  0.00  0.00    +0.010 C 
ATOM     24  C   LIG    1       -2.433  -6.926   1.205  0.00  0.00    -0.020 C 
ATOM     25  C   LIG    1       -2.554  -6.427   2.646  0.00  0.00    +0.010 C 
ATOM     26  C   LIG    1       -2.368  -4.366  -0.218  0.00  0.00    +0.020 C 
ATOM     27  C   LIG    1       -1.141  -6.388   0.586  0.00  0.00    +0.040 C 
ENDBRANCH  16  18
ENDBRANCH   2  16
TORSDOF 6
