REMARK  Name = ZINCrH000004nMyx.0
REMARK                            x       y       z     vdW  Elec       q    Type
REMARK                         _______ _______ _______ _____ _____    ______ ____
ROOT
ATOM      1  C   LIG    1        1.795  -1.358   0.790  0.00  0.00    +0.560 C 
ATOM      2  N   LIG    1        1.207  -0.683  -0.218  0.00  0.00    -0.520 N 
ATOM      3  H   LIG    1        1.619  -0.668  -1.097  0.00  0.00    +0.410 HD
ATOM      4  O   LIG    1        1.279  -1.377   1.890  0.00  0.00    -0.500 OA
ENDROOT
BRANCH   1   9
ATOM      5  C   LIG    1        4.864  -3.441   1.375  0.00  0.00    -0.100 A 
ATOM      6  C   LIG    1        5.449  -3.418   0.122  0.00  0.00    +0.070 A 
ATOM      7  C   LIG    1        4.848  -2.726  -0.915  0.00  0.00    +0.020 A 
ATOM      8  C   LIG    1        3.659  -2.060  -0.707  0.00  0.00    +0.050 A 
ATOM      9  C   LIG    1        3.067  -2.075   0.557  0.00  0.00    -0.130 A 
ATOM     10  C   LIG    1        3.677  -2.774   1.599  0.00  0.00    +0.110 A 
BRANCH   5  11
ATOM     11  C   LIG    1        5.525  -4.198   2.499  0.00  0.00    -0.270 C 
BRANCH  11  13
ATOM     12  C   LIG    1        5.829  -6.613   3.918  0.00  0.00    -0.270 C 
ATOM     13  S   LIG    1        4.918  -5.907   2.517  0.00  0.00    +2.410 S 
ATOM     14  O   LIG    1        5.349  -6.552   1.326  0.00  0.00    -0.930 OA
ATOM     15  O   LIG    1        3.534  -5.893   2.837  0.00  0.00    -0.930 OA
ENDBRANCH  11  13
ENDBRANCH   5  11
ENDBRANCH   1   9
BRANCH   2  16
ATOM     16  N   LIG    1        0.002  -0.004   0.002  0.00  0.00    -0.370 N 
BRANCH  16  17
ATOM     17  C   LIG    1       -1.193  -0.720   0.115  0.00  0.00    +0.160 A 
ATOM     18  C   LIG    1       -2.041  -0.492   1.191  0.00  0.00    +0.010 A 
ATOM     19  C   LIG    1       -3.224  -1.197   1.297  0.00  0.00    +0.030 A 
ATOM     20  C   LIG    1       -3.559  -2.137   0.339  0.00  0.00    +0.000 A 
ATOM     21  C   LIG    1       -2.714  -2.370  -0.731  0.00  0.00    +0.030 A 
ATOM     22  C   LIG    1       -1.532  -1.664  -0.845  0.00  0.00    -0.010 A 
ENDBRANCH  16  17
BRANCH  16  23
ATOM     23  C   LIG    1       -0.005   1.389   0.109  0.00  0.00    +0.200 A 
ATOM     24  C   LIG    1       -1.211   2.078   0.146  0.00  0.00    -0.040 A 
ATOM     25  C   LIG    1       -1.214   3.455   0.256  0.00  0.00    +0.050 A 
ATOM     26  C   LIG    1       -0.019   4.148   0.320  0.00  0.00    -0.040 A 
ATOM     27  C   LIG    1        1.183   3.466   0.278  0.00  0.00    +0.040 A 
ATOM     28  C   LIG    1        1.193   2.089   0.172  0.00  0.00    -0.050 A 
ENDBRANCH  16  23
ENDBRANCH   2  16
TORSDOF 6
