REMARK  Name = ZINCvU00000008k5.0
REMARK                            x       y       z     vdW  Elec       q    Type
REMARK                         _______ _______ _______ _____ _____    ______ ____
ROOT
ATOM      1  C   LIG    1        0.051   0.078   0.543  0.00  0.00    +0.150 C 
ATOM      2  C   LIG    1        0.010   1.556   0.249  0.00  0.00    -0.180 A 
ATOM      3  C   LIG    1        1.074   2.294   0.000  0.00  0.00    -0.070 A 
ATOM      4  C   LIG    1        0.797   3.695  -0.256  0.00  0.00    -0.220 A 
ATOM      5  C   LIG    1        1.676   4.767  -0.555  0.00  0.00    +0.490 A 
ATOM      6  N   LIG    1        1.170   5.975  -0.752  0.00  0.00    -0.570 NA
ATOM      7  C   LIG    1       -0.131   6.193  -0.673  0.00  0.00    +0.390 A 
ATOM      8  N   LIG    1       -0.985   5.234  -0.400  0.00  0.00    -0.510 NA
ATOM      9  C   LIG    1       -0.569   3.979  -0.186  0.00  0.00    +0.120 A 
ATOM     10  C   LIG    1        2.470   1.726  -0.016  0.00  0.00    +0.120 C 
ATOM     11  S   LIG    1       -1.459   2.511   0.187  0.00  0.00    +0.180 S 
ENDROOT
BRANCH   5  12
ATOM     12  N   LIG    1        3.041   4.555  -0.640  0.00  0.00    -0.700 N 
ATOM     13  H   LIG    1        3.396   3.655  -0.574  0.00  0.00    +0.410 HD
BRANCH  12  14
ATOM     14  C   LIG    1        3.948   5.689  -0.829  0.00  0.00    +0.280 C 
BRANCH  14  15
ATOM     15  C   LIG    1        5.391   5.183  -0.889  0.00  0.00    +0.160 C 
BRANCH  15  16
ATOM     16  C   LIG    1        6.324   6.350  -1.084  0.00  0.00    +0.140 A 
ATOM     17  N   LIG    1        6.886   7.058  -0.138  0.00  0.00    -0.240 NA
ATOM     18  N   LIG    1        7.625   7.979  -0.649  0.00  0.00    -0.290 NA
ATOM     19  C   LIG    1        7.573   7.906  -1.969  0.00  0.00    +0.200 A 
ATOM     20  C   LIG    1        8.172   8.648  -3.005  0.00  0.00    +0.080 A 
ATOM     21  C   LIG    1        7.923   8.304  -4.298  0.00  0.00    +0.060 A 
ATOM     22  C   LIG    1        7.066   7.227  -4.580  0.00  0.00    +0.030 A 
ATOM     23  C   LIG    1        6.495   6.528  -3.577  0.00  0.00    +0.230 A 
ATOM     24  N   LIG    1        6.742   6.856  -2.276  0.00  0.00    -0.390 N 
ENDBRANCH  15  16
ENDBRANCH  14  15
ENDBRANCH  12  14
ENDBRANCH   5  12
BRANCH   7  25
ATOM     25  C   LIG    1       -0.651   7.588  -0.906  0.00  0.00    +0.200 C 
BRANCH  25  26
ATOM     26  S   LIG    1       -1.016   7.811  -2.668  0.00  0.00    -0.080 S 
BRANCH  26  27
ATOM     27  C   LIG    1       -1.603   9.471  -2.744  0.00  0.00    -0.090 A 
ATOM     28  C   LIG    1       -1.684  10.235  -1.586  0.00  0.00    -0.010 A 
ATOM     29  C   LIG    1       -2.139  11.537  -1.650  0.00  0.00    +0.030 A 
ATOM     30  C   LIG    1       -2.524  12.078  -2.864  0.00  0.00    +0.010 A 
ATOM     31  C   LIG    1       -2.450  11.319  -4.018  0.00  0.00    +0.030 A 
ATOM     32  C   LIG    1       -1.991  10.018  -3.962  0.00  0.00    +0.030 A 
ENDBRANCH  26  27
ENDBRANCH  25  26
ENDBRANCH   7  25
TORSDOF 7
