REMARK  Name = ZINCqH0000004RIj.0
REMARK                            x       y       z     vdW  Elec       q    Type
REMARK                         _______ _______ _______ _____ _____    ______ ____
ROOT
ATOM      1  N   LIG    1       -0.017   1.363   0.009  0.00  0.00    -0.450 N 
ATOM      2  C   LIG    1        0.002  -0.004   0.002  0.00  0.00    +0.200 A 
ATOM      3  N   LIG    1        1.251  -0.375  -0.012  0.00  0.00    -0.280 NA
ATOM      4  N   LIG    1        2.018   0.657  -0.014  0.00  0.00    -0.290 NA
ATOM      5  C   LIG    1        1.293   1.751  -0.001  0.00  0.00    +0.140 A 
ENDROOT
BRANCH   1   7
ATOM      6  C   LIG    1       -1.600   2.526   1.466  0.00  0.00    +0.060 C 
ATOM      7  C   LIG    1       -1.196   2.232   0.020  0.00  0.00    +0.300 C 
ENDBRANCH   1   7
BRANCH   2   8
ATOM      8  C   LIG    1       -1.200  -0.913   0.009  0.00  0.00    +0.210 C 
BRANCH   8   9
ATOM      9  C   LIG    1       -1.614  -1.209  -1.409  0.00  0.00    -0.090 A 
ATOM     10  C   LIG    1       -2.531  -0.393  -2.046  0.00  0.00    +0.000 A 
ATOM     11  C   LIG    1       -2.908  -0.662  -3.348  0.00  0.00    +0.000 A 
ATOM     12  C   LIG    1       -2.375  -1.752  -4.011  0.00  0.00    +0.000 A 
ATOM     13  C   LIG    1       -1.463  -2.571  -3.373  0.00  0.00    +0.010 A 
ATOM     14  C   LIG    1       -1.082  -2.299  -2.072  0.00  0.00    +0.030 A 
ENDBRANCH   8   9
ENDBRANCH   2   8
BRANCH   5  15
ATOM     15  S   LIG    1        1.895   3.407   0.002  0.00  0.00    +0.070 S 
BRANCH  15  16
ATOM     16  C   LIG    1        3.678   3.093  -0.017  0.00  0.00    +0.010 C 
ATOM     17  C   LIG    1        4.086   2.397   1.283  0.00  0.00    +0.090 C 
BRANCH  16  18
ATOM     18  C   LIG    1        4.417   4.400  -0.141  0.00  0.00    +0.540 C 
ATOM     19  N   LIG    1        5.657   4.426  -0.669  0.00  0.00    -0.720 N 
ATOM     20  H   LIG    1        6.073   3.603  -0.968  0.00  0.00    +0.410 HD
ATOM     21  O   LIG    1        3.896   5.429   0.234  0.00  0.00    -0.520 OA
BRANCH  19  22
ATOM     22  C   LIG    1        6.375   5.697  -0.789  0.00  0.00    +0.370 C 
BRANCH  22  23
ATOM     23  C   LIG    1        7.729   5.452  -1.405  0.00  0.00    -0.210 A 
ATOM     24  C   LIG    1        7.994   5.474  -2.713  0.00  0.00    +0.030 A 
ATOM     25  C   LIG    1        9.313   5.220  -3.044  0.00  0.00    +0.000 A 
ATOM     26  C   LIG    1       10.120   4.992  -2.007  0.00  0.00    -0.030 A 
ATOM     27  S   LIG    1        9.202   5.102  -0.510  0.00  0.00    +0.120 S 
ENDBRANCH  22  23
ENDBRANCH  19  22
ENDBRANCH  16  18
ENDBRANCH  15  16
ENDBRANCH   5  15
TORSDOF 8
