REMARK  Name = ZINCrH000004poRz.0
REMARK                            x       y       z     vdW  Elec       q    Type
REMARK                         _______ _______ _______ _____ _____    ______ ____
ROOT
ATOM      1  C   LIG    1       -0.013   1.086   0.008  0.00  0.00    +0.180 C 
ATOM      2  C   LIG    1        1.423   1.615  -0.003  0.00  0.00    +0.020 C 
ENDROOT
BRANCH   1   3
ATOM      3  N   LIG    1       -0.700   1.560   1.217  0.00  0.00    -0.520 NA
ATOM      4  C   LIG    1       -0.715   3.028   1.273  0.00  0.00    +0.200 C 
ATOM      5  C   LIG    1       -1.506   3.481   2.502  0.00  0.00    +0.180 C 
ATOM      6  N   LIG    1       -0.893   2.916   3.712  0.00  0.00    -0.540 NA
ATOM      7  C   LIG    1       -0.879   1.448   3.656  0.00  0.00    +0.180 C 
ATOM      8  C   LIG    1       -0.087   0.995   2.427  0.00  0.00    +0.190 C 
BRANCH   6   9
ATOM      9  C   LIG    1       -1.581   3.390   4.921  0.00  0.00    +0.230 C 
BRANCH   9  10
ATOM     10  C   LIG    1       -1.365   4.874   5.072  0.00  0.00    -0.070 A 
ATOM     11  C   LIG    1       -0.282   5.344   5.791  0.00  0.00    +0.040 A 
ATOM     12  C   LIG    1       -0.080   6.705   5.925  0.00  0.00    +0.020 A 
ATOM     13  C   LIG    1       -0.969   7.596   5.351  0.00  0.00    -0.030 A 
ATOM     14  C   LIG    1       -2.057   7.124   4.637  0.00  0.00    +0.020 A 
ATOM     15 CL   LIG    1       -0.721   9.305   5.525  0.00  0.00    -0.070 Cl
ATOM     16  C   LIG    1       -2.254   5.763   4.498  0.00  0.00    +0.030 A 
ENDBRANCH   9  10
ENDBRANCH   6   9
ENDBRANCH   1   3
BRANCH   1  19
ATOM     17  N   LIG    1       -0.288   1.272  -2.443  0.00  0.00    -0.730 N 
ATOM     18  H   LIG    1        0.507   0.726  -2.543  0.00  0.00    +0.400 HD
ATOM     19  C   LIG    1       -0.742   1.585  -1.213  0.00  0.00    +0.520 C 
ATOM     20  O   LIG    1       -1.736   2.268  -1.088  0.00  0.00    -0.520 OA
BRANCH  17  22
ATOM     21  C   LIG    1       -0.514   3.169  -3.971  0.00  0.00    +0.040 C 
ATOM     22  C   LIG    1       -0.997   1.758  -3.630  0.00  0.00    +0.290 C 
BRANCH  22  23
ATOM     23  C   LIG    1       -0.721   0.838  -4.791  0.00  0.00    -0.090 A 
ATOM     24  C   LIG    1        0.550   0.326  -4.980  0.00  0.00    +0.000 A 
ATOM     25  C   LIG    1        0.802  -0.521  -6.043  0.00  0.00    +0.000 A 
ATOM     26  C   LIG    1       -0.213  -0.849  -6.922  0.00  0.00    +0.000 A 
ATOM     27  C   LIG    1       -1.482  -0.333  -6.736  0.00  0.00    +0.020 A 
ATOM     28  C   LIG    1       -1.736   0.510  -5.671  0.00  0.00    +0.010 A 
ENDBRANCH  22  23
ENDBRANCH  17  22
ENDBRANCH   1  19
TORSDOF 6
