REMARK  Name = ZINCrH00000No4Ir.1
REMARK                            x       y       z     vdW  Elec       q    Type
REMARK                         _______ _______ _______ _____ _____    ______ ____
ROOT
ATOM      1  C   LIG    1        0.272   3.385  -2.918  0.00  0.00    -0.690 A 
ATOM      2  C   LIG    1       -0.665   4.030  -2.169  0.00  0.00    +0.190 A 
ATOM      3  C   LIG    1       -1.713   3.298  -1.588  0.00  0.00    -0.170 A 
ATOM      4  C   LIG    1       -2.702   3.931  -0.807  0.00  0.00    +0.150 A 
ATOM      5  C   LIG    1       -3.701   3.165  -0.286  0.00  0.00    -0.070 A 
ATOM      6  C   LIG    1       -3.715   1.782  -0.519  0.00  0.00    +0.430 A 
ATOM      7  N   LIG    1       -2.784   1.196  -1.244  0.00  0.00    -0.540 NA
ATOM      8  C   LIG    1       -1.785   1.899  -1.791  0.00  0.00    +0.220 A 
ATOM      9  C   LIG    1       -0.796   1.268  -2.564  0.00  0.00    +0.020 A 
ATOM     10  C   LIG    1        0.206   2.007  -3.114  0.00  0.00    +0.130 A 
ENDROOT
BRANCH   1  11
ATOM     11  S   LIG    1        1.587   4.305  -3.647  0.00  0.00    +2.690 S 
ATOM     12  O   LIG    1        2.648   3.385  -3.862  0.00  0.00    -0.950 OA
ATOM     13  O   LIG    1        1.727   5.487  -2.871  0.00  0.00    -0.950 OA
BRANCH  11  18
ATOM     14  C   LIG    1        1.896   6.858  -8.771  0.00  0.00    +0.030 C 
ATOM     15  C   LIG    1        1.205   6.040  -7.678  0.00  0.00    -0.020 C 
ATOM     16  C   LIG    1        1.100   6.879  -6.403  0.00  0.00    +0.020 C 
ATOM     17  C   LIG    1        0.377   6.069  -5.322  0.00  0.00    +0.280 C 
ATOM     18  N   LIG    1        1.074   4.787  -5.146  0.00  0.00    -1.000 NA
ATOM     19  C   LIG    1        1.314   3.946  -6.326  0.00  0.00    +0.290 C 
ATOM     20  C   LIG    1        2.021   4.777  -7.394  0.00  0.00    +0.020 C 
ENDBRANCH  11  18
ENDBRANCH   1  11
BRANCH   6  21
ATOM     21  N   LIG    1       -4.732   1.014   0.028  0.00  0.00    -0.650 N 
ATOM     22  H   LIG    1       -5.470   1.442   0.489  0.00  0.00    +0.420 HD
BRANCH  21  23
ATOM     23  C   LIG    1       -4.694  -0.379  -0.085  0.00  0.00    +0.110 A 
ATOM     24  C   LIG    1       -5.873  -1.113  -0.184  0.00  0.00    +0.030 A 
ATOM     25  C   LIG    1       -5.784  -2.491  -0.299  0.00  0.00    -0.010 A 
ATOM     26  C   LIG    1       -4.537  -3.088  -0.302  0.00  0.00    +0.240 A 
ATOM     27  N   LIG    1       -3.438  -2.366  -0.201  0.00  0.00    -0.470 NA
ATOM     28  C   LIG    1       -3.478  -1.053  -0.095  0.00  0.00    +0.280 A 
ENDBRANCH  21  23
ENDBRANCH   6  21
TORSDOF 4
