REMARK  Name = ZINCrH00000No4Ir.0
REMARK                            x       y       z     vdW  Elec       q    Type
REMARK                         _______ _______ _______ _____ _____    ______ ____
ROOT
ATOM      1  C   LIG    1       -1.868   7.544  -3.617  0.00  0.00    -0.710 A 
ATOM      2  C   LIG    1       -1.010   8.220  -2.762  0.00  0.00    +0.180 A 
ATOM      3  C   LIG    1       -0.228   7.528  -1.860  0.00  0.00    -0.030 A 
ATOM      4  C   LIG    1       -0.296   6.141  -1.805  0.00  0.00    +0.250 A 
ATOM      5  N   LIG    1        0.475   5.431  -0.905  0.00  0.00    -0.610 N 
ATOM      6  H   LIG    1        1.072   5.904  -0.304  0.00  0.00    +0.430 HD
ATOM      7  C   LIG    1        0.409   4.060  -0.858  0.00  0.00    +0.440 A 
ATOM      8  C   LIG    1       -0.453   3.338  -1.715  0.00  0.00    -0.050 A 
ATOM      9  C   LIG    1       -1.231   3.991  -2.608  0.00  0.00    +0.140 A 
ATOM     10  N   LIG    1        1.162   3.405   0.009  0.00  0.00    -0.570 NA
ATOM     11  C   LIG    1       -1.165   5.454  -2.672  0.00  0.00    -0.150 A 
ATOM     12  C   LIG    1       -1.951   6.170  -3.579  0.00  0.00    +0.200 A 
ENDROOT
BRANCH  10  13
ATOM     13  C   LIG    1        1.198   2.039  -0.015  0.00  0.00    +0.090 A 
ATOM     14  C   LIG    1        1.572   1.356  -1.179  0.00  0.00    +0.010 A 
ATOM     15  C   LIG    1        1.592  -0.027  -1.150  0.00  0.00    -0.010 A 
ATOM     16  C   LIG    1        1.246  -0.685   0.017  0.00  0.00    +0.230 A 
ATOM     17  N   LIG    1        0.898  -0.017   1.099  0.00  0.00    -0.470 NA
ATOM     18  C   LIG    1        0.863   1.299   1.123  0.00  0.00    +0.250 A 
ENDBRANCH  10  13
BRANCH   1  19
ATOM     19  S   LIG    1       -2.858   8.450  -4.759  0.00  0.00    +2.690 S 
ATOM     20  O   LIG    1       -2.991   9.759  -4.224  0.00  0.00    -0.950 OA
ATOM     21  O   LIG    1       -3.969   7.621  -5.073  0.00  0.00    -0.950 OA
BRANCH  19  26
ATOM     22  C   LIG    1       -1.723  10.067 -10.142  0.00  0.00    +0.030 C 
ATOM     23  C   LIG    1       -1.399   9.390  -8.809  0.00  0.00    -0.020 C 
ATOM     24  C   LIG    1       -2.425   8.289  -8.534  0.00  0.00    +0.020 C 
ATOM     25  C   LIG    1       -2.077   7.590  -7.215  0.00  0.00    +0.280 C 
ATOM     26  N   LIG    1       -1.980   8.603  -6.155  0.00  0.00    -1.000 NA
ATOM     27  C   LIG    1       -1.093   9.756  -6.359  0.00  0.00    +0.280 C 
ATOM     28  C   LIG    1       -1.448  10.428  -7.685  0.00  0.00    +0.020 C 
ENDBRANCH  19  26
ENDBRANCH   1  19
TORSDOF 3
