REMARK  Name = ZINCvU0000000HDp.0
REMARK                            x       y       z     vdW  Elec       q    Type
REMARK                         _______ _______ _______ _____ _____    ______ ____
ROOT
ATOM      1  C   LIG    1        5.305   3.669   6.772  0.00  0.00    -0.680 A 
ATOM      2  C   LIG    1        6.165   3.414   5.719  0.00  0.00    +0.160 A 
ATOM      3  C   LIG    1        5.710   2.755   4.591  0.00  0.00    +0.010 A 
ATOM      4  C   LIG    1        4.397   2.341   4.512  0.00  0.00    +0.100 A 
ATOM      5  C   LIG    1        3.522   2.600   5.569  0.00  0.00    -0.150 A 
ATOM      6  C   LIG    1        3.987   3.266   6.704  0.00  0.00    +0.210 A 
ENDROOT
BRANCH   5   7
ATOM      7  C   LIG    1        2.112   2.166   5.490  0.00  0.00    +0.580 C 
ATOM      8  N   LIG    1        1.666   1.522   4.392  0.00  0.00    -0.590 N 
ATOM      9  H   LIG    1        2.271   1.345   3.655  0.00  0.00    +0.380 HD
ATOM     10  O   LIG    1        1.354   2.388   6.414  0.00  0.00    -0.490 OA
BRANCH   8  11
ATOM     11  N   LIG    1        0.329   1.111   4.317  0.00  0.00    -0.230 NA
ATOM     12  C   LIG    1       -0.072   0.419   3.317  0.00  0.00    +0.110 C 
ATOM     13  C   LIG    1        0.844   0.147   2.144  0.00  0.00    +0.030 C 
ATOM     14  C   LIG    1        0.112   0.533   0.854  0.00  0.00    -0.010 C 
ATOM     15  C   LIG    1       -1.228  -0.202   0.791  0.00  0.00    +0.030 C 
ATOM     16  C   LIG    1       -2.123   0.251   1.946  0.00  0.00    -0.060 C 
ATOM     17  C   LIG    1       -2.293   1.770   1.895  0.00  0.00    +0.020 C 
ATOM     18  C   LIG    1       -3.492  -0.422   1.825  0.00  0.00    +0.040 C 
ATOM     19  C   LIG    1        0.966   0.143  -0.353  0.00  0.00    +0.020 C 
ATOM     20  C   LIG    1       -1.475  -0.146   3.277  0.00  0.00    +0.130 C 
ENDBRANCH   8  11
ENDBRANCH   5   7
BRANCH   1  21
ATOM     21  S   LIG    1        5.894   4.510   8.204  0.00  0.00    +2.690 S 
ATOM     22  O   LIG    1        4.758   5.101   8.819  0.00  0.00    -0.940 OA
ATOM     23  O   LIG    1        7.031   5.257   7.792  0.00  0.00    -0.940 OA
BRANCH  21  24
ATOM     24  N   LIG    1        6.449   3.357   9.256  0.00  0.00    -1.050 N 
ATOM     25  H   LIG    1        6.053   3.275  10.138  0.00  0.00    +0.430 HD
BRANCH  24  30
ATOM     26  C   LIG    1       10.658  -0.111   7.702  0.00  0.00    +0.090 C 
ATOM     27  C   LIG    1        9.539   0.811   8.115  0.00  0.00    -0.090 A 
ATOM     28  C   LIG    1        9.538   2.127   7.691  0.00  0.00    +0.030 A 
ATOM     29  C   LIG    1        8.511   2.973   8.063  0.00  0.00    -0.010 A 
ATOM     30  C   LIG    1        7.485   2.503   8.873  0.00  0.00    +0.140 A 
ATOM     31  C   LIG    1        7.490   1.180   9.297  0.00  0.00    -0.100 A 
ATOM     32  C   LIG    1        6.376   0.664  10.171  0.00  0.00    +0.080 C 
ATOM     33  C   LIG    1        8.516   0.338   8.917  0.00  0.00    +0.030 A 
ENDBRANCH  24  30
ENDBRANCH  21  24
ENDBRANCH   1  21
TORSDOF 5
