REMARK  Name = ZINCpe000000Vnln.0
REMARK                            x       y       z     vdW  Elec       q    Type
REMARK                         _______ _______ _______ _____ _____    ______ ____
ROOT
ATOM      1  N   LIG    1       -2.094   1.000  -3.188  0.00  0.00    -0.730 N 
ATOM      2  H   LIG    1       -2.187   1.959  -3.300  0.00  0.00    +0.410 HD
ATOM      3  C   LIG    1       -2.658   0.160  -4.077  0.00  0.00    +0.500 C 
ATOM      4  O   LIG    1       -2.542  -1.040  -3.936  0.00  0.00    -0.520 OA
ENDROOT
BRANCH   1   5
ATOM      5  C   LIG    1       -1.342   0.466  -2.050  0.00  0.00    +0.310 C 
BRANCH   5   6
ATOM      6  C   LIG    1       -0.811   1.623  -1.201  0.00  0.00    -0.100 C 
ATOM      7  C   LIG    1       -0.013   1.086   0.008  0.00  0.00    +0.070 C 
ATOM      8  C   LIG    1       -0.788   1.610   1.237  0.00  0.00    +0.210 C 
ATOM      9  O   LIG    1       -1.501   2.772   0.753  0.00  0.00    -0.370 OA
ATOM     10  C   LIG    1       -1.978   2.408  -0.561  0.00  0.00    +0.240 C 
BRANCH   6  11
ATOM     11  C   LIG    1        0.046   2.539  -2.035  0.00  0.00    +0.480 C 
ATOM     12  O   LIG    1        1.190   2.755  -1.713  0.00  0.00    -0.490 OA
BRANCH  11  14
ATOM     13  C   LIG    1        0.423   3.984  -3.893  0.00  0.00    +0.280 C 
ATOM     14  O   LIG    1       -0.461   3.114  -3.137  0.00  0.00    -0.360 OA
ENDBRANCH  11  14
ENDBRANCH   6  11
ENDBRANCH   5   6
ENDBRANCH   1   5
BRANCH   3  15
ATOM     15  C   LIG    1       -3.432   0.709  -5.248  0.00  0.00    +0.330 C 
BRANCH  15  16
ATOM     16  N   LIG    1       -3.940  -0.399  -6.061  0.00  0.00    -0.530 N 
ATOM     17  C   LIG    1       -5.143  -0.876  -5.750  0.00  0.00    +0.530 C 
ATOM     18  C   LIG    1       -5.808  -1.999  -6.497  0.00  0.00    +0.150 C 
ATOM     19  S   LIG    1       -5.374  -1.875  -8.257  0.00  0.00    -0.080 S 
ATOM     20  C   LIG    1       -3.640  -1.556  -8.180  0.00  0.00    -0.130 A 
ATOM     21  C   LIG    1       -2.805  -1.998  -9.193  0.00  0.00    +0.080 A 
ATOM     22  C   LIG    1       -1.447  -1.747  -9.126  0.00  0.00    +0.010 A 
ATOM     23  C   LIG    1       -0.926  -1.056  -8.047  0.00  0.00    +0.050 A 
ATOM     24  C   LIG    1       -1.754  -0.612  -7.035  0.00  0.00    +0.000 A 
ATOM     25  O   LIG    1       -5.733  -0.380  -4.813  0.00  0.00    -0.510 OA
ATOM     26  C   LIG    1       -3.123  -0.854  -7.093  0.00  0.00    +0.170 A 
ENDBRANCH  15  16
ENDBRANCH   3  15
TORSDOF 6
