REMARK  Name = ZINCrH000004s1uL.0
REMARK                            x       y       z     vdW  Elec       q    Type
REMARK                         _______ _______ _______ _____ _____    ______ ____
ROOT
ATOM      1  C   LIG    1       -0.914   1.506   1.454  0.00  0.00    +0.030 C 
ATOM      2  C   LIG    1       -0.141   1.064   0.210  0.00  0.00    +0.030 C 
ATOM      3  C   LIG    1       -0.917   1.481  -1.044  0.00  0.00    +0.270 C 
ATOM      4  N   LIG    1       -2.281   0.941  -0.958  0.00  0.00    -0.590 N 
ATOM      5  C   LIG    1       -3.081   1.231   0.240  0.00  0.00    +0.270 C 
ATOM      6  C   LIG    1       -2.788   0.195  -1.959  0.00  0.00    +0.600 C 
ATOM      7  O   LIG    1       -2.160   0.053  -2.990  0.00  0.00    -0.540 OA
ATOM      8  C   LIG    1       -2.281   0.816   1.479  0.00  0.00    +0.030 C 
ENDROOT
BRANCH   1  15
ATOM      9  C   LIG    1       -0.224   3.524   3.404  0.00  0.00    +0.090 C 
ATOM     10  C   LIG    1        0.193   2.093   3.621  0.00  0.00    -0.080 A 
ATOM     11  C   LIG    1        0.906   1.745   4.753  0.00  0.00    +0.000 A 
ATOM     12  C   LIG    1        1.288   0.432   4.953  0.00  0.00    +0.000 A 
ATOM     13  C   LIG    1        0.958  -0.534   4.021  0.00  0.00    +0.000 A 
ATOM     14  C   LIG    1        0.241  -0.187   2.891  0.00  0.00    +0.010 A 
ATOM     15  C   LIG    1       -0.137   1.127   2.689  0.00  0.00    -0.080 A 
ENDBRANCH   1  15
BRANCH   6  16
ATOM     16  C   LIG    1       -4.106  -0.448  -1.804  0.00  0.00    -0.070 A 
ATOM     17  C   LIG    1       -4.795  -1.118  -2.767  0.00  0.00    +0.040 A 
ATOM     18  O   LIG    1       -5.941  -1.545  -2.210  0.00  0.00    -0.190 OA
ATOM     19  C   LIG    1       -5.962  -1.138  -0.928  0.00  0.00    +0.290 A 
ATOM     20  C   LIG    1       -4.355  -1.342  -4.191  0.00  0.00    +0.200 C 
ATOM     21  N   LIG    1       -4.861  -0.476  -0.673  0.00  0.00    -0.460 NA
BRANCH  19  22
ATOM     22  C   LIG    1       -7.051  -1.397   0.037  0.00  0.00    -0.180 A 
ATOM     23  C   LIG    1       -8.209  -2.081  -0.214  0.00  0.00    +0.300 A 
ATOM     24  N   LIG    1       -8.927  -2.095   0.925  0.00  0.00    -0.360 N 
ATOM     25  N   LIG    1       -8.211  -1.398   1.905  0.00  0.00    -0.290 NA
ATOM     26  C   LIG    1      -10.237  -2.725   1.105  0.00  0.00    +0.370 C 
ATOM     27  C   LIG    1       -7.090  -0.978   1.383  0.00  0.00    +0.300 A 
ENDBRANCH  19  22
ENDBRANCH   6  16
TORSDOF 3
