REMARK  Name = ZINCvU0000000IRy.0
REMARK                            x       y       z     vdW  Elec       q    Type
REMARK                         _______ _______ _______ _____ _____    ______ ____
ROOT
ATOM      1  N   LIG    1        1.142   2.159   0.341  0.00  0.00    -0.610 N 
ATOM      2  H   LIG    1        1.984   1.694   0.465  0.00  0.00    +0.430 HD
ATOM      3  C   LIG    1       -0.013   1.465   0.316  0.00  0.00    +0.610 C 
ATOM      4  O   LIG    1       -1.070   2.047   0.155  0.00  0.00    -0.480 OA
ENDROOT
BRANCH   1   8
ATOM      5  C   LIG    1        1.967   5.605   0.034  0.00  0.00    +0.130 A 
ATOM      6  C   LIG    1        0.681   5.971  -0.117  0.00  0.00    -0.110 A 
ATOM      7  S   LIG    1       -0.317   4.520  -0.045  0.00  0.00    +0.210 S 
ATOM      8  C   LIG    1        1.126   3.538   0.188  0.00  0.00    +0.270 A 
ATOM      9  N   LIG    1        2.172   4.306   0.200  0.00  0.00    -0.490 NA
BRANCH   5  13
ATOM     10  C   LIG    1        5.152   8.424   0.002  0.00  0.00    +0.150 A 
ATOM     11  C   LIG    1        5.424   7.072   0.174  0.00  0.00    +0.020 A 
ATOM     12  C   LIG    1        4.393   6.156   0.185  0.00  0.00    +0.080 A 
ATOM     13  C   LIG    1        3.077   6.588   0.023  0.00  0.00    -0.040 A 
ATOM     14  C   LIG    1        2.808   7.944  -0.154  0.00  0.00    +0.050 A 
ATOM     15  C   LIG    1        3.842   8.856  -0.159  0.00  0.00    -0.020 A 
BRANCH  10  18
ATOM     16  C   LIG    1        8.562   9.961  -0.420  0.00  0.00    +0.110 C 
ATOM     17  C   LIG    1        7.400   9.006  -0.516  0.00  0.00    +0.510 C 
ATOM     18  N   LIG    1        6.200   9.351  -0.009  0.00  0.00    -0.680 N 
ATOM     19  H   LIG    1        6.063  10.242   0.349  0.00  0.00    +0.410 HD
ATOM     20  O   LIG    1        7.545   7.926  -1.049  0.00  0.00    -0.520 OA
ENDBRANCH  10  18
ENDBRANCH   5  13
ENDBRANCH   1   8
BRANCH   3  21
ATOM     21  C   LIG    1        0.003   0.008   0.477  0.00  0.00    -0.070 A 
ATOM     22  C   LIG    1       -1.089  -0.813   0.472  0.00  0.00    +0.070 A 
ATOM     23  C   LIG    1       -0.612  -2.120   0.656  0.00  0.00    -0.010 A 
ATOM     24  C   LIG    1        0.733  -2.041   0.765  0.00  0.00    +0.020 A 
ATOM     25  O   LIG    1        1.100  -0.758   0.650  0.00  0.00    -0.150 OA
BRANCH  24  26
ATOM     26  C   LIG    1        1.666  -3.206   0.974  0.00  0.00    +0.330 C 
BRANCH  26  27
ATOM     27  O   LIG    1        2.077  -3.720  -0.294  0.00  0.00    -0.310 OA
BRANCH  27  28
ATOM     28  C   LIG    1        2.926  -4.781  -0.284  0.00  0.00    +0.130 A 
ATOM     29  C   LIG    1        3.360  -5.312   0.922  0.00  0.00    -0.080 A 
ATOM     30  C   LIG    1        4.219  -6.394   0.930  0.00  0.00    +0.050 A 
ATOM     31  C   LIG    1        4.656  -6.940  -0.263  0.00  0.00    -0.020 A 
ATOM     32  C   LIG    1        4.229  -6.409  -1.466  0.00  0.00    +0.050 A 
ATOM     33  C   LIG    1        3.366  -5.331  -1.479  0.00  0.00    -0.020 A 
ENDBRANCH  27  28
ENDBRANCH  26  27
ENDBRANCH  24  26
ENDBRANCH   3  21
TORSDOF 7
