REMARK  Name = ZINCbw0000000Hml.0
REMARK                            x       y       z     vdW  Elec       q    Type
REMARK                         _______ _______ _______ _____ _____    ______ ____
ROOT
ATOM      1 CL   LIG    1        3.736   2.373  -0.020  0.00  0.00    +0.010 Cl
ATOM      2  C   LIG    1        2.279   1.430  -0.012  0.00  0.00    +0.240 A 
ATOM      3  C   LIG    1        2.339   0.044  -0.020  0.00  0.00    -0.040 A 
ATOM      4  C   LIG    1        1.149  -0.667  -0.013  0.00  0.00    +0.240 A 
ATOM      5  N   LIG    1        0.002  -0.004   0.002  0.00  0.00    -0.510 NA
ATOM      6  C   LIG    1       -0.016   1.314   0.009  0.00  0.00    +0.400 A 
ATOM      7 CL   LIG    1        1.161  -2.403  -0.021  0.00  0.00    +0.010 Cl
ATOM      8  N   LIG    1        1.095   2.023   0.003  0.00  0.00    -0.510 NA
ENDROOT
BRANCH   6   9
ATOM      9  C   LIG    1       -1.342   2.029   0.019  0.00  0.00    +0.030 C 
ATOM     10  C   LIG    1       -1.329   3.546  -0.179  0.00  0.00    +0.070 C 
ATOM     11  C   LIG    1       -1.636   2.957   1.200  0.00  0.00    +0.060 C 
ENDBRANCH   6   9
TORSDOF 1
