REMARK  Name = ZINCfA000000bmmx.0
REMARK                            x       y       z     vdW  Elec       q    Type
REMARK                         _______ _______ _______ _____ _____    ______ ____
ROOT
ATOM      1  N   LIG    1       -0.057  -0.113  -2.444  0.00  0.00    -0.510 N 
ATOM      2  H   LIG    1       -0.143   0.892  -2.478  0.00  0.00    +0.430 HD
ATOM      3  H   LIG    1       -0.975  -0.528  -2.395  0.00  0.00    +0.430 HD
ENDROOT
BRANCH   1   4
ATOM      4  C   LIG    1        0.718  -0.497  -1.257  0.00  0.00    +0.270 C 
BRANCH   4   5
ATOM      5  C   LIG    1        0.002  -0.004   0.002  0.00  0.00    -0.010 C 
ATOM      6  C   LIG    1       -0.019   1.526   0.010  0.00  0.00    +0.040 C 
BRANCH   5   7
ATOM      7  C   LIG    1        0.742  -0.511   1.242  0.00  0.00    +0.060 C 
BRANCH   7   9
ATOM      8  C   LIG    1        0.758  -0.520   3.740  0.00  0.00    +0.020 C 
ATOM      9  C   LIG    1       -0.042  -0.124   2.497  0.00  0.00    +0.160 C 
BRANCH   9  10
ATOM     10  O   LIG    1       -1.298  -0.804   2.503  0.00  0.00    -0.570 OA
ATOM     11  H   LIG    1       -1.850  -0.605   3.272  0.00  0.00    +0.390 HD
ENDBRANCH   9  10
ENDBRANCH   7   9
ENDBRANCH   5   7
ENDBRANCH   4   5
ENDBRANCH   1   4
BRANCH   1  12
ATOM     12  C   LIG    1        0.630  -0.587  -3.652  0.00  0.00    +0.370 C 
BRANCH  12  13
ATOM     13  C   LIG    1       -0.165  -0.192  -4.870  0.00  0.00    -0.280 A 
ATOM     14  C   LIG    1       -0.024   0.951  -5.544  0.00  0.00    -0.050 A 
ATOM     15  C   LIG    1       -0.865   1.093  -6.634  0.00  0.00    +0.030 A 
ATOM     16  C   LIG    1       -1.694   0.069  -6.841  0.00  0.00    +0.030 A 
ATOM     17 BR   LIG    1        1.233   2.275  -5.049  0.00  0.00    -0.000 Br
ATOM     18  S   LIG    1       -1.426  -1.165  -5.616  0.00  0.00    +0.210 S 
ENDBRANCH  12  13
ENDBRANCH   1  12
TORSDOF 7
