REMARK  Name = ZINCnE000005tzrS.0
REMARK                            x       y       z     vdW  Elec       q    Type
REMARK                         _______ _______ _______ _____ _____    ______ ____
ROOT
ATOM      1  C   LIG    1       -1.169   1.864   0.017  0.00  0.00    +0.540 C 
ATOM      2  N   LIG    1       -0.081   1.070  -0.023  0.00  0.00    -0.720 N 
ATOM      3  H   LIG    1       -0.184   0.106  -0.049  0.00  0.00    +0.390 HD
ATOM      4  O   LIG    1       -1.043   3.069  -0.040  0.00  0.00    -0.530 OA
ENDROOT
BRANCH   1   7
ATOM      5  C   LIG    1       -3.738   2.209   0.170  0.00  0.00    +0.040 C 
ATOM      6  C   LIG    1       -3.469   1.371  -1.082  0.00  0.00    +0.070 C 
ATOM      7  C   LIG    1       -2.543   1.254   0.130  0.00  0.00    -0.050 C 
BRANCH   5  14
ATOM      8  C   LIG    1       -4.571   3.923   2.342  0.00  0.00    +0.100 C 
ATOM      9  C   LIG    1       -5.311   2.638   2.069  0.00  0.00    -0.070 A 
ATOM     10  C   LIG    1       -6.387   2.280   2.858  0.00  0.00    +0.000 A 
ATOM     11  C   LIG    1       -7.066   1.102   2.608  0.00  0.00    +0.000 A 
ATOM     12  C   LIG    1       -6.668   0.282   1.569  0.00  0.00    -0.010 A 
ATOM     13  C   LIG    1       -5.593   0.643   0.777  0.00  0.00    +0.000 A 
ATOM     14  C   LIG    1       -4.912   1.818   1.030  0.00  0.00    -0.050 A 
ENDBRANCH   5  14
ENDBRANCH   1   7
BRANCH   2  15
ATOM     15  C   LIG    1        1.259   1.663  -0.032  0.00  0.00    +0.350 C 
BRANCH  15  16
ATOM     16  C   LIG    1        2.236   0.708   0.604  0.00  0.00    -0.150 A 
ATOM     17  C   LIG    1        3.232   1.056   1.420  0.00  0.00    +0.050 A 
ATOM     18  C   LIG    1        4.000   0.002   1.885  0.00  0.00    +0.010 A 
ATOM     19  C   LIG    1        3.633  -1.200   1.440  0.00  0.00    -0.060 A 
ATOM     20  S   LIG    1        2.241  -1.036   0.377  0.00  0.00    +0.050 S 
ENDBRANCH  15  16
BRANCH  15  21
ATOM     21  C   LIG    1        1.684   1.942  -1.475  0.00  0.00    -0.060 C 
BRANCH  21  22
ATOM     22  C   LIG    1        2.988   2.698  -1.477  0.00  0.00    +0.500 C 
ATOM     23  O   LIG    1        3.562   2.919  -2.530  0.00  0.00    -0.700 OA
ATOM     24  O   LIG    1        3.469   3.087  -0.427  0.00  0.00    -0.690 OA
ENDBRANCH  21  22
ENDBRANCH  15  21
ENDBRANCH   2  15
TORSDOF 6
