REMARK  Name = ZINCqH0000004yEc.0
REMARK                            x       y       z     vdW  Elec       q    Type
REMARK                         _______ _______ _______ _____ _____    ______ ____
ROOT
ATOM      1  N   LIG    1       -2.206  -1.070   1.035  0.00  0.00    -0.420 N 
ATOM      2  C   LIG    1       -2.893  -0.642  -0.201  0.00  0.00    +0.220 C 
ATOM      3  C   LIG    1       -3.326  -2.092  -0.385  0.00  0.00    -0.110 C 
ATOM      4  C   LIG    1       -4.630  -2.462  -1.087  0.00  0.00    +0.030 C 
ATOM      5  C   LIG    1       -3.765  -2.815  -2.312  0.00  0.00    +0.150 C 
ATOM      6  C   LIG    1       -2.597  -3.039  -1.334  0.00  0.00    +0.080 C 
ATOM      7  C   LIG    1       -3.169  -2.186   1.128  0.00  0.00    +0.220 C 
ENDROOT
BRANCH   1  16
ATOM      8  C   LIG    1       -0.181   1.243   1.730  0.00  0.00    -0.120 A 
ATOM      9  C   LIG    1        0.253   2.305   2.428  0.00  0.00    +0.230 A 
ATOM     10  N   LIG    1       -0.656   2.624   3.403  0.00  0.00    -0.570 N 
ATOM     11  H   LIG    1       -0.563   3.356   4.032  0.00  0.00    +0.420 HD
ATOM     12  C   LIG    1       -1.712   1.755   3.361  0.00  0.00    +0.320 A 
ATOM     13  N   LIG    1       -2.832   1.618   4.067  0.00  0.00    -0.540 NA
ATOM     14  C   LIG    1       -3.688   0.658   3.791  0.00  0.00    +0.530 A 
ATOM     15  N   LIG    1       -3.494  -0.212   2.816  0.00  0.00    -0.570 NA
ATOM     16  C   LIG    1       -2.405  -0.157   2.054  0.00  0.00    +0.370 A 
ATOM     17  C   LIG    1       -1.463   0.850   2.312  0.00  0.00    -0.190 A 
BRANCH   8  19
ATOM     18  C   LIG    1        1.317  -0.624   1.082  0.00  0.00    +0.030 C 
ATOM     19  C   LIG    1        0.521   0.580   0.573  0.00  0.00    +0.090 C 
ENDBRANCH   8  19
ENDBRANCH   1  16
BRANCH   5  20
ATOM     20  O   LIG    1       -4.183  -4.004  -2.985  0.00  0.00    -0.370 OA
BRANCH  20  21
ATOM     21  C   LIG    1       -4.719  -3.776  -4.290  0.00  0.00    +0.220 C 
BRANCH  21  22
ATOM     22  C   LIG    1       -5.125  -5.091  -4.903  0.00  0.00    -0.090 A 
ATOM     23  C   LIG    1       -4.218  -5.810  -5.660  0.00  0.00    +0.020 A 
ATOM     24  C   LIG    1       -4.589  -7.019  -6.218  0.00  0.00    +0.000 A 
ATOM     25  C   LIG    1       -5.870  -7.504  -6.029  0.00  0.00    +0.010 A 
ATOM     26  C   LIG    1       -6.778  -6.783  -5.277  0.00  0.00    +0.000 A 
ATOM     27  C   LIG    1       -6.406  -5.576  -4.714  0.00  0.00    +0.020 A 
ENDBRANCH  21  22
ENDBRANCH  20  21
ENDBRANCH   5  20
TORSDOF 5
