REMARK  Name = ZINCnE000001TBCn.2
REMARK                            x       y       z     vdW  Elec       q    Type
REMARK                         _______ _______ _______ _____ _____    ______ ____
ROOT
ATOM      1  C   LIG    1       -2.151   5.034   1.314  0.00  0.00    -0.080 C 
ATOM      2  C   LIG    1       -0.666   4.737   1.090  0.00  0.00    +0.020 C 
ATOM      3  C   LIG    1       -0.497   3.998  -0.242  0.00  0.00    +0.040 C 
ATOM      4  C   LIG    1       -1.373   2.747  -0.233  0.00  0.00    +0.100 C 
ATOM      5  N   LIG    1       -2.783   3.036   0.043  0.00  0.00    -0.520 NA
ATOM      6  C   LIG    1       -1.160   1.842  -1.454  0.00  0.00    +0.010 C 
ATOM      7  C   LIG    1       -0.059   1.140  -0.639  0.00  0.00    -0.000 C 
ATOM      8  C   LIG    1       -0.800   1.609   0.625  0.00  0.00    -0.030 C 
ATOM      9  C   LIG    1       -2.937   3.721   1.334  0.00  0.00    +0.200 C 
ENDROOT
BRANCH   1  11
ATOM     10  O   LIG    1       -1.781   6.818   2.822  0.00  0.00    -0.700 OA
ATOM     11  C   LIG    1       -2.328   5.745   2.630  0.00  0.00    +0.500 C 
ATOM     12  O   LIG    1       -3.018   5.248   3.504  0.00  0.00    -0.700 OA
ENDBRANCH   1  11
BRANCH   5  13
ATOM     13  C   LIG    1       -3.591   1.810  -0.002  0.00  0.00    +0.210 C 
BRANCH  13  14
ATOM     14  C   LIG    1       -5.012   2.130   0.382  0.00  0.00    -0.070 A 
ATOM     15  C   LIG    1       -5.389   2.056   1.688  0.00  0.00    +0.050 A 
ATOM     16  C   LIG    1       -6.713   2.359   2.046  0.00  0.00    -0.100 A 
ATOM     17  C   LIG    1       -7.141   2.299   3.386  0.00  0.00    +0.090 A 
ATOM     18  C   LIG    1       -8.444   2.602   3.660  0.00  0.00    -0.040 A 
ATOM     19  C   LIG    1       -9.307   2.958   2.626  0.00  0.00    +0.290 A 
ATOM     20  N   LIG    1       -8.905   3.013   1.379  0.00  0.00    -0.480 NA
ATOM     21  C   LIG    1       -7.643   2.729   1.044  0.00  0.00    +0.130 A 
ATOM     22  C   LIG    1       -7.217   2.789  -0.295  0.00  0.00    +0.030 A 
ATOM     23  C   LIG    1       -5.926   2.493  -0.607  0.00  0.00    +0.050 A 
ENDBRANCH  13  14
ENDBRANCH   5  13
TORSDOF 3
