REMARK  Name = ZINCrD00000F5Lk1.0
REMARK                            x       y       z     vdW  Elec       q    Type
REMARK                         _______ _______ _______ _____ _____    ______ ____
ROOT
ATOM      1  N   LIG    1        1.028  -2.758   0.072  0.00  0.00    -0.460 N 
ENDROOT
BRANCH   1   6
ATOM      2  N   LIG    1        0.373   1.835  -0.020  0.00  0.00    -0.470 N 
ATOM      3  C   LIG    1       -0.796   1.146  -0.151  0.00  0.00    +0.500 A 
ATOM      4  N   LIG    1       -0.564  -0.134  -0.120  0.00  0.00    -0.460 NA
ATOM      5  C   LIG    1        0.765  -0.347   0.033  0.00  0.00    -0.060 A 
ATOM      6  C   LIG    1        1.578  -1.489   0.130  0.00  0.00    +0.420 A 
ATOM      7  N   LIG    1        2.889  -1.323   0.280  0.00  0.00    -0.570 NA
ATOM      8  C   LIG    1        3.423  -0.117   0.336  0.00  0.00    +0.550 A 
ATOM      9  N   LIG    1        2.701   0.980   0.250  0.00  0.00    -0.530 NA
ATOM     10  C   LIG    1        1.382   0.913   0.099  0.00  0.00    +0.290 A 
BRANCH   2  12
ATOM     11  C   LIG    1        0.864   3.781  -1.418  0.00  0.00    +0.030 C 
ATOM     12  C   LIG    1        0.524   3.292  -0.009  0.00  0.00    +0.310 C 
ENDBRANCH   2  12
ENDBRANCH   1   6
BRANCH   1  13
ATOM     13  C   LIG    1        0.249  -2.938  -1.160  0.00  0.00    +0.350 C 
BRANCH  13  14
ATOM     14  C   LIG    1       -0.623  -4.160  -1.030  0.00  0.00    -0.030 A 
ATOM     15  C   LIG    1       -1.854  -4.194  -0.489  0.00  0.00    -0.010 A 
ATOM     16  C   LIG    1       -2.301  -5.532  -0.572  0.00  0.00    -0.070 A 
ATOM     17  C   LIG    1       -1.317  -6.237  -1.159  0.00  0.00    +0.000 A 
ATOM     18  C   LIG    1       -1.347  -7.713  -1.457  0.00  0.00    +0.170 C 
ATOM     19  O   LIG    1       -0.305  -5.399  -1.439  0.00  0.00    -0.170 OA
ENDBRANCH  13  14
ENDBRANCH   1  13
BRANCH   1  20
ATOM     20  C   LIG    1        2.067  -3.789   0.195  0.00  0.00    +0.230 C 
BRANCH  20  21
ATOM     21  C   LIG    1        2.514  -3.891   1.654  0.00  0.00    +0.350 C 
BRANCH  21  22
ATOM     22  N   LIG    1        3.484  -4.981   1.793  0.00  0.00    -0.360 N 
ATOM     23  C   LIG    1        4.725  -4.878   2.316  0.00  0.00    +0.260 A 
ATOM     24  C   LIG    1        5.296  -6.104   2.264  0.00  0.00    -0.190 A 
ATOM     25  C   LIG    1        4.373  -6.985   1.689  0.00  0.00    +0.250 A 
ATOM     26 CL   LIG    1        6.892  -6.512   2.811  0.00  0.00    -0.040 Cl
ATOM     27  N   LIG    1        3.285  -6.314   1.411  0.00  0.00    -0.280 NA
ENDBRANCH  21  22
ENDBRANCH  20  21
ENDBRANCH   1  20
TORSDOF 7
