REMARK  Name = ZINCnE000001PaGJ.1
REMARK                            x       y       z     vdW  Elec       q    Type
REMARK                         _______ _______ _______ _____ _____    ______ ____
ROOT
ATOM      1  S   LIG    1        1.689   1.714  -0.005  0.00  0.00    +0.060 S 
ENDROOT
BRANCH   1   2
ATOM      2  C   LIG    1        2.415   0.919   1.390  0.00  0.00    +0.150 A 
ATOM      3  N   LIG    1        1.816   0.087   2.212  0.00  0.00    -0.250 NA
ATOM      4  N   LIG    1        2.636  -0.312   3.120  0.00  0.00    -0.250 NA
ATOM      5  C   LIG    1        3.813   0.256   2.935  0.00  0.00    +0.180 A 
ATOM      6  C   LIG    1        5.044   0.183   3.621  0.00  0.00    +0.020 A 
ATOM      7  C   LIG    1        6.101   0.910   3.168  0.00  0.00    +0.090 A 
ATOM      8  C   LIG    1        5.955   1.722   2.027  0.00  0.00    -0.060 A 
ATOM      9  C   LIG    1        4.774   1.784   1.379  0.00  0.00    +0.290 A 
ATOM     10 CL   LIG    1        7.305   2.650   1.451  0.00  0.00    -0.020 Cl
ATOM     11 CL   LIG    1        5.208  -0.823   5.026  0.00  0.00    -0.010 Cl
ATOM     12  N   LIG    1        3.701   1.060   1.821  0.00  0.00    -0.380 N 
ENDBRANCH   1   2
BRANCH   1  13
ATOM     13  C   LIG    1       -0.013   1.086   0.008  0.00  0.00    +0.060 C 
ATOM     14  C   LIG    1       -0.729   1.579   1.267  0.00  0.00    +0.080 C 
BRANCH  13  16
ATOM     15  N   LIG    1       -1.854   0.954  -1.639  0.00  0.00    -0.660 NA
ATOM     16  C   LIG    1       -0.742   1.585  -1.213  0.00  0.00    +0.470 C 
ATOM     17  O   LIG    1       -0.328   2.555  -1.812  0.00  0.00    -0.600 OA
BRANCH  15  22
ATOM     18  C   LIG    1       -5.056   1.593  -5.397  0.00  0.00    +0.140 C 
ATOM     19  C   LIG    1       -3.914   1.718  -4.422  0.00  0.00    +0.010 A 
ATOM     20  N   LIG    1       -2.971   2.618  -4.437  0.00  0.00    -0.420 NA
ATOM     21  O   LIG    1       -2.194   2.470  -3.522  0.00  0.00    +0.040 OA
ATOM     22  C   LIG    1       -2.525   1.413  -2.763  0.00  0.00    +0.260 A 
ATOM     23  C   LIG    1       -3.656   0.885  -3.314  0.00  0.00    -0.190 A 
ENDBRANCH  15  22
ENDBRANCH  13  16
ENDBRANCH   1  13
TORSDOF 4
