REMARK  Name = ZINCvU0000000AHW.0
REMARK                            x       y       z     vdW  Elec       q    Type
REMARK                         _______ _______ _______ _____ _____    ______ ____
ROOT
ATOM      1  C   LIG    1        3.123  -4.470  -1.909  0.00  0.00    +0.150 A 
ATOM      2  C   LIG    1        3.914  -3.540  -2.456  0.00  0.00    -0.040 A 
ATOM      3  S   LIG    1        3.269  -1.981  -1.913  0.00  0.00    +0.000 S 
ATOM      4  C   LIG    1        1.950  -2.693  -0.965  0.00  0.00    +0.400 A 
ATOM      5  N   LIG    1        1.035  -2.057  -0.259  0.00  0.00    -0.530 NA
ATOM      6  N   LIG    1        2.090  -4.042  -1.118  0.00  0.00    -0.490 N 
ENDROOT
BRANCH   1  11
ATOM      7  C   LIG    1        4.045 -10.076  -2.828  0.00  0.00    +0.100 C 
ATOM      8  C   LIG    1        3.803  -8.608  -2.587  0.00  0.00    -0.070 A 
ATOM      9  C   LIG    1        3.658  -7.749  -3.662  0.00  0.00    +0.010 A 
ATOM     10  C   LIG    1        3.437  -6.404  -3.448  0.00  0.00    +0.050 A 
ATOM     11  C   LIG    1        3.359  -5.911  -2.145  0.00  0.00    -0.060 A 
ATOM     12  C   LIG    1        3.511  -6.782  -1.065  0.00  0.00    +0.030 A 
ATOM     13  C   LIG    1        3.727  -8.126  -1.292  0.00  0.00    +0.010 A 
ENDBRANCH   1  11
BRANCH   5  14
ATOM     14  C   LIG    1        1.040  -0.691  -0.206  0.00  0.00    +0.120 A 
ATOM     15  C   LIG    1       -0.152   0.022  -0.356  0.00  0.00    +0.020 A 
ATOM     16  C   LIG    1       -0.139   1.400  -0.301  0.00  0.00    +0.030 A 
ATOM     17  C   LIG    1        1.051   2.077  -0.098  0.00  0.00    -0.010 A 
ATOM     18  C   LIG    1        2.236   1.377   0.051  0.00  0.00    +0.020 A 
ATOM     19  C   LIG    1        2.238  -0.001  -0.001  0.00  0.00    -0.040 A 
ENDBRANCH   5  14
BRANCH   6  20
ATOM     20  C   LIG    1        1.177  -4.987  -0.470  0.00  0.00    +0.300 C 
BRANCH  20  21
ATOM     21  C   LIG    1        0.071  -5.381  -1.452  0.00  0.00    +0.250 C 
BRANCH  21  22
ATOM     22  C   LIG    1       -0.869  -6.353  -0.786  0.00  0.00    -0.070 A 
ATOM     23  C   LIG    1       -1.907  -5.884  -0.003  0.00  0.00    +0.040 A 
ATOM     24  C   LIG    1       -2.772  -6.776   0.604  0.00  0.00    +0.110 A 
ATOM     25  C   LIG    1       -2.593  -8.136   0.435  0.00  0.00    -0.040 A 
ATOM     26  C   LIG    1       -1.551  -8.605  -0.343  0.00  0.00    +0.110 A 
ATOM     27  C   LIG    1       -0.689  -7.713  -0.954  0.00  0.00    +0.050 A 
BRANCH  25  28
ATOM     28  N   LIG    1       -3.516  -9.091   1.089  0.00  0.00    +0.030 N 
ATOM     29  O   LIG    1       -4.433  -8.677   1.776  0.00  0.00    -0.150 OA
ATOM     30  O   LIG    1       -3.358 -10.289   0.941  0.00  0.00    -0.160 OA
ENDBRANCH  25  28
ENDBRANCH  21  22
BRANCH  21  31
ATOM     31  O   LIG    1       -0.652  -4.215  -1.848  0.00  0.00    -0.540 OA
ATOM     32  H   LIG    1       -1.075  -3.746  -1.116  0.00  0.00    +0.380 HD
ENDBRANCH  21  31
ENDBRANCH  20  21
ENDBRANCH   6  20
TORSDOF 7
