REMARK  Name = ZINCrD00000lbQzi.0
REMARK                            x       y       z     vdW  Elec       q    Type
REMARK                         _______ _______ _______ _____ _____    ______ ____
ROOT
ATOM      1  N   LIG    1       -4.884   2.038   5.231  0.00  0.00    -1.000 NA
ATOM      2  C   LIG    1       -5.497   3.283   4.747  0.00  0.00    +0.310 C 
ATOM      3  C   LIG    1       -5.900   3.087   3.276  0.00  0.00    +0.290 C 
ATOM      4  N   LIG    1       -6.658   1.833   3.161  0.00  0.00    -0.590 N 
ATOM      5  C   LIG    1       -6.047   0.589   3.650  0.00  0.00    +0.280 C 
ATOM      6  C   LIG    1       -7.891   1.825   2.618  0.00  0.00    +0.600 C 
ATOM      7  O   LIG    1       -8.454   2.874   2.369  0.00  0.00    -0.530 OA
ATOM      8  C   LIG    1       -5.642   0.784   5.116  0.00  0.00    +0.280 C 
ENDROOT
BRANCH   6   9
ATOM      9  C   LIG    1       -8.558   0.545   2.325  0.00  0.00    +0.010 A 
ATOM     10  C   LIG    1       -9.850   0.473   1.937  0.00  0.00    -0.020 A 
ATOM     11  S   LIG    1      -10.271  -1.166   1.690  0.00  0.00    +0.200 S 
ATOM     12  C   LIG    1       -8.645  -1.670   2.134  0.00  0.00    +0.120 A 
ATOM     13  N   LIG    1       -7.931  -0.622   2.417  0.00  0.00    -0.440 NA
BRANCH  12  14
ATOM     14  C   LIG    1       -8.164  -3.067   2.172  0.00  0.00    -0.060 A 
ATOM     15  C   LIG    1       -6.905  -3.398   2.515  0.00  0.00    -0.020 A 
ATOM     16  S   LIG    1       -6.694  -5.090   2.457  0.00  0.00    +0.210 S 
ATOM     17  C   LIG    1       -8.358  -5.333   1.946  0.00  0.00    -0.050 A 
ATOM     18  C   LIG    1       -8.976  -4.158   1.851  0.00  0.00    +0.030 A 
ENDBRANCH  12  14
ENDBRANCH   6   9
BRANCH   1  19
ATOM     19  S   LIG    1       -3.369   2.049   5.899  0.00  0.00    +2.710 S 
ATOM     20  O   LIG    1       -3.146   3.371   6.367  0.00  0.00    -0.950 OA
ATOM     21  O   LIG    1       -3.292   0.904   6.737  0.00  0.00    -0.950 OA
BRANCH  19  26
ATOM     22  C   LIG    1        0.253   0.238   1.851  0.00  0.00    +0.160 C 
ATOM     23  C   LIG    1       -0.637   0.972   2.821  0.00  0.00    -0.130 A 
ATOM     24  C   LIG    1       -0.777   2.297   2.884  0.00  0.00    -0.020 A 
ATOM     25  C   LIG    1       -1.655   2.745   3.857  0.00  0.00    +0.170 A 
ATOM     26  C   LIG    1       -2.220   1.784   4.589  0.00  0.00    -0.800 A 
ATOM     27  S   LIG    1       -1.643   0.213   4.048  0.00  0.00    +0.210 S 
ENDBRANCH  19  26
ENDBRANCH   1  19
TORSDOF 4
