REMARK  Name = ZINCrD000000fFCt.0
REMARK                            x       y       z     vdW  Elec       q    Type
REMARK                         _______ _______ _______ _____ _____    ______ ____
ROOT
ATOM      1  C   LIG    1       -1.615  -0.665  -4.948  0.00  0.00    +0.320 C 
ENDROOT
BRANCH   1   2
ATOM      2  C   LIG    1       -2.777  -1.620  -4.863  0.00  0.00    -0.150 A 
ATOM      3  C   LIG    1       -3.098  -2.211  -3.655  0.00  0.00    +0.130 A 
ATOM      4  C   LIG    1       -4.163  -3.088  -3.576  0.00  0.00    -0.030 A 
ATOM      5  C   LIG    1       -4.910  -3.375  -4.705  0.00  0.00    +0.140 A 
ATOM      6  C   LIG    1       -4.590  -2.784  -5.915  0.00  0.00    -0.050 A 
ATOM      7  F   LIG    1       -5.952  -4.233  -4.627  0.00  0.00    -0.130 F 
ATOM      8  C   LIG    1       -3.526  -1.902  -5.993  0.00  0.00    +0.150 A 
ATOM      9  F   LIG    1       -3.215  -1.321  -7.172  0.00  0.00    -0.130 F 
ENDBRANCH   1   2
BRANCH   1  12
ATOM     10  C   LIG    1       -3.574   2.554  -4.282  0.00  0.00    +0.090 C 
ATOM     11  C   LIG    1       -2.965   1.185  -4.117  0.00  0.00    +0.510 C 
ATOM     12  N   LIG    1       -2.118   0.708  -5.050  0.00  0.00    -0.710 N 
ATOM     13  H   LIG    1       -1.841   1.272  -5.788  0.00  0.00    +0.410 HD
ATOM     14  O   LIG    1       -3.239   0.514  -3.145  0.00  0.00    -0.540 OA
ENDBRANCH   1  12
BRANCH   1  15
ATOM     15  C   LIG    1       -0.750  -0.799  -3.693  0.00  0.00    +0.070 C 
BRANCH  15  16
ATOM     16  C   LIG    1        0.476   0.065  -3.833  0.00  0.00    +0.530 C 
ATOM     17  N   LIG    1        1.389   0.106  -2.842  0.00  0.00    -0.570 N 
ATOM     18  C   LIG    1        2.591   0.942  -2.955  0.00  0.00    +0.290 C 
ATOM     19  C   LIG    1        2.395   2.253  -2.216  0.00  0.00    -0.000 C 
ATOM     20  C   LIG    1        2.205   2.056  -0.719  0.00  0.00    +0.230 C 
ATOM     21  O   LIG    1        0.982   1.378  -0.438  0.00  0.00    -0.320 OA
ATOM     22  C   LIG    1        1.025   0.013  -0.461  0.00  0.00    +0.100 A 
ATOM     23  C   LIG    1        0.877  -0.712   0.708  0.00  0.00    +0.020 A 
ATOM     24  C   LIG    1        0.914  -2.095   0.667  0.00  0.00    +0.030 A 
ATOM     25  C   LIG    1        1.097  -2.752  -0.535  0.00  0.00    +0.020 A 
ATOM     26  C   LIG    1        1.249  -2.032  -1.707  0.00  0.00    +0.020 A 
ATOM     27  C   LIG    1        1.216  -0.649  -1.670  0.00  0.00    +0.100 A 
ATOM     28  O   LIG    1        0.642   0.725  -4.838  0.00  0.00    -0.530 OA
ENDBRANCH  15  16
ENDBRANCH   1  15
TORSDOF 4
