REMARK  Name = ZINCrg00000BCQGc.0
REMARK                            x       y       z     vdW  Elec       q    Type
REMARK                         _______ _______ _______ _____ _____    ______ ____
ROOT
ATOM      1  N   LIG    1       -7.464   3.235   3.145  0.00  0.00    -0.360 N 
ATOM      2  N   LIG    1       -8.769   3.484   2.688  0.00  0.00    -0.300 NA
ATOM      3  C   LIG    1       -8.828   3.064   1.452  0.00  0.00    +0.230 A 
ATOM      4  N   LIG    1       -7.643   2.572   1.099  0.00  0.00    -0.520 NA
ATOM      5  C   LIG    1       -6.805   2.661   2.112  0.00  0.00    +0.370 A 
ENDROOT
BRANCH   1  10
ATOM      6  O   LIG    1       -6.136   4.718   8.536  0.00  0.00    -0.930 OA
ATOM      7  S   LIG    1       -7.008   4.592   7.420  0.00  0.00    +2.420 S 
ATOM      8  C   LIG    1       -6.240   5.407   5.989  0.00  0.00    -0.310 C 
ATOM      9  C   LIG    1       -7.023   5.038   4.727  0.00  0.00    +0.070 C 
ATOM     10  C   LIG    1       -6.926   3.536   4.473  0.00  0.00    +0.270 C 
ATOM     11  C   LIG    1       -7.715   2.761   5.524  0.00  0.00    +0.070 C 
ATOM     12  O   LIG    1       -8.351   5.040   7.532  0.00  0.00    -0.930 OA
ATOM     13  C   LIG    1       -7.016   2.857   6.881  0.00  0.00    -0.310 C 
ENDBRANCH   1  10
BRANCH   5  14
ATOM     14  C   LIG    1       -5.393   2.219   2.118  0.00  0.00    +0.020 A 
ATOM     15  C   LIG    1       -4.709   1.643   1.084  0.00  0.00    +0.240 A 
ATOM     16  N   LIG    1       -3.462   1.409   1.547  0.00  0.00    -0.280 N 
ATOM     17  N   LIG    1       -3.393   1.819   2.764  0.00  0.00    -0.060 NA
ATOM     18  N   LIG    1       -4.521   2.307   3.140  0.00  0.00    -0.260 NA
BRANCH  16  19
ATOM     19  C   LIG    1       -2.369   0.796   0.787  0.00  0.00    +0.330 C 
BRANCH  19  20
ATOM     20  C   LIG    1       -1.154   1.726   0.801  0.00  0.00    +0.060 C 
BRANCH  20  21
ATOM     21  C   LIG    1       -0.013   1.086   0.008  0.00  0.00    -0.050 C 
ATOM     22  C   LIG    1        0.460   1.806  -1.256  0.00  0.00    +0.020 C 
ATOM     23  C   LIG    1        1.335   1.811  -0.001  0.00  0.00    +0.030 C 
ENDBRANCH  20  21
ENDBRANCH  19  20
ENDBRANCH  16  19
ENDBRANCH   5  14
BRANCH   3  24
ATOM     24  C   LIG    1      -10.044   3.132   0.564  0.00  0.00    +0.170 C 
BRANCH  24  25
ATOM     25  C   LIG    1      -10.045   4.458  -0.199  0.00  0.00    +0.040 C 
BRANCH  25  26
ATOM     26  C   LIG    1      -11.280   4.527  -1.100  0.00  0.00    +0.180 C 
BRANCH  26  27
ATOM     27  O   LIG    1      -11.281   5.766  -1.813  0.00  0.00    -0.580 OA
ATOM     28  H   LIG    1      -12.037   5.878  -2.405  0.00  0.00    +0.380 HD
ENDBRANCH  26  27
ENDBRANCH  25  26
ENDBRANCH  24  25
ENDBRANCH   3  24
TORSDOF 9
