REMARK  Name = ZINCrH000004jz0T.0
REMARK                            x       y       z     vdW  Elec       q    Type
REMARK                         _______ _______ _______ _____ _____    ______ ____
ROOT
ATOM      1  C   LIG    1        3.514  -1.196  -0.296  0.00  0.00    +0.240 C 
ATOM      2  C   LIG    1        3.828  -2.042   0.942  0.00  0.00    +0.030 C 
ATOM      3  C   LIG    1        4.472  -1.141   2.009  0.00  0.00    +0.260 C 
ATOM      4  C   LIG    1        3.602   0.130   2.143  0.00  0.00    +0.010 C 
ATOM      5  C   LIG    1        4.184   1.115   1.108  0.00  0.00    +0.020 C 
ATOM      6  C   LIG    1        5.357   0.335   0.438  0.00  0.00    +0.240 C 
ATOM      7  N   LIG    1        5.763  -0.661   1.458  0.00  0.00    -0.600 N 
ATOM      8  C   LIG    1        7.009  -1.040   1.804  0.00  0.00    +0.670 C 
ATOM      9  O   LIG    1        7.171  -1.878   2.669  0.00  0.00    -0.570 OA
ATOM     10  C   LIG    1        4.785  -0.433  -0.765  0.00  0.00    +0.040 C 
ENDROOT
BRANCH   1  12
ATOM     11  C   LIG    1        1.484  -0.518   1.067  0.00  0.00    +0.300 C 
ATOM     12  N   LIG    1        2.478  -0.215   0.035  0.00  0.00    -0.630 N 
ATOM     13  C   LIG    1        2.439   0.968  -0.611  0.00  0.00    +0.620 C 
ATOM     14  O   LIG    1        3.175   1.167  -1.560  0.00  0.00    -0.510 OA
BRANCH  13  15
ATOM     15  C   LIG    1        1.512   2.013  -0.171  0.00  0.00    -0.010 A 
ATOM     16  C   LIG    1        1.656   3.365  -0.392  0.00  0.00    +0.090 A 
ATOM     17  C   LIG    1        0.563   4.011   0.197  0.00  0.00    -0.040 A 
ATOM     18  C   LIG    1       -0.243   3.030   0.766  0.00  0.00    +0.010 A 
ATOM     19  C   LIG    1       -1.341   3.706   1.348  0.00  0.00    -0.050 A 
ATOM     20  C   LIG    1       -1.165   5.019   1.119  0.00  0.00    +0.230 A 
ATOM     21  O   LIG    1       -0.025   5.205   0.430  0.00  0.00    -0.170 OA
ATOM     22  N   LIG    1        0.343   1.812   0.537  0.00  0.00    -0.540 N 
ATOM     23  H   LIG    1       -0.003   0.953   0.828  0.00  0.00    +0.420 HD
ENDBRANCH  13  15
ENDBRANCH   1  12
BRANCH   8  24
ATOM     24  O   LIG    1        8.074  -0.491   1.191  0.00  0.00    -0.360 OA
BRANCH  24  25
ATOM     25  C   LIG    1        9.386  -0.947   1.614  0.00  0.00    +0.140 C 
ATOM     26  C   LIG    1        9.573  -0.653   3.103  0.00  0.00    +0.040 C 
ATOM     27  C   LIG    1        9.505  -2.453   1.372  0.00  0.00    +0.040 C 
ATOM     28  C   LIG    1       10.464  -0.215   0.811  0.00  0.00    +0.080 C 
ENDBRANCH  24  25
ENDBRANCH   8  24
TORSDOF 4
