REMARK  Name = ZINCrH000004o1eu.0
REMARK                            x       y       z     vdW  Elec       q    Type
REMARK                         _______ _______ _______ _____ _____    ______ ____
ROOT
ATOM      1  C   LIG    1       -0.377  -2.039   5.246  0.00  0.00    +0.030 C 
ATOM      2  C   LIG    1        1.029  -2.556   4.935  0.00  0.00    +0.170 C 
ENDROOT
BRANCH   2   3
ATOM      3  N   LIG    1        1.452  -2.062   3.618  0.00  0.00    -0.520 NA
ATOM      4  C   LIG    1        0.399  -2.268   2.615  0.00  0.00    +0.190 C 
ATOM      5  C   LIG    1        0.907  -1.815   1.244  0.00  0.00    +0.190 C 
ATOM      6  N   LIG    1        1.296  -0.399   1.313  0.00  0.00    -0.530 NA
ATOM      7  C   LIG    1        2.349  -0.193   2.316  0.00  0.00    +0.170 C 
ATOM      8  C   LIG    1        1.841  -0.646   3.686  0.00  0.00    +0.190 C 
BRANCH   6   9
ATOM      9  C   LIG    1        1.719   0.095  -0.004  0.00  0.00    +0.230 C 
BRANCH   9  10
ATOM     10  C   LIG    1        1.873   1.593   0.046  0.00  0.00    -0.060 A 
ATOM     11  C   LIG    1        3.089   2.151   0.390  0.00  0.00    +0.020 A 
ATOM     12  C   LIG    1        3.231   3.526   0.437  0.00  0.00    +0.020 A 
ATOM     13  C   LIG    1        2.156   4.342   0.140  0.00  0.00    +0.020 A 
ATOM     14  C   LIG    1        0.938   3.784  -0.205  0.00  0.00    -0.030 A 
ATOM     15 CL   LIG    1       -0.412   4.809  -0.579  0.00  0.00    -0.070 Cl
ATOM     16  C   LIG    1        0.798   2.409  -0.256  0.00  0.00    +0.040 A 
ENDBRANCH   9  10
ENDBRANCH   6   9
ENDBRANCH   2   3
BRANCH   2  17
ATOM     17  C   LIG    1        1.020  -4.063   4.927  0.00  0.00    +0.520 C 
ATOM     18  N   LIG    1        0.933  -4.742   6.088  0.00  0.00    -0.730 N 
ATOM     19  H   LIG    1        0.877  -4.262   6.928  0.00  0.00    +0.400 HD
ATOM     20  O   LIG    1        1.090  -4.664   3.876  0.00  0.00    -0.520 OA
BRANCH  18  21
ATOM     21  C   LIG    1        0.924  -6.207   6.080  0.00  0.00    +0.290 C 
ATOM     22  C   LIG    1       -0.504  -6.707   5.851  0.00  0.00    +0.040 C 
BRANCH  21  23
ATOM     23  C   LIG    1        1.429  -6.720   7.404  0.00  0.00    -0.090 A 
ATOM     24  C   LIG    1        1.061  -6.086   8.577  0.00  0.00    +0.000 A 
ATOM     25  C   LIG    1        1.521  -6.559   9.792  0.00  0.00    +0.000 A 
ATOM     26  C   LIG    1        2.355  -7.660   9.834  0.00  0.00    +0.000 A 
ATOM     27  C   LIG    1        2.728  -8.290   8.662  0.00  0.00    +0.020 A 
ATOM     28  C   LIG    1        2.264  -7.820   7.447  0.00  0.00    +0.010 A 
ENDBRANCH  21  23
ENDBRANCH  18  21
ENDBRANCH   2  17
TORSDOF 6
