REMARK  Name = ZINCrH000004tkQv.0
REMARK                            x       y       z     vdW  Elec       q    Type
REMARK                         _______ _______ _______ _____ _____    ______ ____
ROOT
ATOM      1  C   LIG    1       -1.293  -0.775   0.011  0.00  0.00    +0.330 C 
ENDROOT
BRANCH   1   2
ATOM      2  C   LIG    1        0.002  -0.004   0.002  0.00  0.00    -0.120 A 
ATOM      3  C   LIG    1        1.208  -0.679  -0.013  0.00  0.00    +0.040 A 
ATOM      4  C   LIG    1        2.396   0.029  -0.022  0.00  0.00    +0.010 A 
ATOM      5  C   LIG    1        2.377   1.411  -0.015  0.00  0.00    +0.040 A 
ATOM      6  C   LIG    1        1.171   2.086   0.002  0.00  0.00    -0.090 A 
ATOM      7  C   LIG    1       -0.017   1.378   0.010  0.00  0.00    +0.040 A 
BRANCH   6   8
ATOM      8  C   LIG    1        1.150   3.592   0.010  0.00  0.00    +0.220 C 
BRANCH   8   9
ATOM      9  O   LIG    1        1.157   4.061   1.360  0.00  0.00    -0.370 OA
BRANCH   9  10
ATOM     10  C   LIG    1        1.139   5.485   1.481  0.00  0.00    +0.160 C 
BRANCH  10  11
ATOM     11  C   LIG    1        1.147   5.872   2.961  0.00  0.00    +0.170 C 
ATOM     12  C   LIG    1        1.012   7.403   3.104  0.00  0.00    +0.020 C 
ATOM     13  C   LIG    1        1.981   7.712   4.277  0.00  0.00    +0.010 C 
ATOM     14  C   LIG    1        3.087   6.655   4.032  0.00  0.00    +0.200 C 
ATOM     15  O   LIG    1        2.394   5.490   3.556  0.00  0.00    -0.370 OA
ENDBRANCH  10  11
ENDBRANCH   9  10
ENDBRANCH   8   9
ENDBRANCH   6   8
ENDBRANCH   1   2
BRANCH   1  16
ATOM     16  N   LIG    1       -1.726  -1.018  -1.367  0.00  0.00    -0.710 N 
ATOM     17  H   LIG    1       -1.192  -0.691  -2.108  0.00  0.00    +0.410 HD
BRANCH  16  26
ATOM     18  C   LIG    1       -3.310  -1.943  -2.937  0.00  0.00    -0.160 A 
ATOM     19  C   LIG    1       -4.497  -2.648  -3.155  0.00  0.00    +0.170 A 
ATOM     20  C   LIG    1       -5.217  -3.090  -2.056  0.00  0.00    -0.210 A 
ATOM     21  C   LIG    1       -4.750  -2.826  -0.781  0.00  0.00    +0.210 A 
ATOM     22  N   LIG    1       -3.620  -2.161  -0.600  0.00  0.00    -0.530 NA
ATOM     23  C   LIG    1       -5.707  -3.409   0.240  0.00  0.00    +0.110 C 
ATOM     24  C   LIG    1       -7.017  -3.666  -0.534  0.00  0.00    +0.040 C 
ATOM     25  C   LIG    1       -6.515  -3.863  -1.980  0.00  0.00    +0.090 C 
ATOM     26  C   LIG    1       -2.897  -1.713  -1.613  0.00  0.00    +0.460 A 
BRANCH  18  28
ATOM     27  N   LIG    1       -1.911  -1.088  -4.913  0.00  0.00    -0.420 NA
ATOM     28  C   LIG    1       -2.530  -1.466  -4.039  0.00  0.00    +0.260 C 
ENDBRANCH  18  28
ENDBRANCH  16  26
ENDBRANCH   1  16
TORSDOF 8
