REMARK  Name = ZINCqH0000004Lhd.0
REMARK                            x       y       z     vdW  Elec       q    Type
REMARK                         _______ _______ _______ _____ _____    ______ ____
ROOT
ATOM      1  N   LIG    1       -0.179   8.673   2.667  0.00  0.00    -0.670 N 
ATOM      2  H   LIG    1       -0.767   8.222   3.293  0.00  0.00    +0.420 HD
ATOM      3  C   LIG    1        0.462   7.965   1.716  0.00  0.00    +0.520 C 
ATOM      4  O   LIG    1        1.131   8.537   0.882  0.00  0.00    -0.500 OA
ENDROOT
BRANCH   1  10
ATOM      5  C   LIG    1        0.014  10.689   3.998  0.00  0.00    -0.050 A 
ATOM      6  C   LIG    1        0.196  12.068   4.070  0.00  0.00    +0.080 A 
ATOM      7  C   LIG    1        0.363  12.802   2.913  0.00  0.00    -0.010 A 
ATOM      8  C   LIG    1        0.351  12.174   1.680  0.00  0.00    +0.050 A 
ATOM      9  C   LIG    1        0.177  10.806   1.596  0.00  0.00    +0.020 A 
ATOM     10  C   LIG    1        0.002  10.056   2.750  0.00  0.00    +0.180 A 
BRANCH   5  13
ATOM     11  C   LIG    1       -0.420   9.421   7.335  0.00  0.00    +0.300 A 
ATOM     12  N   LIG    1       -0.271  10.395   6.477  0.00  0.00    -0.530 NA
ATOM     13  C   LIG    1       -0.166   9.895   5.238  0.00  0.00    +0.280 A 
ATOM     14  N   LIG    1       -0.255   8.585   5.303  0.00  0.00    -0.330 NA
ATOM     15  N   LIG    1       -0.415   8.258   6.660  0.00  0.00    -0.480 N 
ATOM     16  H   LIG    1       -0.507   7.368   7.035  0.00  0.00    +0.440 HD
BRANCH  11  18
ATOM     17  C   LIG    1        0.606  10.380   9.379  0.00  0.00    +0.050 C 
ATOM     18  C   LIG    1       -0.571   9.575   8.827  0.00  0.00    +0.140 C 
ENDBRANCH  11  18
ENDBRANCH   5  13
ENDBRANCH   1  10
BRANCH   3  19
ATOM     19  C   LIG    1        0.348   6.462   1.690  0.00  0.00    +0.040 C 
BRANCH  19  20
ATOM     20  C   LIG    1        1.166   5.909   0.521  0.00  0.00    +0.290 C 
BRANCH  20  21
ATOM     21  C   LIG    1        1.153   4.403   0.567  0.00  0.00    -0.120 A 
ATOM     22  C   LIG    1        2.186   3.721   1.182  0.00  0.00    +0.030 A 
ATOM     23  C   LIG    1        2.174   2.340   1.225  0.00  0.00    +0.030 A 
ATOM     24  C   LIG    1        1.128   1.639   0.652  0.00  0.00    -0.030 A 
ATOM     25  C   LIG    1        0.097   2.322   0.031  0.00  0.00    +0.030 A 
ATOM     26 CL   LIG    1        1.113  -0.096   0.705  0.00  0.00    -0.070 Cl
ATOM     27  C   LIG    1        0.106   3.703  -0.005  0.00  0.00    +0.030 A 
ENDBRANCH  20  21
BRANCH  20  28
ATOM     28  O   LIG    1        0.595   6.353  -0.712  0.00  0.00    -0.540 OA
ATOM     29  H   LIG    1       -0.321   6.072  -0.845  0.00  0.00    +0.370 HD
ENDBRANCH  20  28
ENDBRANCH  19  20
ENDBRANCH   3  19
TORSDOF 7
