REMARK  Name = ZINCpe000000Udkw.0
REMARK                            x       y       z     vdW  Elec       q    Type
REMARK                         _______ _______ _______ _____ _____    ______ ____
ROOT
ATOM      1  C   LIG    1       -4.739   1.048  -0.469  0.00  0.00    +0.520 C 
ATOM      2  N   LIG    1       -5.960   1.612  -0.561  0.00  0.00    -0.620 N 
ATOM      3  C   LIG    1       -6.199   2.977  -0.068  0.00  0.00    +0.300 C 
ATOM      4  C   LIG    1       -6.883   3.780  -1.186  0.00  0.00    +0.200 C 
ATOM      5  N   LIG    1       -8.084   3.062  -1.634  0.00  0.00    -0.450 N 
ATOM      6  C   LIG    1       -7.738   1.761  -2.222  0.00  0.00    +0.230 C 
ATOM      7  C   LIG    1       -7.088   0.877  -1.152  0.00  0.00    +0.320 C 
ATOM      8  O   LIG    1       -4.560  -0.081  -0.876  0.00  0.00    -0.500 OA
ENDROOT
BRANCH   5   9
ATOM      9  C   LIG    1       -8.817   3.829  -2.522  0.00  0.00    +0.420 A 
ATOM     10  N   LIG    1       -9.175   3.485  -3.740  0.00  0.00    -0.350 NA
ATOM     11  N   LIG    1       -9.852   4.426  -4.292  0.00  0.00    -0.020 NA
ATOM     12  N   LIG    1       -9.966   5.427  -3.488  0.00  0.00    -0.080 NA
ATOM     13  N   LIG    1       -9.296   5.075  -2.303  0.00  0.00    -0.390 N 
ATOM     14  C   LIG    1       -9.148   5.884  -1.091  0.00  0.00    +0.390 C 
ENDBRANCH   5   9
BRANCH   1  15
ATOM     15  C   LIG    1       -3.596   1.819   0.140  0.00  0.00    +0.170 C 
ATOM     16  C   LIG    1       -3.888   2.080   1.619  0.00  0.00    +0.050 C 
BRANCH  15  17
ATOM     17  O   LIG    1       -2.392   1.060   0.019  0.00  0.00    -0.280 OA
BRANCH  17  21
ATOM     18  C   LIG    1        1.157   3.164   0.024  0.00  0.00    -0.120 A 
ATOM     19  C   LIG    1       -0.037   3.824   0.250  0.00  0.00    +0.040 A 
ATOM     20  C   LIG    1       -1.227   3.122   0.245  0.00  0.00    -0.080 A 
ATOM     21  C   LIG    1       -1.223   1.754   0.019  0.00  0.00    +0.120 A 
ATOM     22  C   LIG    1       -0.024   1.095  -0.214  0.00  0.00    -0.010 A 
ATOM     23  C   LIG    1        1.163   1.801  -0.208  0.00  0.00    +0.050 A 
BRANCH  18  25
ATOM     24  C   LIG    1        3.028   3.952   1.448  0.00  0.00    +0.020 C 
ATOM     25  C   LIG    1        2.453   3.933   0.030  0.00  0.00    +0.060 C 
ENDBRANCH  18  25
ENDBRANCH  17  21
ENDBRANCH  15  17
ENDBRANCH   1  15
TORSDOF 5
