REMARK  Name = ZINCrD0000075P2S.0
REMARK                            x       y       z     vdW  Elec       q    Type
REMARK                         _______ _______ _______ _____ _____    ______ ____
ROOT
ATOM      1  O   LIG    1        1.230  -4.907  -0.138  0.00  0.00    -0.330 OA
ENDROOT
BRANCH   1   2
ATOM      2  C   LIG    1        0.060  -4.250  -0.022  0.00  0.00    +0.510 C 
ATOM      3  O   LIG    1       -0.979  -4.872   0.076  0.00  0.00    -0.510 OA
BRANCH   2   4
ATOM      4  C   LIG    1        0.040  -2.775  -0.013  0.00  0.00    -0.160 A 
ATOM      5  C   LIG    1       -1.174  -2.091   0.107  0.00  0.00    +0.120 A 
ATOM      6  C   LIG    1       -1.189  -0.715   0.115  0.00  0.00    -0.010 A 
ATOM      7  C   LIG    1        0.002  -0.004   0.002  0.00  0.00    +0.210 A 
ATOM      8  C   LIG    1        1.211  -0.681  -0.124  0.00  0.00    -0.030 A 
ATOM      9  C   LIG    1        1.234  -2.057  -0.126  0.00  0.00    +0.120 A 
BRANCH   7  10
ATOM     10  N   LIG    1       -0.017   1.390   0.010  0.00  0.00    -0.560 N 
ATOM     11  C   LIG    1        1.183   2.234   0.020  0.00  0.00    +0.270 C 
ATOM     12  C   LIG    1        0.699   3.633   0.461  0.00  0.00    +0.060 C 
ATOM     13  C   LIG    1       -0.785   3.604   0.029  0.00  0.00    +0.070 C 
ATOM     14  C   LIG    1       -1.137   2.133   0.003  0.00  0.00    +0.520 C 
ATOM     15  O   LIG    1       -2.265   1.689  -0.019  0.00  0.00    -0.500 OA
ENDBRANCH   7  10
ENDBRANCH   2   4
ENDBRANCH   1   2
BRANCH   1  16
ATOM     16  C   LIG    1        1.174  -6.358  -0.139  0.00  0.00    +0.220 C 
BRANCH  16  18
ATOM     17  O   LIG    1        3.516  -6.161  -0.365  0.00  0.00    -0.440 OA
ATOM     18  C   LIG    1        2.568  -6.914  -0.277  0.00  0.00    +0.430 C 
BRANCH  18  19
ATOM     19  C   LIG    1        2.772  -8.316  -0.303  0.00  0.00    -0.270 A 
ATOM     20  C   LIG    1        1.806  -9.295  -0.208  0.00  0.00    +0.330 A 
ATOM     21  N   LIG    1        2.384 -10.510  -0.275  0.00  0.00    -0.570 N 
ATOM     22  H   LIG    1        1.905 -11.352  -0.233  0.00  0.00    +0.420 HD
ATOM     23  C   LIG    1        3.753 -10.392  -0.407  0.00  0.00    +0.070 A 
ATOM     24  C   LIG    1        4.780 -11.323  -0.511  0.00  0.00    +0.000 A 
ATOM     25  C   LIG    1        6.085 -10.898  -0.635  0.00  0.00    +0.030 A 
ATOM     26  C   LIG    1        6.388  -9.544  -0.658  0.00  0.00    +0.000 A 
ATOM     27  C   LIG    1        5.383  -8.606  -0.557  0.00  0.00    +0.060 A 
ATOM     28  C   LIG    1        4.062  -9.023  -0.431  0.00  0.00    -0.060 A 
ENDBRANCH  18  19
ENDBRANCH  16  18
ENDBRANCH   1  16
TORSDOF 6
