REMARK  Name = ZINCrD000000CMEA.0
REMARK                            x       y       z     vdW  Elec       q    Type
REMARK                         _______ _______ _______ _____ _____    ______ ____
ROOT
ATOM      1  N   LIG    1       -2.578   2.662   2.062  0.00  0.00    -0.730 N 
ATOM      2  H   LIG    1       -3.066   1.824   2.021  0.00  0.00    +0.400 HD
ENDROOT
BRANCH   1   3
ATOM      3  C   LIG    1       -1.312   2.808   1.341  0.00  0.00    +0.260 C 
ATOM      4  C   LIG    1       -0.668   1.431   1.157  0.00  0.00    +0.040 C 
ATOM      5  C   LIG    1        0.497   1.568   0.170  0.00  0.00    +0.050 C 
ATOM      6  C   LIG    1       -0.065   1.906  -1.212  0.00  0.00    +0.260 C 
ATOM      7  N   LIG    1       -0.986   3.032  -1.127  0.00  0.00    -0.570 N 
ATOM      8  C   LIG    1       -1.570   3.437   0.002  0.00  0.00    +0.500 C 
ATOM      9  O   LIG    1       -2.352   4.362  -0.056  0.00  0.00    -0.510 OA
BRANCH   7  10
ATOM     10  C   LIG    1       -1.277   3.733  -2.304  0.00  0.00    +0.120 A 
ATOM     11  C   LIG    1       -0.509   4.832  -2.666  0.00  0.00    +0.050 A 
ATOM     12  C   LIG    1       -0.794   5.519  -3.829  0.00  0.00    +0.000 A 
ATOM     13  C   LIG    1       -1.851   5.119  -4.630  0.00  0.00    +0.110 A 
ATOM     14  C   LIG    1       -2.621   4.026  -4.268  0.00  0.00    -0.010 A 
ATOM     15  F   LIG    1       -2.132   5.795  -5.765  0.00  0.00    -0.140 F 
ATOM     16  C   LIG    1       -2.336   3.333  -3.108  0.00  0.00    +0.050 A 
ENDBRANCH   7  10
ENDBRANCH   1   3
BRANCH   1  21
ATOM     17  C   LIG    1       -4.780   4.648   4.232  0.00  0.00    -0.060 A 
ATOM     18  C   LIG    1       -4.084   5.841   4.289  0.00  0.00    -0.040 A 
ATOM     19  C   LIG    1       -2.888   5.981   3.608  0.00  0.00    +0.050 A 
ATOM     20  C   LIG    1       -2.386   4.928   2.869  0.00  0.00    -0.050 A 
ATOM     21  C   LIG    1       -3.083   3.728   2.809  0.00  0.00    +0.220 A 
ATOM     22  C   LIG    1       -4.286   3.593   3.490  0.00  0.00    -0.060 A 
BRANCH  17  27
ATOM     23  O   LIG    1       -7.378   6.611   7.438  0.00  0.00    -0.530 OA
ATOM     24  C   LIG    1       -7.158   5.926   6.461  0.00  0.00    +0.520 C 
ATOM     25  C   LIG    1       -8.115   5.731   5.306  0.00  0.00    +0.050 C 
ATOM     26  C   LIG    1       -7.232   5.154   4.175  0.00  0.00    +0.060 C 
ATOM     27  C   LIG    1       -6.083   4.501   4.975  0.00  0.00    +0.260 C 
ATOM     28  N   LIG    1       -6.027   5.231   6.247  0.00  0.00    -0.720 N 
ATOM     29  H   LIG    1       -5.272   5.214   6.855  0.00  0.00    +0.410 HD
ENDBRANCH  17  27
ENDBRANCH   1  21
TORSDOF 4
