REMARK  Name = ZINCpk00001AZjcI.0
REMARK                            x       y       z     vdW  Elec       q    Type
REMARK                         _______ _______ _______ _____ _____    ______ ____
ROOT
ATOM      1  O   LIG    1       -2.532   2.450   1.956  0.00  0.00    -0.520 OA
ATOM      2  C   LIG    1       -2.195   1.766   1.014  0.00  0.00    +0.550 C 
ATOM      3  N   LIG    1       -2.731   0.540   0.845  0.00  0.00    -0.620 N 
ATOM      4  C   LIG    1       -2.595  -0.549  -0.133  0.00  0.00    +0.300 C 
ATOM      5  C   LIG    1       -4.027  -0.970   0.213  0.00  0.00    +0.070 C 
ATOM      6  C   LIG    1       -3.713  -0.292   1.554  0.00  0.00    +0.330 C 
ENDROOT
BRANCH   6   7
ATOM      7  C   LIG    1       -4.871   0.492   2.116  0.00  0.00    +0.170 A 
ATOM      8  N   LIG    1       -5.545   1.429   1.501  0.00  0.00    -0.270 NA
ATOM      9  N   LIG    1       -6.471   1.877   2.276  0.00  0.00    -0.290 NA
ATOM     10  C   LIG    1       -6.425   1.250   3.417  0.00  0.00    +0.190 A 
ATOM     11  C   LIG    1       -7.334   1.449   4.602  0.00  0.00    +0.150 C 
ATOM     12  C   LIG    1       -6.485   1.549   5.873  0.00  0.00    +0.010 C 
ATOM     13  C   LIG    1       -6.253   0.153   6.444  0.00  0.00    +0.020 C 
ATOM     14  C   LIG    1       -6.154  -0.876   5.319  0.00  0.00    +0.030 C 
ATOM     15  C   LIG    1       -4.965  -0.540   4.415  0.00  0.00    +0.280 C 
ATOM     16  N   LIG    1       -5.404   0.364   3.351  0.00  0.00    -0.460 N 
ENDBRANCH   6   7
BRANCH   2  17
ATOM     17  C   LIG    1       -1.177   2.285   0.031  0.00  0.00    +0.270 C 
ATOM     18  C   LIG    1       -0.718   3.683   0.455  0.00  0.00    +0.070 C 
ATOM     19  C   LIG    1        0.491   4.104  -0.385  0.00  0.00    +0.050 C 
ATOM     20  C   LIG    1        1.700   3.243   0.001  0.00  0.00    +0.160 C 
ATOM     21  C   LIG    1        1.268   1.797  -0.000  0.00  0.00    +0.290 A 
ATOM     22  N   LIG    1        2.024   0.735  -0.012  0.00  0.00    -0.540 NA
ATOM     23  C   LIG    1        1.262  -0.361  -0.011  0.00  0.00    +0.420 A 
ATOM     24  N   LIG    1        0.002  -0.004   0.002  0.00  0.00    -0.320 NA
ATOM     25  N   LIG    1       -0.017   1.393   0.010  0.00  0.00    -0.370 N 
ENDBRANCH   2  17
TORSDOF 2
