REMARK  Name = ZINCpk00000KfL4Y.0
REMARK                            x       y       z     vdW  Elec       q    Type
REMARK                         _______ _______ _______ _____ _____    ______ ____
ROOT
ATOM      1  N   LIG    1       -0.793   3.061  -1.212  0.00  0.00    -0.510 NA
ATOM      2  C   LIG    1       -0.754   1.594  -1.231  0.00  0.00    +0.170 C 
ATOM      3  C   LIG    1       -0.013   1.086   0.008  0.00  0.00    +0.040 C 
ATOM      4  C   LIG    1       -0.731   1.580   1.267  0.00  0.00    +0.000 C 
ATOM      5  C   LIG    1       -0.801   3.110   1.237  0.00  0.00    +0.030 C 
ATOM      6  C   LIG    1       -1.520   3.559  -0.037  0.00  0.00    +0.190 C 
ENDROOT
BRANCH   5   7
ATOM      7  C   LIG    1       -1.571   3.610   2.461  0.00  0.00    +0.130 C 
ATOM      8  N   LIG    1       -2.911   3.001   2.514  0.00  0.00    -0.720 N 
ATOM      9  H   LIG    1       -3.616   3.092   1.855  0.00  0.00    +0.440 HD
ATOM     10  C   LIG    1       -2.967   2.294   3.658  0.00  0.00    +0.700 C 
ATOM     11  N   LIG    1       -1.830   2.364   4.359  0.00  0.00    -0.580 N 
ATOM     12  C   LIG    1       -1.610   1.692   5.641  0.00  0.00    +0.340 C 
ATOM     13  O   LIG    1       -3.942   1.661   4.014  0.00  0.00    -0.540 OA
ATOM     14  C   LIG    1       -1.674   5.136   2.444  0.00  0.00    +0.090 C 
ATOM     15  C   LIG    1       -0.908   3.134   3.739  0.00  0.00    +0.530 C 
ATOM     16  O   LIG    1        0.213   3.390   4.121  0.00  0.00    -0.460 OA
ENDBRANCH   5   7
BRANCH   1  17
ATOM     17  C   LIG    1       -1.375   3.588  -2.454  0.00  0.00    +0.360 C 
BRANCH  17  20
ATOM     18  C   LIG    1       -4.935   3.184  -2.348  0.00  0.00    +0.190 A 
ATOM     19  N   LIG    1       -3.871   3.895  -2.061  0.00  0.00    -0.480 NA
ATOM     20  C   LIG    1       -2.827   3.193  -2.535  0.00  0.00    +0.130 A 
ATOM     21  N   LIG    1       -3.300   2.113  -3.081  0.00  0.00    -0.370 NA
ATOM     22  O   LIG    1       -4.509   2.086  -2.980  0.00  0.00    +0.080 OA
BRANCH  18  23
ATOM     23  C   LIG    1       -6.364   3.538  -2.028  0.00  0.00    +0.180 C 
BRANCH  23  25
ATOM     24  C   LIG    1       -7.034   3.459  -4.434  0.00  0.00    +0.020 C 
ATOM     25  C   LIG    1       -6.963   4.340  -3.185  0.00  0.00    -0.010 C 
ATOM     26  C   LIG    1       -8.371   4.805  -2.809  0.00  0.00    +0.030 C 
ENDBRANCH  23  25
ENDBRANCH  18  23
ENDBRANCH  17  20
ENDBRANCH   1  17
TORSDOF 5
