REMARK  Name = ZINCrD00000F5Lm4.0
REMARK                            x       y       z     vdW  Elec       q    Type
REMARK                         _______ _______ _______ _____ _____    ______ ____
ROOT
ATOM      1  N   LIG    1        5.001  -4.100  -0.066  0.00  0.00    -0.610 N 
ATOM      2  C   LIG    1        4.983  -2.752  -0.059  0.00  0.00    +0.550 C 
ATOM      3  O   LIG    1        6.028  -2.129  -0.066  0.00  0.00    -0.540 OA
ATOM      4  C   LIG    1        3.743  -4.850  -0.058  0.00  0.00    +0.280 C 
ENDROOT
BRANCH   2   5
ATOM      5  C   LIG    1        3.706  -2.039  -0.043  0.00  0.00    -0.090 C 
ATOM      6  C   LIG    1        3.688  -0.689  -0.036  0.00  0.00    +0.140 C 
BRANCH   6   7
ATOM      7  C   LIG    1        2.405   0.028  -0.021  0.00  0.00    -0.090 A 
ATOM      8  C   LIG    1        1.201  -0.683  -0.013  0.00  0.00    +0.070 A 
ATOM      9  C   LIG    1        0.002  -0.004   0.002  0.00  0.00    -0.010 A 
ATOM     10  C   LIG    1       -0.017   1.381   0.010  0.00  0.00    +0.060 A 
ATOM     11  C   LIG    1        1.165   2.097   0.002  0.00  0.00    -0.050 A 
ATOM     12  C   LIG    1        2.381   1.432  -0.013  0.00  0.00    +0.130 A 
BRANCH  12  13
ATOM     13  O   LIG    1        3.542   2.134  -0.021  0.00  0.00    -0.310 OA
BRANCH  13  14
ATOM     14  C   LIG    1        3.438   3.560  -0.012  0.00  0.00    +0.600 C 
ATOM     15  F   LIG    1        2.758   3.971   1.139  0.00  0.00    -0.200 F 
ATOM     16  F   LIG    1        2.735   3.983  -1.145  0.00  0.00    -0.200 F 
ENDBRANCH  13  14
ENDBRANCH  12  13
ENDBRANCH   6   7
ENDBRANCH   2   5
BRANCH   1  17
ATOM     17  C   LIG    1        6.280  -4.815  -0.082  0.00  0.00    +0.340 C 
BRANCH  17  21
ATOM     18  C   LIG    1        7.562  -5.531   3.935  0.00  0.00    -0.130 A 
ATOM     19  C   LIG    1        6.763  -6.467   3.276  0.00  0.00    +0.080 A 
ATOM     20  C   LIG    1        6.353  -6.230   1.981  0.00  0.00    +0.020 A 
ATOM     21  C   LIG    1        6.732  -5.067   1.334  0.00  0.00    -0.080 A 
ATOM     22  C   LIG    1        7.528  -4.138   1.978  0.00  0.00    +0.040 A 
ATOM     23  C   LIG    1        7.941  -4.360   3.276  0.00  0.00    +0.040 A 
BRANCH  18  27
ATOM     24  C   LIG    1        9.217  -5.118   7.331  0.00  0.00    +0.290 C 
ATOM     25  N   LIG    1        8.777  -4.872   5.956  0.00  0.00    -0.730 N 
ATOM     26  H   LIG    1        9.041  -4.058   5.500  0.00  0.00    +0.400 HD
ATOM     27  C   LIG    1        8.005  -5.778   5.323  0.00  0.00    +0.560 C 
ATOM     28  O   LIG    1        7.674  -6.799   5.894  0.00  0.00    -0.530 OA
ENDBRANCH  18  27
ENDBRANCH  17  21
ENDBRANCH   1  17
TORSDOF 7
