REMARK  Name = ZINCrD0000073sfo.0
REMARK                            x       y       z     vdW  Elec       q    Type
REMARK                         _______ _______ _______ _____ _____    ______ ____
ROOT
ATOM      1  N   LIG    1       -2.086   1.268  -1.329  0.00  0.00    -0.660 N 
ATOM      2  H   LIG    1       -2.496   0.630  -0.726  0.00  0.00    +0.420 HD
ATOM      3  C   LIG    1       -0.791   1.610  -1.171  0.00  0.00    +0.510 C 
ATOM      4  O   LIG    1       -0.252   2.336  -1.979  0.00  0.00    -0.460 OA
ENDROOT
BRANCH   1  12
ATOM      5  C   LIG    1       -2.268   4.013  -5.173  0.00  0.00    +0.170 A 
ATOM      6  C   LIG    1       -2.987   4.573  -6.190  0.00  0.00    -0.060 A 
ATOM      7  C   LIG    1       -4.351   4.332  -6.321  0.00  0.00    +0.080 A 
ATOM      8  C   LIG    1       -5.008   3.529  -5.437  0.00  0.00    -0.050 A 
ATOM      9  C   LIG    1       -4.302   2.935  -4.377  0.00  0.00    -0.090 A 
ATOM     10  C   LIG    1       -4.948   2.099  -3.445  0.00  0.00    +0.110 A 
ATOM     11  C   LIG    1       -4.202   1.549  -2.445  0.00  0.00    -0.030 A 
ATOM     12  C   LIG    1       -2.833   1.832  -2.360  0.00  0.00    +0.370 A 
ATOM     13  N   LIG    1       -2.235   2.614  -3.234  0.00  0.00    -0.440 NA
ATOM     14 CL   LIG    1       -6.711   3.241  -5.619  0.00  0.00    -0.060 Cl
ATOM     15  C   LIG    1       -2.913   3.177  -4.239  0.00  0.00    +0.150 A 
BRANCH   5  17
ATOM     16  C   LIG    1       -0.351   5.117  -6.044  0.00  0.00    +0.250 C 
ATOM     17  O   LIG    1       -0.936   4.261  -5.061  0.00  0.00    -0.280 OA
ENDBRANCH   5  17
ENDBRANCH   1  12
BRANCH   3  18
ATOM     18  C   LIG    1       -0.014   1.089   0.011  0.00  0.00    -0.020 C 
ATOM     19  C   LIG    1       -0.618   1.616   1.335  0.00  0.00    +0.050 C 
ATOM     20  C   LIG    1        0.301   2.822   1.654  0.00  0.00    +0.220 C 
ATOM     21  O   LIG    1        1.606   2.373   1.230  0.00  0.00    -0.350 OA
ATOM     22  C   LIG    1        1.421   1.650   0.001  0.00  0.00    +0.290 C 
BRANCH  22  23
ATOM     23  C   LIG    1        2.413   0.518  -0.085  0.00  0.00    +0.190 A 
ATOM     24  N   LIG    1        2.739  -0.284   0.892  0.00  0.00    -0.460 NA
ATOM     25  C   LIG    1        3.646  -1.169   0.454  0.00  0.00    +0.140 A 
ATOM     26  C   LIG    1        3.898  -0.901  -0.842  0.00  0.00    +0.130 A 
ATOM     27  N   LIG    1        3.116   0.169  -1.184  0.00  0.00    -0.450 N 
ATOM     28  C   LIG    1        3.053   0.815  -2.497  0.00  0.00    +0.330 C 
ENDBRANCH  22  23
ENDBRANCH   3  18
TORSDOF 4
