REMARK  Name = ZINCqH0000035dy4.0
REMARK                            x       y       z     vdW  Elec       q    Type
REMARK                         _______ _______ _______ _____ _____    ______ ____
ROOT
ATOM      1  C   LIG    1        2.775  -0.382  -0.344  0.00  0.00    +0.530 C 
ATOM      2  N   LIG    1        3.832  -0.838   0.357  0.00  0.00    -0.670 N 
ATOM      3  H   LIG    1        3.930  -0.603   1.293  0.00  0.00    +0.420 HD
ATOM      4  O   LIG    1        2.606  -0.741  -1.490  0.00  0.00    -0.510 OA
ENDROOT
BRANCH   2   5
ATOM      5  C   LIG    1        4.787  -1.650  -0.265  0.00  0.00    +0.150 A 
ATOM      6  C   LIG    1        4.395  -2.564  -1.235  0.00  0.00    +0.050 A 
ATOM      7  C   LIG    1        5.338  -3.361  -1.853  0.00  0.00    +0.040 A 
ATOM      8  C   LIG    1        6.676  -3.257  -1.497  0.00  0.00    +0.100 A 
ATOM      9  C   LIG    1        7.067  -2.348  -0.523  0.00  0.00    +0.050 A 
ATOM     10  C   LIG    1        6.125  -1.546   0.091  0.00  0.00    +0.020 A 
BRANCH   8  11
ATOM     11  N   LIG    1        7.633  -4.072  -2.120  0.00  0.00    -0.410 N 
ATOM     12  C   LIG    1        8.801  -3.662  -2.680  0.00  0.00    +0.400 A 
ATOM     13  N   LIG    1        9.421  -4.705  -3.159  0.00  0.00    -0.480 NA
ATOM     14  C   LIG    1        8.688  -5.804  -2.927  0.00  0.00    +0.000 A 
ATOM     15  C   LIG    1        9.054  -7.211  -3.322  0.00  0.00    +0.140 C 
ATOM     16  C   LIG    1        7.570  -5.432  -2.275  0.00  0.00    -0.020 A 
ATOM     17  C   LIG    1        6.460  -6.338  -1.807  0.00  0.00    +0.140 C 
ENDBRANCH   8  11
ENDBRANCH   2   5
BRANCH   1  20
ATOM     18  C   LIG    1        0.809   2.415  -0.050  0.00  0.00    +0.040 C 
ATOM     19  C   LIG    1        2.268   2.041   0.262  0.00  0.00    +0.130 C 
ATOM     20  C   LIG    1        1.802   0.576   0.296  0.00  0.00    +0.010 C 
ATOM     21  C   LIG    1        0.654   1.001  -0.634  0.00  0.00    +0.090 C 
BRANCH  18  22
ATOM     22  C   LIG    1        0.670   3.527  -1.091  0.00  0.00    +0.440 C 
ATOM     23  F   LIG    1        1.722   3.439  -2.010  0.00  0.00    -0.170 F 
ATOM     24  F   LIG    1        0.712   4.771  -0.453  0.00  0.00    -0.170 F 
ATOM     25  F   LIG    1       -0.549   3.388  -1.762  0.00  0.00    -0.180 F 
ENDBRANCH  18  22
BRANCH  18  27
ATOM     26  C   LIG    1       -1.378   2.381   0.931  0.00  0.00    +0.230 C 
ATOM     27  O   LIG    1        0.015   2.642   1.117  0.00  0.00    -0.330 OA
ENDBRANCH  18  27
ENDBRANCH   1  20
TORSDOF 5
