REMARK  Name = ZINCrD0000074MNT.0
REMARK                            x       y       z     vdW  Elec       q    Type
REMARK                         _______ _______ _______ _____ _____    ______ ____
ROOT
ATOM      1  C   LIG    1       -2.487   7.081   4.276  0.00  0.00    +0.270 C 
ENDROOT
BRANCH   1   2
ATOM      2  C   LIG    1       -2.328   5.604   4.023  0.00  0.00    -0.110 A 
ATOM      3  C   LIG    1       -2.833   4.690   4.931  0.00  0.00    +0.060 A 
ATOM      4  C   LIG    1       -2.692   3.332   4.707  0.00  0.00    +0.010 A 
ATOM      5  C   LIG    1       -2.051   2.881   3.572  0.00  0.00    +0.050 A 
ATOM      6  C   LIG    1       -1.536   3.797   2.654  0.00  0.00    -0.140 A 
ATOM      7  C   LIG    1       -1.681   5.165   2.886  0.00  0.00    +0.110 A 
BRANCH   6   8
ATOM      8  C   LIG    1       -0.843   3.320   1.438  0.00  0.00    +0.560 C 
ATOM      9  N   LIG    1       -0.704   1.998   1.216  0.00  0.00    -0.730 N 
ATOM     10  H   LIG    1       -1.058   1.359   1.854  0.00  0.00    +0.400 HD
ATOM     11  O   LIG    1       -0.400   4.121   0.637  0.00  0.00    -0.530 OA
BRANCH   9  12
ATOM     12  C   LIG    1       -0.019   1.526   0.010  0.00  0.00    +0.260 C 
BRANCH  12  13
ATOM     13  C   LIG    1        0.002  -0.004   0.002  0.00  0.00    -0.030 C 
ATOM     14  C   LIG    1        0.825  -0.496  -1.190  0.00  0.00    +0.030 C 
ATOM     15  C   LIG    1       -1.429  -0.533  -0.113  0.00  0.00    +0.020 C 
ENDBRANCH  12  13
ENDBRANCH   9  12
ENDBRANCH   6   8
ENDBRANCH   1   2
BRANCH   1  16
ATOM     16  O   LIG    1       -3.709   7.536   3.693  0.00  0.00    -0.360 OA
BRANCH  16  17
ATOM     17  C   LIG    1       -4.004   8.846   3.831  0.00  0.00    +0.550 C 
ATOM     18  O   LIG    1       -3.242   9.581   4.430  0.00  0.00    -0.500 OA
BRANCH  17  23
ATOM     19  C   LIG    1       -7.409   5.463   1.101  0.00  0.00    +0.120 C 
ATOM     20  C   LIG    1       -7.319   6.914   1.497  0.00  0.00    -0.100 A 
ATOM     21  C   LIG    1       -6.254   7.356   2.204  0.00  0.00    +0.240 A 
ATOM     22  N   LIG    1       -6.158   8.662   2.569  0.00  0.00    -0.330 N 
ATOM     23  C   LIG    1       -5.199   9.364   3.278  0.00  0.00    -0.150 A 
ATOM     24  C   LIG    1       -5.639  10.678   3.334  0.00  0.00    +0.360 A 
ATOM     25  N   LIG    1       -6.797  10.754   2.700  0.00  0.00    -0.490 NA
ATOM     26  C   LIG    1       -7.136   9.553   2.232  0.00  0.00    +0.250 A 
ATOM     27  C   LIG    1       -8.254   9.113   1.501  0.00  0.00    +0.070 A 
ATOM     28  C   LIG    1       -8.338   7.804   1.131  0.00  0.00    +0.070 A 
ENDBRANCH  17  23
ENDBRANCH  16  17
ENDBRANCH   1  16
TORSDOF 7
