REMARK  Name = ZINCkj000005m446.0
REMARK                            x       y       z     vdW  Elec       q    Type
REMARK                         _______ _______ _______ _____ _____    ______ ____
ROOT
ATOM      1  O   LIG    1        3.205   0.461  -3.255  0.00  0.00    -0.470 OA
ATOM      2  C   LIG    1        2.985  -0.365  -2.395  0.00  0.00    +0.520 C 
ATOM      3  N   LIG    1        3.132  -1.677  -2.667  0.00  0.00    -0.570 N 
ENDROOT
BRANCH   2   4
ATOM      4  C   LIG    1        2.547   0.074  -1.022  0.00  0.00    +0.150 C 
ATOM      5  C   LIG    1        1.102   0.577  -1.083  0.00  0.00    +0.260 C 
ATOM      6  N   LIG    1        0.697   1.058   0.245  0.00  0.00    -0.500 N 
ATOM      7  C   LIG    1        1.582   2.156   0.658  0.00  0.00    +0.250 C 
ATOM      8  C   LIG    1        3.026   1.651   0.716  0.00  0.00    +0.260 C 
ATOM      9  H   LIG    1       -0.255   1.390   0.206  0.00  0.00    +0.440 HD
ATOM     10  H   LIG    1        0.764   0.304   0.911  0.00  0.00    +0.430 HD
ATOM     11  O   LIG    1        3.395   1.131  -0.565  0.00  0.00    -0.330 OA
ENDBRANCH   2   4
BRANCH   3  12
ATOM     12  C   LIG    1        2.710  -2.681  -1.687  0.00  0.00    +0.240 C 
ATOM     13  C   LIG    1        1.657  -2.264  -0.659  0.00  0.00    -0.020 C 
ATOM     14  C   LIG    1        3.112  -2.456  -0.228  0.00  0.00    +0.020 C 
ENDBRANCH   3  12
BRANCH   3  15
ATOM     15  C   LIG    1        3.715  -2.100  -3.944  0.00  0.00    +0.370 C 
BRANCH  15  16
ATOM     16  C   LIG    1        5.210  -2.220  -3.799  0.00  0.00    -0.160 A 
ATOM     17  C   LIG    1        5.798  -3.467  -3.717  0.00  0.00    +0.060 A 
ATOM     18  C   LIG    1        7.170  -3.578  -3.584  0.00  0.00    +0.000 A 
ATOM     19  C   LIG    1        7.954  -2.441  -3.532  0.00  0.00    +0.060 A 
ATOM     20  C   LIG    1        7.368  -1.192  -3.613  0.00  0.00    -0.020 A 
ATOM     21  C   LIG    1        5.995  -1.080  -3.753  0.00  0.00    +0.110 A 
ATOM     22  F   LIG    1        5.421   0.140  -3.838  0.00  0.00    -0.120 F 
ENDBRANCH  15  16
ENDBRANCH   3  15
TORSDOF 4
