REMARK  Name = ZINCqH0000000qPy.0
REMARK                            x       y       z     vdW  Elec       q    Type
REMARK                         _______ _______ _______ _____ _____    ______ ____
ROOT
ATOM      1  C   LIG    1       -3.631  -1.078  -0.207  0.00  0.00    +0.060 C 
ENDROOT
BRANCH   1   2
ATOM      2  C   LIG    1       -2.323  -0.336  -0.116  0.00  0.00    +0.500 C 
ATOM      3  N   LIG    1       -2.316   1.008  -0.014  0.00  0.00    -0.660 N 
ATOM      4  H   LIG    1       -3.152   1.492   0.078  0.00  0.00    +0.420 HD
ATOM      5  O   LIG    1       -1.276  -0.947  -0.134  0.00  0.00    -0.450 OA
BRANCH   3   6
ATOM      6  C   LIG    1       -1.110   1.702  -0.042  0.00  0.00    +0.380 A 
ATOM      7  N   LIG    1        0.019   1.027  -0.066  0.00  0.00    -0.470 NA
ATOM      8  C   LIG    1        1.202   1.652  -0.087  0.00  0.00    +0.160 A 
ATOM      9  C   LIG    1        2.404   0.926  -0.108  0.00  0.00    +0.040 A 
ATOM     10  C   LIG    1        3.594   1.588  -0.129  0.00  0.00    +0.040 A 
ATOM     11  C   LIG    1        3.640   2.980  -0.130  0.00  0.00    +0.000 A 
ATOM     12  C   LIG    1        2.495   3.718  -0.110  0.00  0.00    +0.040 A 
ATOM     13  C   LIG    1        1.252   3.068  -0.089  0.00  0.00    -0.130 A 
ATOM     14  C   LIG    1        0.045   3.797  -0.068  0.00  0.00    +0.110 A 
ATOM     15  C   LIG    1       -1.128   3.104  -0.047  0.00  0.00    -0.060 A 
ENDBRANCH   3   6
ENDBRANCH   1   2
BRANCH   1  16
ATOM     16  C   LIG    1       -3.359  -2.580  -0.313  0.00  0.00    +0.310 C 
BRANCH  16  17
ATOM     17  C   LIG    1       -4.665  -3.331  -0.280  0.00  0.00    -0.100 A 
ATOM     18  C   LIG    1       -5.490  -3.331  -1.389  0.00  0.00    +0.020 A 
ATOM     19  C   LIG    1       -6.686  -4.023  -1.361  0.00  0.00    +0.000 A 
ATOM     20  C   LIG    1       -7.061  -4.708  -0.221  0.00  0.00    -0.080 A 
ATOM     21  C   LIG    1       -6.239  -4.704   0.891  0.00  0.00    +0.000 A 
ATOM     22  C   LIG    1       -8.367  -5.460  -0.188  0.00  0.00    +0.090 C 
ATOM     23  C   LIG    1       -5.041  -4.015   0.861  0.00  0.00    +0.030 A 
ENDBRANCH  16  17
BRANCH  16  26
ATOM     24  C   LIG    1       -1.145  -4.237  -2.957  0.00  0.00    +0.090 C 
ATOM     25  C   LIG    1       -1.951  -3.999  -1.706  0.00  0.00    +0.520 C 
ATOM     26  N   LIG    1       -2.664  -2.863  -1.571  0.00  0.00    -0.720 N 
ATOM     27  H   LIG    1       -2.717  -2.233  -2.307  0.00  0.00    +0.400 HD
ATOM     28  O   LIG    1       -1.958  -4.828  -0.822  0.00  0.00    -0.540 OA
ENDBRANCH  16  26
ENDBRANCH   1  16
TORSDOF 5
