REMARK  Name = ZINCkj00000kIZ2U.0
REMARK                            x       y       z     vdW  Elec       q    Type
REMARK                         _______ _______ _______ _____ _____    ______ ____
ROOT
ATOM      1  C   LIG    1        2.663   2.198   2.049  0.00  0.00    +0.070 C 
ATOM      2  C   LIG    1        2.132   1.014   1.240  0.00  0.00    -0.010 C 
ATOM      3  C   LIG    1        3.303   0.179   0.678  0.00  0.00    +0.290 C 
ATOM      4  N   LIG    1        3.511   0.703  -0.692  0.00  0.00    -0.630 N 
ATOM      5  C   LIG    1        2.142   0.937  -1.207  0.00  0.00    +0.290 C 
ATOM      6  C   LIG    1        4.681   0.917  -1.326  0.00  0.00    +0.540 C 
ATOM      7  O   LIG    1        4.686   1.354  -2.458  0.00  0.00    -0.490 OA
ATOM      8  C   LIG    1        1.367   1.513  -0.003  0.00  0.00    +0.160 C 
ENDROOT
BRANCH   8   9
ATOM      9  N   LIG    1       -0.012   1.005   0.008  0.00  0.00    -0.380 N 
ATOM     10  C   LIG    1       -0.699   1.479   1.216  0.00  0.00    +0.320 C 
ATOM     11  C   LIG    1       -0.722   1.492  -1.183  0.00  0.00    +0.320 C 
ATOM     12  H   LIG    1        0.002  -0.004   0.002  0.00  0.00    +0.430 HD
ENDBRANCH   8   9
BRANCH   6  13
ATOM     13  C   LIG    1        5.982   0.613  -0.630  0.00  0.00    +0.190 C 
BRANCH  13  14
ATOM     14  C   LIG    1        7.132   0.938  -1.549  0.00  0.00    +0.040 A 
ATOM     15  C   LIG    1        8.157   1.758  -1.266  0.00  0.00    +0.140 A 
ATOM     16  N   LIG    1        8.992   1.781  -2.377  0.00  0.00    -0.420 N 
ATOM     17  C   LIG    1       10.168   2.373  -2.779  0.00  0.00    +0.210 A 
ATOM     18  C   LIG    1       10.635   2.104  -3.986  0.00  0.00    +0.020 A 
ATOM     19  S   LIG    1        9.470   0.979  -4.707  0.00  0.00    +0.170 S 
ATOM     20  C   LIG    1        8.411   0.955  -3.289  0.00  0.00    +0.160 A 
ATOM     21  N   LIG    1        7.308   0.453  -2.786  0.00  0.00    -0.430 NA
ENDBRANCH  13  14
ENDBRANCH   6  13
TORSDOF 3
