REMARK  Name = ZINCrH000004mCWh.0
REMARK                            x       y       z     vdW  Elec       q    Type
REMARK                         _______ _______ _______ _____ _____    ______ ____
ROOT
ATOM      1  C   LIG    1       -4.888   0.923   0.245  0.00  0.00    +0.220 C 
ENDROOT
BRANCH   1   2
ATOM      2  C   LIG    1       -3.600   1.696   0.130  0.00  0.00    +0.510 C 
ATOM      3  N   LIG    1       -2.428   1.041   0.019  0.00  0.00    -0.680 N 
ATOM      4  H   LIG    1       -2.418   0.074  -0.063  0.00  0.00    +0.410 HD
ATOM      5  O   LIG    1       -3.618   2.909   0.137  0.00  0.00    -0.490 OA
BRANCH   3   6
ATOM      6  C   LIG    1       -1.224   1.754   0.023  0.00  0.00    +0.180 A 
ATOM      7  C   LIG    1       -1.104   2.913   0.779  0.00  0.00    +0.030 A 
ATOM      8  C   LIG    1        0.087   3.612   0.785  0.00  0.00    +0.090 A 
ATOM      9  C   LIG    1        1.159   3.161   0.036  0.00  0.00    -0.200 A 
ATOM     10  C   LIG    1        1.041   2.010  -0.722  0.00  0.00    +0.090 A 
ATOM     11  C   LIG    1       -0.148   1.307  -0.732  0.00  0.00    -0.010 A 
BRANCH   9  12
ATOM     12  C   LIG    1        2.457   3.925   0.046  0.00  0.00    +0.510 C 
ATOM     13  F   LIG    1        2.197   5.284   0.254  0.00  0.00    -0.180 F 
ATOM     14  F   LIG    1        3.106   3.758  -1.182  0.00  0.00    -0.180 F 
ATOM     15  F   LIG    1        3.274   3.445   1.075  0.00  0.00    -0.180 F 
ENDBRANCH   9  12
ENDBRANCH   3   6
ENDBRANCH   1   2
BRANCH   1  16
ATOM     16  N   LIG    1       -6.014   1.860   0.353  0.00  0.00    -0.520 NA
ATOM     17  C   LIG    1       -6.179   2.630  -0.887  0.00  0.00    +0.200 C 
BRANCH  16  18
ATOM     18  C   LIG    1       -7.254   1.155   0.704  0.00  0.00    +0.240 C 
BRANCH  18  22
ATOM     19  C   LIG    1      -10.289   4.006   1.678  0.00  0.00    +0.100 A 
ATOM     20  C   LIG    1       -9.454   3.513   2.667  0.00  0.00    -0.030 A 
ATOM     21  C   LIG    1       -8.477   2.588   2.350  0.00  0.00    +0.040 A 
ATOM     22  C   LIG    1       -8.324   2.160   1.045  0.00  0.00    -0.080 A 
ATOM     23  C   LIG    1       -9.154   2.647   0.052  0.00  0.00    -0.030 A 
ATOM     24  C   LIG    1      -10.139   3.571   0.364  0.00  0.00    +0.100 A 
BRANCH  19  26
ATOM     25  C   LIG    1      -11.351   5.312   3.358  0.00  0.00    +0.250 C 
ATOM     26  O   LIG    1      -11.255   4.912   1.990  0.00  0.00    -0.310 OA
ENDBRANCH  19  26
BRANCH  24  27
ATOM     27  O   LIG    1      -10.956   4.052  -0.611  0.00  0.00    -0.310 OA
ATOM     28  C   LIG    1      -10.743   3.561  -1.936  0.00  0.00    +0.230 C 
ENDBRANCH  24  27
ENDBRANCH  18  22
ENDBRANCH  16  18
ENDBRANCH   1  16
TORSDOF 8
