REMARK  Name = ZINCpk00000Pdpux.0
REMARK                            x       y       z     vdW  Elec       q    Type
REMARK                         _______ _______ _______ _____ _____    ______ ____
ROOT
ATOM      1  N   LIG    1        4.200   2.250  -1.391  0.00  0.00    -0.500 NA
ATOM      2  C   LIG    1        3.265   3.190  -2.023  0.00  0.00    +0.200 C 
ENDROOT
BRANCH   1   7
ATOM      3  C   LIG    1        6.066   2.707  -2.954  0.00  0.00    +0.160 C 
ATOM      4  C   LIG    1        6.377   4.185  -3.277  0.00  0.00    +0.190 C 
ATOM      5  O   LIG    1        6.637   4.797  -1.995  0.00  0.00    -0.360 OA
ATOM      6  C   LIG    1        5.657   4.231  -1.098  0.00  0.00    +0.170 C 
ATOM      7  C   LIG    1        5.582   2.738  -1.487  0.00  0.00    +0.170 C 
BRANCH   3   8
ATOM      8  O   LIG    1        5.036   2.213  -3.811  0.00  0.00    -0.260 OA
BRANCH   8  12
ATOM      9  C   LIG    1        4.930  -0.269  -8.016  0.00  0.00    +0.370 C 
ATOM     10  N   LIG    1        5.398   0.433  -6.818  0.00  0.00    -0.370 N 
ATOM     11  C   LIG    1        4.612   1.000  -5.865  0.00  0.00    +0.200 A 
ATOM     12  C   LIG    1        5.431   1.547  -4.932  0.00  0.00    -0.030 A 
ATOM     13  C   LIG    1        6.754   1.301  -5.322  0.00  0.00    +0.170 A 
ATOM     14  N   LIG    1        6.734   0.636  -6.449  0.00  0.00    -0.270 NA
ENDBRANCH   8  12
ENDBRANCH   3   8
ENDBRANCH   1   7
BRANCH   1  15
ATOM     15  C   LIG    1        3.827   1.996   0.007  0.00  0.00    +0.240 C 
BRANCH  15  16
ATOM     16  C   LIG    1        2.506   1.272   0.051  0.00  0.00    -0.080 A 
ATOM     17  C   LIG    1        1.344   1.971   0.316  0.00  0.00    +0.020 A 
ATOM     18  C   LIG    1        0.130   1.310   0.357  0.00  0.00    +0.010 A 
ATOM     19  C   LIG    1        0.075  -0.053   0.135  0.00  0.00    +0.020 A 
ATOM     20  C   LIG    1        1.238  -0.761  -0.131  0.00  0.00    +0.050 A 
ATOM     21  O   LIG    1        1.169  -2.103  -0.344  0.00  0.00    -0.310 OA
ATOM     22  C   LIG    1        2.300  -2.715  -0.973  0.00  0.00    +0.220 C 
ATOM     23  C   LIG    1        3.571  -2.194  -0.287  0.00  0.00    +0.220 C 
ATOM     24  O   LIG    1        3.610  -0.771  -0.438  0.00  0.00    -0.290 OA
ATOM     25  C   LIG    1        2.457  -0.096  -0.174  0.00  0.00    +0.080 A 
ENDBRANCH  15  16
ENDBRANCH   1  15
TORSDOF 5
