REMARK  Name = ZINCpe000000XZ3h.0
REMARK                            x       y       z     vdW  Elec       q    Type
REMARK                         _______ _______ _______ _____ _____    ______ ____
ROOT
ATOM      1  N   LIG    1        1.231  -2.082  -0.022  0.00  0.00    -0.680 N 
ATOM      2  H   LIG    1        0.401  -2.577   0.061  0.00  0.00    +0.410 HD
ATOM      3  C   LIG    1        2.400  -2.741  -0.139  0.00  0.00    +0.510 C 
ATOM      4  O   LIG    1        3.446  -2.126  -0.145  0.00  0.00    -0.490 OA
ENDROOT
BRANCH   1   8
ATOM      5  C   LIG    1        1.180   2.087  -0.015  0.00  0.00    -0.030 A 
ATOM      6  C   LIG    1        2.125   1.401  -0.777  0.00  0.00    +0.070 A 
ATOM      7  C   LIG    1        2.139   0.023  -0.778  0.00  0.00    +0.020 A 
ATOM      8  C   LIG    1        1.214  -0.683  -0.019  0.00  0.00    +0.160 A 
ATOM      9  C   LIG    1        0.271  -0.002   0.741  0.00  0.00    -0.020 A 
ATOM     10  C   LIG    1        0.252   1.376   0.745  0.00  0.00    +0.090 A 
BRANCH   5  14
ATOM     11  C   LIG    1       -0.169   6.774   1.043  0.00  0.00    +0.200 C 
ATOM     12  C   LIG    1        0.570   5.601   0.453  0.00  0.00    +0.290 A 
ATOM     13  N   LIG    1        0.305   4.340   0.672  0.00  0.00    -0.530 NA
ATOM     14  C   LIG    1        1.162   3.570  -0.012  0.00  0.00    +0.270 A 
ATOM     15  N   LIG    1        1.982   4.348  -0.685  0.00  0.00    -0.310 NA
ATOM     16  N   LIG    1        1.612   5.671  -0.395  0.00  0.00    -0.480 N 
ATOM     17  H   LIG    1        2.026   6.478  -0.739  0.00  0.00    +0.440 HD
ENDBRANCH   5  14
ENDBRANCH   1   8
BRANCH   3  18
ATOM     18  C   LIG    1        2.410  -4.243  -0.261  0.00  0.00    +0.210 C 
BRANCH  18  19
ATOM     19  N   LIG    1        3.796  -4.717  -0.374  0.00  0.00    -0.500 NA
ATOM     20  C   LIG    1        4.542  -4.462   0.865  0.00  0.00    +0.210 C 
BRANCH  19  21
ATOM     21  C   LIG    1        3.838  -6.141  -0.731  0.00  0.00    +0.200 C 
ATOM     22  C   LIG    1        3.302  -6.992   0.433  0.00  0.00    +0.020 C 
ATOM     23  C   LIG    1        3.669  -8.467   0.177  0.00  0.00    -0.310 C 
ATOM     24  S   LIG    1        5.194  -8.411  -0.832  0.00  0.00    +2.390 S 
ATOM     25  O   LIG    1        6.287  -8.892  -0.061  0.00  0.00    -0.930 OA
ATOM     26  O   LIG    1        4.932  -8.964  -2.114  0.00  0.00    -0.930 OA
ATOM     27  C   LIG    1        5.304  -6.586  -0.968  0.00  0.00    -0.300 C 
ENDBRANCH  19  21
ENDBRANCH  18  19
ENDBRANCH   3  18
TORSDOF 5
