REMARK  Name = ZINCpk00000ebKwq.0
REMARK                            x       y       z     vdW  Elec       q    Type
REMARK                         _______ _______ _______ _____ _____    ______ ____
ROOT
ATOM      1  C   LIG    1        1.562   2.038   2.128  0.00  0.00    -0.110 A 
ATOM      2  C   LIG    1        2.179   1.598   0.954  0.00  0.00    +0.050 A 
ATOM      3  C   LIG    1        3.552   1.598   0.856  0.00  0.00    +0.010 A 
ATOM      4  C   LIG    1        4.328   2.024   1.929  0.00  0.00    +0.080 A 
ATOM      5  C   LIG    1        3.717   2.458   3.105  0.00  0.00    +0.120 A 
ATOM      6  F   LIG    1        4.473   2.873   4.145  0.00  0.00    -0.120 F 
ATOM      7  C   LIG    1        2.343   2.466   3.206  0.00  0.00    +0.060 A 
ENDROOT
BRANCH   1  17
ATOM      8  O   LIG    1       -2.809   4.549  -1.315  0.00  0.00    -0.530 OA
ATOM      9  C   LIG    1       -2.125   3.879  -0.571  0.00  0.00    +0.540 C 
ATOM     10  C   LIG    1       -0.663   3.732  -0.861  0.00  0.00    +0.080 C 
ATOM     11  C   LIG    1       -0.015   2.572  -0.131  0.00  0.00    +0.280 C 
ATOM     12  N   LIG    1       -0.662   2.255   1.135  0.00  0.00    -0.610 N 
ATOM     13  C   LIG    1       -2.110   2.159   1.232  0.00  0.00    +0.460 C 
ATOM     14  C   LIG    1       -2.594   2.366   2.684  0.00  0.00    +0.080 C 
ATOM     15  C   LIG    1       -4.063   2.816   2.436  0.00  0.00    +0.030 C 
ATOM     16  C   LIG    1       -3.944   3.682   1.160  0.00  0.00    +0.250 C 
ATOM     17  C   LIG    1        0.091   2.044   2.233  0.00  0.00    +0.570 C 
ATOM     18  O   LIG    1       -0.443   1.860   3.310  0.00  0.00    -0.510 OA
ATOM     19  N   LIG    1       -2.698   3.289   0.488  0.00  0.00    -0.630 N 
ENDBRANCH   1  17
BRANCH   4  20
ATOM     20  N   LIG    1        5.716   2.017   1.829  0.00  0.00    -0.500 N 
ATOM     21  C   LIG    1        6.174   2.946   0.785  0.00  0.00    +0.160 C 
ATOM     22  C   LIG    1        7.704   2.951   0.750  0.00  0.00    +0.220 C 
ATOM     23  O   LIG    1        8.175   1.618   0.533  0.00  0.00    -0.380 OA
ATOM     24  C   LIG    1        7.749   0.687   1.531  0.00  0.00    +0.220 C 
ATOM     25  C   LIG    1        6.219   0.659   1.574  0.00  0.00    +0.160 C 
ENDBRANCH   4  20
TORSDOF 2
