REMARK  Name = ZINCkj000005jXAm.1
REMARK                            x       y       z     vdW  Elec       q    Type
REMARK                         _______ _______ _______ _____ _____    ______ ____
ROOT
ATOM      1  N   LIG    1        1.404  -2.534   2.450  0.00  0.00    -0.730 N 
ATOM      2  H   LIG    1        1.410  -1.985   3.249  0.00  0.00    +0.400 HD
ATOM      3  C   LIG    1        1.986  -3.750   2.462  0.00  0.00    +0.590 C 
ATOM      4  O   LIG    1        1.978  -4.438   1.459  0.00  0.00    -0.520 OA
ENDROOT
BRANCH   1   8
ATOM      5  C   LIG    1       -0.019   1.526   0.010  0.00  0.00    +0.100 C 
ATOM      6  C   LIG    1        0.002  -0.004   0.002  0.00  0.00    +0.170 C 
ATOM      7  C   LIG    1        0.744  -0.510   1.241  0.00  0.00    +0.070 C 
ATOM      8  C   LIG    1        0.762  -2.042   1.228  0.00  0.00    +0.250 C 
ATOM      9  C   LIG    1       -0.678  -2.559   1.162  0.00  0.00    +0.050 C 
ATOM     10  C   LIG    1       -1.367  -1.977  -0.074  0.00  0.00    +0.270 C 
ATOM     11  N   LIG    1       -1.375  -0.511   0.011  0.00  0.00    -0.380 N 
ATOM     12  C   LIG    1       -2.040  -0.098   1.254  0.00  0.00    +0.320 C 
ATOM     13  H   LIG    1       -1.877  -0.133  -0.778  0.00  0.00    +0.430 HD
ENDBRANCH   1   8
BRANCH   3  14
ATOM     14  C   LIG    1        2.630  -4.245   3.689  0.00  0.00    -0.190 A 
ATOM     15  C   LIG    1        2.680  -3.535   4.849  0.00  0.00    -0.010 A 
ATOM     16  S   LIG    1        3.499  -4.411   6.060  0.00  0.00    +0.340 S 
ATOM     17  C   LIG    1        3.788  -5.770   4.987  0.00  0.00    -0.800 A 
ATOM     18  C   LIG    1        3.271  -5.535   3.787  0.00  0.00    +0.220 A 
BRANCH  17  19
ATOM     19  S   LIG    1        4.640  -7.244   5.442  0.00  0.00    +2.520 S 
ATOM     20  O   LIG    1        4.119  -8.234   4.566  0.00  0.00    -0.920 OA
ATOM     21  O   LIG    1        4.452  -7.337   6.848  0.00  0.00    -0.920 OA
ATOM     22  C   LIG    1        6.378  -6.901   5.053  0.00  0.00    -0.240 C 
ENDBRANCH  17  19
ENDBRANCH   3  14
TORSDOF 3
