REMARK  Name = ZINCkj000005jXAm.0
REMARK                            x       y       z     vdW  Elec       q    Type
REMARK                         _______ _______ _______ _____ _____    ______ ____
ROOT
ATOM      1  N   LIG    1       -0.117   1.062  -2.438  0.00  0.00    -0.730 N 
ATOM      2  H   LIG    1        0.391   0.236  -2.394  0.00  0.00    +0.400 HD
ATOM      3  C   LIG    1       -0.234   1.719  -3.608  0.00  0.00    +0.590 C 
ATOM      4  O   LIG    1       -0.870   2.755  -3.663  0.00  0.00    -0.520 OA
ENDROOT
BRANCH   1   8
ATOM      5  C   LIG    1        0.009   1.075   2.506  0.00  0.00    +0.100 C 
ATOM      6  C   LIG    1       -0.731   1.580   1.266  0.00  0.00    +0.170 C 
ATOM      7  C   LIG    1       -0.013   1.086   0.008  0.00  0.00    +0.060 C 
ATOM      8  C   LIG    1       -0.755   1.594  -1.231  0.00  0.00    +0.250 C 
ATOM      9  C   LIG    1       -2.211   1.122  -1.172  0.00  0.00    +0.050 C 
ATOM     10  C   LIG    1       -2.848   1.615   0.129  0.00  0.00    +0.270 C 
ATOM     11  N   LIG    1       -2.109   1.074   1.276  0.00  0.00    -0.380 N 
ATOM     12  C   LIG    1       -2.771   1.486   2.522  0.00  0.00    +0.330 C 
ATOM     13  H   LIG    1       -2.096   0.066   1.221  0.00  0.00    +0.420 HD
ENDBRANCH   1   8
BRANCH   3  14
ATOM     14  C   LIG    1        0.408   1.185  -4.820  0.00  0.00    -0.190 A 
ATOM     15  C   LIG    1        1.139   0.038  -4.838  0.00  0.00    -0.010 A 
ATOM     16  S   LIG    1        1.728  -0.281  -6.405  0.00  0.00    +0.340 S 
ATOM     17  C   LIG    1        0.985   1.167  -7.061  0.00  0.00    -0.800 A 
ATOM     18  C   LIG    1        0.331   1.827  -6.111  0.00  0.00    +0.220 A 
BRANCH  17  19
ATOM     19  S   LIG    1        1.091   1.676  -8.744  0.00  0.00    +2.520 S 
ATOM     20  O   LIG    1       -0.079   2.457  -8.949  0.00  0.00    -0.920 OA
ATOM     21  O   LIG    1        1.300   0.468  -9.463  0.00  0.00    -0.920 OA
ATOM     22  C   LIG    1        2.573   2.720  -8.809  0.00  0.00    -0.240 C 
ENDBRANCH  17  19
ENDBRANCH   3  14
TORSDOF 3
