REMARK  Name = ZINCrH000004uVYk.0
REMARK                            x       y       z     vdW  Elec       q    Type
REMARK                         _______ _______ _______ _____ _____    ______ ____
ROOT
ATOM      1  O   LIG    1        5.562   7.559  -1.864  0.00  0.00    -0.590 OA
ATOM      2  C   LIG    1        6.356   7.143  -1.043  0.00  0.00    +0.710 C 
ATOM      3  N   LIG    1        7.616   7.621  -1.021  0.00  0.00    -0.720 N 
ATOM      4  H   LIG    1        8.250   7.288  -0.366  0.00  0.00    +0.400 HD
ATOM      5  N   LIG    1        5.977   6.202  -0.155  0.00  0.00    -0.740 N 
ATOM      6  H   LIG    1        6.611   5.870   0.500  0.00  0.00    +0.400 HD
ENDROOT
BRANCH   3   7
ATOM      7  C   LIG    1        8.029   8.643  -1.986  0.00  0.00    +0.310 C 
ATOM      8  C   LIG    1        8.561   7.992  -3.245  0.00  0.00    -0.110 A 
ATOM      9  C   LIG    1        7.891   7.416  -4.310  0.00  0.00    +0.050 A 
ATOM     10  C   LIG    1        8.598   6.876  -5.367  0.00  0.00    +0.010 A 
ATOM     11  C   LIG    1        9.979   6.912  -5.362  0.00  0.00    +0.020 A 
ATOM     12  C   LIG    1       10.650   7.486  -4.300  0.00  0.00    +0.010 A 
ATOM     13  C   LIG    1        9.944   8.027  -3.240  0.00  0.00    -0.090 A 
ATOM     14  C   LIG    1       10.434   8.704  -1.978  0.00  0.00    +0.050 C 
ATOM     15  C   LIG    1        9.209   9.464  -1.425  0.00  0.00    +0.190 C 
BRANCH  15  16
ATOM     16  O   LIG    1        9.204   9.449   0.004  0.00  0.00    -0.550 OA
ATOM     17  H   LIG    1        9.927   9.952   0.405  0.00  0.00    +0.390 HD
ENDBRANCH  15  16
ENDBRANCH   3   7
BRANCH   5  18
ATOM     18  C   LIG    1        4.608   5.682  -0.179  0.00  0.00    +0.250 C 
ATOM     19  C   LIG    1        4.507   4.547  -1.200  0.00  0.00    +0.060 C 
ATOM     20  C   LIG    1        3.190   3.840  -1.057  0.00  0.00    -0.010 C 
ATOM     21  C   LIG    1        2.420   3.936  -0.000  0.00  0.00    -0.090 C 
ATOM     22  C   LIG    1        2.747   4.778   1.199  0.00  0.00    +0.090 C 
ATOM     23  C   LIG    1        4.238   5.129   1.203  0.00  0.00    +0.020 C 
BRANCH  21  24
ATOM     24  C   LIG    1        1.153   3.176   0.008  0.00  0.00    -0.060 A 
ATOM     25  C   LIG    1        1.173   1.780   0.000  0.00  0.00    +0.050 A 
ATOM     26  C   LIG    1       -0.013   1.076   0.008  0.00  0.00    -0.010 A 
ATOM     27  C   LIG    1       -1.223   1.751   0.017  0.00  0.00    +0.100 A 
ATOM     28  C   LIG    1       -1.248   3.136   0.031  0.00  0.00    -0.010 A 
ATOM     29  F   LIG    1       -2.381   1.056   0.019  0.00  0.00    -0.140 F 
ATOM     30  C   LIG    1       -0.069   3.851   0.023  0.00  0.00    +0.050 A 
ENDBRANCH  21  24
ENDBRANCH   5  18
TORSDOF 4
