REMARK  Name = ZINCrD000000CS8Z.0
REMARK                            x       y       z     vdW  Elec       q    Type
REMARK                         _______ _______ _______ _____ _____    ______ ____
ROOT
ATOM      1  O   LIG    1        6.147   8.187   2.896  0.00  0.00    -0.530 OA
ATOM      2  C   LIG    1        6.345   7.622   1.841  0.00  0.00    +0.520 C 
ATOM      3  C   LIG    1        6.357   6.117   1.651  0.00  0.00    +0.080 C 
ATOM      4  C   LIG    1        6.264   5.941   0.135  0.00  0.00    -0.090 C 
ATOM      5  C   LIG    1        6.789   7.266  -0.416  0.00  0.00    +0.290 C 
ATOM      6  C   LIG    1        7.076   4.739  -0.362  0.00  0.00    +0.070 C 
ATOM      7  C   LIG    1        6.064   3.575  -0.251  0.00  0.00    +0.230 C 
ATOM      8  N   LIG    1        4.717   4.166  -0.222  0.00  0.00    -0.630 N 
ATOM      9  C   LIG    1        3.561   3.481  -0.114  0.00  0.00    +0.720 C 
ATOM     10  N   LIG    1        3.582   2.136  -0.020  0.00  0.00    -0.680 N 
ATOM     11  H   LIG    1        4.428   1.667   0.048  0.00  0.00    +0.410 HD
ATOM     12  O   LIG    1        2.501   4.075  -0.101  0.00  0.00    -0.560 OA
ATOM     13  C   LIG    1        4.838   5.634  -0.338  0.00  0.00    +0.310 C 
ATOM     14  N   LIG    1        6.585   8.239   0.669  0.00  0.00    -0.730 N 
ATOM     15  H   LIG    1        6.619   9.202   0.554  0.00  0.00    +0.410 HD
ENDROOT
BRANCH  10  16
ATOM     16  C   LIG    1        2.382   1.417  -0.019  0.00  0.00    +0.200 A 
ATOM     17  C   LIG    1        2.275   0.247   0.723  0.00  0.00    -0.020 A 
ATOM     18  C   LIG    1        1.094  -0.465   0.726  0.00  0.00    +0.090 A 
ATOM     19  C   LIG    1        0.006  -0.011  -0.017  0.00  0.00    -0.100 A 
ATOM     20  C   LIG    1        0.115   1.165  -0.762  0.00  0.00    +0.140 A 
ATOM     21  F   LIG    1       -0.938   1.609  -1.483  0.00  0.00    -0.130 F 
ATOM     22  C   LIG    1        1.300   1.874  -0.761  0.00  0.00    -0.010 A 
BRANCH  19  23
ATOM     23  C   LIG    1       -1.265  -0.775  -0.015  0.00  0.00    -0.020 A 
ATOM     24  C   LIG    1       -2.472  -0.124   0.235  0.00  0.00    +0.020 A 
ATOM     25  C   LIG    1       -3.653  -0.838   0.235  0.00  0.00    +0.050 A 
ATOM     26  C   LIG    1       -3.641  -2.199  -0.012  0.00  0.00    -0.010 A 
ATOM     27  C   LIG    1       -2.445  -2.852  -0.262  0.00  0.00    +0.100 A 
ATOM     28  F   LIG    1       -2.440  -4.182  -0.502  0.00  0.00    -0.140 F 
ATOM     29  C   LIG    1       -1.258  -2.145  -0.270  0.00  0.00    +0.000 A 
ENDBRANCH  19  23
ENDBRANCH  10  16
TORSDOF 2
