REMARK  Name = ZINCqH0000031LCF.0
REMARK                            x       y       z     vdW  Elec       q    Type
REMARK                         _______ _______ _______ _____ _____    ______ ____
ROOT
ATOM      1  C   LIG    1        3.506  -1.345  -0.032  0.00  0.00    +0.190 A 
ATOM      2  C   LIG    1        3.190  -2.686   0.144  0.00  0.00    +0.000 A 
ATOM      3  C   LIG    1        1.867  -3.083   0.160  0.00  0.00    +0.070 A 
ATOM      4  C   LIG    1        0.859  -2.151   0.001  0.00  0.00    -0.150 A 
ATOM      5  C   LIG    1       -0.644  -2.314  -0.022  0.00  0.00    +0.100 C 
ATOM      6  C   LIG    1       -1.185  -0.891  -0.235  0.00  0.00    +0.280 C 
ATOM      7  N   LIG    1        0.003  -0.037  -0.318  0.00  0.00    -0.560 N 
ATOM      8  C   LIG    1       -0.017   1.298  -0.503  0.00  0.00    +0.520 C 
ATOM      9  O   LIG    1        1.024   1.918  -0.558  0.00  0.00    -0.510 OA
ATOM     10  C   LIG    1        1.160  -0.810  -0.182  0.00  0.00    +0.160 A 
ATOM     11  C   LIG    1        2.496  -0.410  -0.191  0.00  0.00    -0.020 A 
ENDROOT
BRANCH   1  15
ATOM     12  N   LIG    1        7.091  -1.408  -0.476  0.00  0.00    -0.730 N 
ATOM     13  H   LIG    1        7.346  -0.573  -0.053  0.00  0.00    +0.400 HD
ATOM     14  C   LIG    1        5.790  -1.753  -0.556  0.00  0.00    +0.710 C 
ATOM     15  N   LIG    1        4.844  -0.938  -0.049  0.00  0.00    -0.690 N 
ATOM     16  H   LIG    1        5.092  -0.069   0.304  0.00  0.00    +0.410 HD
ATOM     17  O   LIG    1        5.470  -2.799  -1.086  0.00  0.00    -0.560 OA
BRANCH  12  19
ATOM     18  C   LIG    1        7.878  -2.484  -2.526  0.00  0.00    +0.020 C 
ATOM     19  C   LIG    1        8.119  -2.294  -1.027  0.00  0.00    +0.190 C 
ATOM     20  C   LIG    1        8.052  -3.652  -0.324  0.00  0.00    +0.020 C 
ATOM     21  C   LIG    1        9.499  -1.673  -0.806  0.00  0.00    +0.040 C 
ENDBRANCH  12  19
ENDBRANCH   1  15
BRANCH   8  22
ATOM     22  C   LIG    1       -1.332   2.019  -0.649  0.00  0.00    +0.120 C 
BRANCH  22  23
ATOM     23  C   LIG    1       -1.078   3.492  -0.844  0.00  0.00    -0.070 A 
ATOM     24  C   LIG    1       -1.008   4.332   0.252  0.00  0.00    +0.020 A 
ATOM     25  C   LIG    1       -0.771   5.682   0.073  0.00  0.00    +0.000 A 
ATOM     26  C   LIG    1       -0.613   6.194  -1.202  0.00  0.00    +0.000 A 
ATOM     27  C   LIG    1       -0.688   5.354  -2.297  0.00  0.00    +0.000 A 
ATOM     28  C   LIG    1       -0.921   4.003  -2.118  0.00  0.00    +0.020 A 
ENDBRANCH  22  23
ENDBRANCH   8  22
TORSDOF 4
