REMARK  Name = ZINCrH000004tRoo.0
REMARK                            x       y       z     vdW  Elec       q    Type
REMARK                         _______ _______ _______ _____ _____    ______ ____
ROOT
ATOM      1  C   LIG    1       -1.262   5.906  -0.059  0.00  0.00    +0.370 A 
ATOM      2  N   LIG    1       -1.355   7.213  -0.058  0.00  0.00    -0.530 NA
ATOM      3  C   LIG    1       -0.257   8.000   0.032  0.00  0.00    +0.180 A 
ATOM      4  C   LIG    1       -0.355   9.394   0.033  0.00  0.00    +0.040 A 
ATOM      5  C   LIG    1        0.790  10.155   0.126  0.00  0.00    +0.010 A 
ATOM      6  C   LIG    1        2.040   9.552   0.219  0.00  0.00    +0.020 A 
ATOM      7  C   LIG    1        2.160   8.190   0.221  0.00  0.00    +0.130 A 
ATOM      8 CL   LIG    1        0.671  11.887   0.126  0.00  0.00    -0.050 Cl
ATOM      9  C   LIG    1        1.018   7.396   0.127  0.00  0.00    -0.200 A 
ATOM     10  C   LIG    1        1.093   5.929   0.129  0.00  0.00    +0.560 A 
ATOM     11  O   LIG    1        2.161   5.352   0.213  0.00  0.00    -0.490 OA
ATOM     12  N   LIG    1       -0.069   5.243   0.029  0.00  0.00    -0.480 N 
ENDROOT
BRANCH  12  13
ATOM     13  C   LIG    1       -0.050   3.842   0.023  0.00  0.00    +0.090 A 
ATOM     14  C   LIG    1        0.054   3.154  -1.179  0.00  0.00    +0.040 A 
ATOM     15  C   LIG    1        0.072   1.773  -1.182  0.00  0.00    +0.030 A 
ATOM     16  C   LIG    1       -0.014   1.076   0.009  0.00  0.00    +0.040 A 
ATOM     17  C   LIG    1       -0.123   1.759   1.207  0.00  0.00    +0.030 A 
ATOM     18  C   LIG    1       -0.136   3.140   1.217  0.00  0.00    +0.040 A 
ENDBRANCH  12  13
BRANCH   1  19
ATOM     19  S   LIG    1       -2.743   4.958  -0.179  0.00  0.00    +0.100 S 
BRANCH  19  20
ATOM     20  C   LIG    1       -3.963   6.292  -0.266  0.00  0.00    +0.110 C 
BRANCH  20  22
ATOM     21  O   LIG    1       -5.491   4.498  -0.395  0.00  0.00    -0.520 OA
ATOM     22  C   LIG    1       -5.346   5.702  -0.377  0.00  0.00    +0.550 C 
ATOM     23  N   LIG    1       -6.420   6.512  -0.455  0.00  0.00    -0.610 N 
ATOM     24  C   LIG    1       -6.388   7.982  -0.438  0.00  0.00    +0.230 C 
ATOM     25  C   LIG    1       -7.848   8.473  -0.525  0.00  0.00    +0.040 C 
ATOM     26  C   LIG    1       -8.655   7.252  -0.009  0.00  0.00    +0.040 C 
ATOM     27  C   LIG    1       -7.822   6.071  -0.566  0.00  0.00    +0.250 C 
ENDBRANCH  20  22
ENDBRANCH  19  20
ENDBRANCH   1  19
TORSDOF 4
