REMARK  Name = ZINCrH000004lhS9.0
REMARK                            x       y       z     vdW  Elec       q    Type
REMARK                         _______ _______ _______ _____ _____    ______ ____
ROOT
ATOM      1  N   LIG    1       -0.874   6.936  -0.144  0.00  0.00    -0.600 N 
ATOM      2  C   LIG    1       -0.195   7.844  -0.873  0.00  0.00    +0.550 C 
ATOM      3  O   LIG    1       -0.769   8.820  -1.317  0.00  0.00    -0.440 OA
ENDROOT
BRANCH   2   4
ATOM      4  C   LIG    1        1.246   7.655  -1.132  0.00  0.00    -0.190 A 
ATOM      5  C   LIG    1        1.782   6.367  -1.207  0.00  0.00    +0.090 A 
ATOM      6  C   LIG    1        3.126   6.196  -1.456  0.00  0.00    -0.020 A 
ATOM      7  C   LIG    1        3.951   7.299  -1.619  0.00  0.00    +0.160 A 
ATOM      8  C   LIG    1        3.429   8.579  -1.539  0.00  0.00    -0.040 A 
ATOM      9  F   LIG    1        5.269   7.123  -1.856  0.00  0.00    -0.120 F 
ATOM     10  C   LIG    1        2.082   8.765  -1.297  0.00  0.00    +0.190 A 
ATOM     11  F   LIG    1        1.573  10.014  -1.220  0.00  0.00    -0.110 F 
ENDBRANCH   2   4
BRANCH   1  12
ATOM     12  C   LIG    1       -2.334   7.008  -0.061  0.00  0.00    +0.300 C 
BRANCH  12  13
ATOM     13  C   LIG    1       -2.748   8.379   0.479  0.00  0.00    +0.150 C 
BRANCH  13  15
ATOM     14  C   LIG    1       -2.951  10.685  -0.142  0.00  0.00    +0.170 C 
ATOM     15  O   LIG    1       -2.590   9.362  -0.545  0.00  0.00    -0.350 OA
ENDBRANCH  13  15
ENDBRANCH  12  13
ENDBRANCH   1  12
BRANCH   1  16
ATOM     16  C   LIG    1       -0.151   5.877   0.564  0.00  0.00    +0.320 C 
BRANCH  16  17
ATOM     17  C   LIG    1       -0.285   4.582  -0.196  0.00  0.00    -0.100 A 
ATOM     18  C   LIG    1       -0.518   3.402   0.486  0.00  0.00    +0.040 A 
ATOM     19  C   LIG    1       -0.643   2.215  -0.210  0.00  0.00    +0.060 A 
ATOM     20  C   LIG    1       -0.533   2.207  -1.589  0.00  0.00    -0.080 A 
ATOM     21  C   LIG    1       -0.293   3.387  -2.270  0.00  0.00    +0.060 A 
ATOM     22 BR   LIG    1       -0.703   0.583  -2.542  0.00  0.00    -0.040 Br
ATOM     23  C   LIG    1       -0.175   4.575  -1.574  0.00  0.00    +0.050 A 
ENDBRANCH  16  17
BRANCH  16  24
ATOM     24  C   LIG    1       -0.729   5.711   1.946  0.00  0.00    +0.460 C 
ATOM     25  O   LIG    1       -1.831   6.139   2.194  0.00  0.00    -0.480 OA
BRANCH  24  26
ATOM     26  O   LIG    1       -0.020   5.088   2.900  0.00  0.00    -0.350 OA
ATOM     27  C   LIG    1       -0.640   4.965   4.207  0.00  0.00    +0.280 C 
ENDBRANCH  24  26
ENDBRANCH  16  24
ENDBRANCH   1  16
TORSDOF 8
