REMARK  Name = ZINCvU00000007QW.0
REMARK                            x       y       z     vdW  Elec       q    Type
REMARK                         _______ _______ _______ _____ _____    ______ ____
ROOT
ATOM      1  O   LIG    1       -1.318   3.465   0.001  0.00  0.00    -0.330 OA
ENDROOT
BRANCH   1   2
ATOM      2  C   LIG    1       -1.302   2.118  -0.017  0.00  0.00    +0.520 C 
ATOM      3  O   LIG    1       -2.348   1.499  -0.020  0.00  0.00    -0.490 OA
BRANCH   2   4
ATOM      4  C   LIG    1       -0.015   1.394  -0.034  0.00  0.00    -0.120 A 
ATOM      5  C   LIG    1        1.188   2.103  -0.036  0.00  0.00    +0.190 A 
ATOM      6  C   LIG    1        2.387   1.421  -0.058  0.00  0.00    -0.190 A 
ATOM      7  C   LIG    1        2.399   0.037  -0.077  0.00  0.00    +0.180 A 
ATOM      8  C   LIG    1        1.211  -0.671  -0.075  0.00  0.00    -0.190 A 
ATOM      9  C   LIG    1        0.005  -0.002  -0.053  0.00  0.00    +0.190 A 
BRANCH   8  10
ATOM     10  C   LIG    1        1.234  -2.178  -0.095  0.00  0.00    +0.520 C 
ATOM     11  F   LIG    1        1.912  -2.650   1.034  0.00  0.00    -0.170 F 
ATOM     12  F   LIG    1        1.889  -2.619  -1.250  0.00  0.00    -0.170 F 
ATOM     13  F   LIG    1       -0.078  -2.665  -0.088  0.00  0.00    -0.170 F 
ENDBRANCH   8  10
BRANCH   6  14
ATOM     14  C   LIG    1        3.686   2.184  -0.060  0.00  0.00    +0.510 C 
ATOM     15  F   LIG    1        4.673   1.426   0.580  0.00  0.00    -0.170 F 
ATOM     16  F   LIG    1        3.516   3.396   0.618  0.00  0.00    -0.170 F 
ATOM     17  F   LIG    1        4.076   2.438  -1.379  0.00  0.00    -0.170 F 
ENDBRANCH   6  14
ENDBRANCH   2   4
ENDBRANCH   1   2
BRANCH   1  18
ATOM     18  C   LIG    1       -2.619   4.109   0.017  0.00  0.00    +0.270 C 
BRANCH  18  20
ATOM     19  O   LIG    1       -1.323   6.082   0.037  0.00  0.00    -0.490 OA
ATOM     20  C   LIG    1       -2.438   5.605   0.037  0.00  0.00    +0.520 C 
ATOM     21  N   LIG    1       -3.517   6.414   0.054  0.00  0.00    -0.660 N 
ATOM     22  H   LIG    1       -4.407   6.036  -0.012  0.00  0.00    +0.420 HD
BRANCH  21  23
ATOM     23  C   LIG    1       -3.350   7.801   0.166  0.00  0.00    +0.130 A 
ATOM     24  C   LIG    1       -2.260   8.421  -0.426  0.00  0.00    +0.060 A 
ATOM     25  C   LIG    1       -2.099   9.789  -0.314  0.00  0.00    +0.010 A 
ATOM     26  C   LIG    1       -3.022  10.542   0.387  0.00  0.00    +0.040 A 
ATOM     27  C   LIG    1       -4.111   9.931   0.980  0.00  0.00    -0.030 A 
ATOM     28  C   LIG    1       -4.283   8.561   0.868  0.00  0.00    +0.080 A 
BRANCH  28  29
ATOM     29  O   LIG    1       -5.357   7.959   1.446  0.00  0.00    -0.320 OA
BRANCH  29  30
ATOM     30  C   LIG    1       -6.272   8.802   2.150  0.00  0.00    +0.590 C 
ATOM     31  F   LIG    1       -6.802   9.752   1.271  0.00  0.00    -0.200 F 
ATOM     32  F   LIG    1       -5.600   9.453   3.191  0.00  0.00    -0.200 F 
ENDBRANCH  29  30
ENDBRANCH  28  29
ENDBRANCH  21  23
ENDBRANCH  18  20
ENDBRANCH   1  18
TORSDOF 9
