REMARK  Name = ZINCkj00000hcN1K.0
REMARK                            x       y       z     vdW  Elec       q    Type
REMARK                         _______ _______ _______ _____ _____    ______ ____
ROOT
ATOM      1  C   LIG    1       -0.770   0.417  -5.860  0.00  0.00    +0.320 A 
ATOM      2  C   LIG    1       -2.132   0.727  -5.919  0.00  0.00    -0.120 A 
ATOM      3  C   LIG    1       -2.757   1.170  -4.768  0.00  0.00    +0.370 A 
ATOM      4  N   LIG    1       -2.055   1.282  -3.651  0.00  0.00    -0.590 NA
ATOM      5  C   LIG    1       -0.763   0.986  -3.625  0.00  0.00    +0.570 A 
ATOM      6  N   LIG    1       -0.126   0.558  -4.703  0.00  0.00    -0.570 NA
ENDROOT
BRANCH   1   9
ATOM      7  C   LIG    1        2.268  -0.333  -6.016  0.00  0.00    +0.160 C 
ATOM      8  C   LIG    1        1.270  -0.390  -7.143  0.00  0.00    +0.150 A 
ATOM      9  C   LIG    1       -0.054  -0.061  -7.066  0.00  0.00    -0.240 A 
ATOM     10  C   LIG    1       -0.613  -0.253  -8.346  0.00  0.00    +0.280 A 
ATOM     11  N   LIG    1        0.331  -0.680  -9.140  0.00  0.00    -0.290 NA
ATOM     12  N   LIG    1        1.520  -0.778  -8.408  0.00  0.00    -0.370 N 
ATOM     13  C   LIG    1        2.816  -1.220  -8.929  0.00  0.00    +0.360 C 
ENDBRANCH   1   9
BRANCH   5  14
ATOM     14  N   LIG    1       -0.064   1.121  -2.438  0.00  0.00    -0.700 N 
ATOM     15  H   LIG    1        0.880   0.904  -2.404  0.00  0.00    +0.420 HD
BRANCH  14  16
ATOM     16  C   LIG    1       -0.752   1.592  -1.233  0.00  0.00    +0.260 C 
ATOM     17  C   LIG    1       -0.769   3.123  -1.220  0.00  0.00    +0.030 C 
ATOM     18  C   LIG    1       -1.420   3.606   0.080  0.00  0.00    +0.070 C 
ATOM     19  C   LIG    1       -0.656   3.025   1.272  0.00  0.00    +0.260 C 
ATOM     20  N   LIG    1       -0.699   1.559   1.217  0.00  0.00    -0.500 N 
ATOM     21  H   LIG    1       -0.241   1.179   2.032  0.00  0.00    +0.440 HD
ATOM     22  H   LIG    1       -1.659   1.251   1.199  0.00  0.00    +0.430 HD
ATOM     23  C   LIG    1       -0.013   1.086   0.008  0.00  0.00    +0.260 C 
ENDBRANCH  14  16
ENDBRANCH   5  14
TORSDOF 3
