REMARK  Name = ZINCrH000004t5ja.0
REMARK                            x       y       z     vdW  Elec       q    Type
REMARK                         _______ _______ _______ _____ _____    ______ ____
ROOT
ATOM      1  N   LIG    1       -0.928  -1.149   3.291  0.00  0.00    -0.730 N 
ATOM      2  H   LIG    1       -1.181  -2.034   2.984  0.00  0.00    +0.410 HD
ATOM      3  C   LIG    1       -1.472  -0.645   4.416  0.00  0.00    +0.710 C 
ATOM      4  N   LIG    1       -2.428  -1.334   5.070  0.00  0.00    -0.630 N 
ATOM      5  C   LIG    1       -2.814  -2.681   4.629  0.00  0.00    +0.260 C 
ATOM      6  C   LIG    1       -4.327  -2.721   4.419  0.00  0.00    +0.010 C 
ATOM      7  C   LIG    1       -5.030  -2.251   5.694  0.00  0.00    +0.030 C 
ATOM      8  C   LIG    1       -4.621  -0.809   6.003  0.00  0.00    +0.030 C 
ATOM      9  C   LIG    1       -3.108  -0.749   6.234  0.00  0.00    +0.310 C 
ATOM     10  O   LIG    1       -1.100   0.432   4.841  0.00  0.00    -0.580 OA
ENDROOT
BRANCH   8  11
ATOM     11  C   LIG    1       -5.338  -0.336   7.241  0.00  0.00    -0.060 A 
ATOM     12  C   LIG    1       -5.162  -1.004   8.438  0.00  0.00    +0.050 A 
ATOM     13  C   LIG    1       -5.815  -0.569   9.576  0.00  0.00    +0.030 A 
ATOM     14  C   LIG    1       -6.654   0.529   9.515  0.00  0.00    +0.070 A 
ATOM     15  C   LIG    1       -6.836   1.196   8.313  0.00  0.00    +0.070 A 
ATOM     16  F   LIG    1       -7.654   2.269   8.251  0.00  0.00    -0.130 F 
ATOM     17  F   LIG    1       -7.296   0.952  10.627  0.00  0.00    -0.130 F 
ATOM     18  C   LIG    1       -6.176   0.762   7.176  0.00  0.00    +0.030 A 
ENDBRANCH   8  11
BRANCH   1  19
ATOM     19  C   LIG    1        0.046  -0.362   2.531  0.00  0.00    +0.390 C 
BRANCH  19  25
ATOM     20  C   LIG    1        0.036   1.471   0.033  0.00  0.00    +0.320 C 
ATOM     21  N   LIG    1        0.036   0.006   0.015  0.00  0.00    -0.450 N 
ATOM     22  C   LIG    1        0.025  -0.792  -1.097  0.00  0.00    +0.130 A 
ATOM     23  C   LIG    1        0.033  -2.067  -0.661  0.00  0.00    +0.140 A 
ATOM     24  N   LIG    1        0.038  -2.047   0.680  0.00  0.00    -0.480 NA
ATOM     25  C   LIG    1        0.040  -0.809   1.092  0.00  0.00    +0.190 A 
ENDBRANCH  19  25
BRANCH  19  26
ATOM     26  C   LIG    1        1.442  -0.568   3.123  0.00  0.00    -0.060 C 
ATOM     27  C   LIG    1        1.603  -1.650   4.193  0.00  0.00    +0.020 C 
ATOM     28  C   LIG    1        1.654  -0.172   4.585  0.00  0.00    +0.040 C 
ENDBRANCH  19  26
ENDBRANCH   1  19
TORSDOF 4
