REMARK  Name = ZINCrH000004jgl7.0
REMARK                            x       y       z     vdW  Elec       q    Type
REMARK                         _______ _______ _______ _____ _____    ______ ____
ROOT
ATOM      1  C   LIG    1       -1.709  -4.554  -0.007  0.00  0.00    -0.110 A 
ATOM      2  C   LIG    1       -1.514  -5.208  -1.210  0.00  0.00    +0.040 A 
ATOM      3  C   LIG    1       -1.088  -6.523  -1.220  0.00  0.00    +0.010 A 
ATOM      4  C   LIG    1       -0.867  -7.188  -0.029  0.00  0.00    -0.080 A 
ATOM      5  C   LIG    1       -1.067  -6.536   1.174  0.00  0.00    +0.020 A 
ATOM      6  C   LIG    1       -1.488  -5.219   1.185  0.00  0.00    +0.040 A 
ENDROOT
BRANCH   4   7
ATOM      7  C   LIG    1       -0.408  -8.623  -0.041  0.00  0.00    +0.300 C 
ATOM      8  C   LIG    1        1.098  -8.675  -0.305  0.00  0.00    +0.040 C 
BRANCH   7   9
ATOM      9  N   LIG    1       -1.114  -9.353  -1.096  0.00  0.00    -0.710 N 
ATOM     10  H   LIG    1       -1.467  -8.876  -1.863  0.00  0.00    +0.400 HD
ATOM     11  C   LIG    1       -1.274 -10.688  -1.001  0.00  0.00    +0.650 C 
ATOM     12  O   LIG    1       -0.832 -11.286  -0.040  0.00  0.00    -0.570 OA
BRANCH  11  13
ATOM     13  O   LIG    1       -1.923 -11.359  -1.972  0.00  0.00    -0.360 OA
BRANCH  13  14
ATOM     14  C   LIG    1       -2.058 -12.795  -1.803  0.00  0.00    +0.140 C 
ATOM     15  C   LIG    1       -0.669 -13.431  -1.722  0.00  0.00    +0.040 C 
ATOM     16  C   LIG    1       -2.818 -13.379  -2.996  0.00  0.00    +0.080 C 
ATOM     17  C   LIG    1       -2.829 -13.087  -0.514  0.00  0.00    +0.040 C 
ENDBRANCH  13  14
ENDBRANCH  11  13
ENDBRANCH   7   9
ENDBRANCH   4   7
BRANCH   1  18
ATOM     18  C   LIG    1       -2.169  -3.119   0.005  0.00  0.00    +0.320 C 
BRANCH  18  20
ATOM     19  C   LIG    1       -1.172  -0.896   0.008  0.00  0.00    +0.600 C 
ATOM     20  N   LIG    1       -1.002  -2.233  -0.001  0.00  0.00    -0.710 N 
ATOM     21  H   LIG    1       -0.108  -2.608  -0.011  0.00  0.00    +0.410 HD
ATOM     22  O   LIG    1       -2.293  -0.425   0.020  0.00  0.00    -0.530 OA
BRANCH  19  25
ATOM     23  C   LIG    1        2.049   0.680  -0.014  0.00  0.00    +0.200 A 
ATOM     24  N   LIG    1        1.308  -0.387  -0.013  0.00  0.00    -0.460 NA
ATOM     25  C   LIG    1        0.002  -0.004   0.002  0.00  0.00    -0.080 A 
ATOM     26  C   LIG    1       -0.016   1.357   0.009  0.00  0.00    +0.250 A 
ATOM     27  O   LIG    1        1.262   1.766  -0.001  0.00  0.00    -0.190 OA
BRANCH  23  29
ATOM     28  C   LIG    1        4.053   0.708  -1.475  0.00  0.00    +0.050 C 
ATOM     29  C   LIG    1        3.556   0.696  -0.028  0.00  0.00    +0.180 C 
ENDBRANCH  23  29
ENDBRANCH  19  25
ENDBRANCH  18  20
ENDBRANCH   1  18
TORSDOF 8
