REMARK  Name = ZINCrD00000lbKIk.0
REMARK                            x       y       z     vdW  Elec       q    Type
REMARK                         _______ _______ _______ _____ _____    ______ ____
ROOT
ATOM      1  C   LIG    1       -3.047  -6.542  -0.476  0.00  0.00    -0.170 A 
ATOM      2  C   LIG    1       -1.760  -7.078  -0.379  0.00  0.00    +0.120 A 
ATOM      3  C   LIG    1       -1.565  -8.432  -0.544  0.00  0.00    -0.010 A 
ATOM      4  C   LIG    1       -2.639  -9.267  -0.806  0.00  0.00    +0.090 A 
ATOM      5  C   LIG    1       -3.917  -8.752  -0.905  0.00  0.00    +0.000 A 
ATOM      6  C   LIG    1       -4.134  -7.391  -0.737  0.00  0.00    +0.220 A 
ENDROOT
BRANCH   6   7
ATOM      7  N   LIG    1       -5.421  -6.872  -0.831  0.00  0.00    -0.650 N 
ATOM      8  H   LIG    1       -5.553  -5.953  -1.112  0.00  0.00    +0.430 HD
ATOM      9  C   LIG    1       -6.483  -7.645  -0.532  0.00  0.00    +0.610 C 
ATOM     10  O   LIG    1       -6.315  -8.765  -0.088  0.00  0.00    -0.500 OA
BRANCH   9  11
ATOM     11  C   LIG    1       -7.842  -7.137  -0.742  0.00  0.00    -0.090 A 
ATOM     12  C   LIG    1       -9.001  -7.814  -0.488  0.00  0.00    +0.050 A 
ATOM     13  C   LIG    1      -10.055  -6.953  -0.831  0.00  0.00    -0.070 A 
ATOM     14  C   LIG    1       -9.501  -5.806  -1.281  0.00  0.00    +0.210 A 
ATOM     15  O   LIG    1       -8.168  -5.920  -1.226  0.00  0.00    -0.160 OA
ENDBRANCH   9  11
ENDBRANCH   6   7
BRANCH   1  16
ATOM     16  C   LIG    1       -3.263  -5.095  -0.300  0.00  0.00    +0.520 C 
ATOM     17  O   LIG    1       -4.392  -4.647  -0.279  0.00  0.00    -0.510 OA
BRANCH  16  18
ATOM     18  O   LIG    1       -2.208  -4.268  -0.163  0.00  0.00    -0.320 OA
BRANCH  18  19
ATOM     19  C   LIG    1       -2.495  -2.855   0.006  0.00  0.00    +0.270 C 
BRANCH  19  21
ATOM     20  O   LIG    1       -0.143  -2.681   0.101  0.00  0.00    -0.490 OA
ATOM     21  C   LIG    1       -1.202  -2.092   0.143  0.00  0.00    +0.520 C 
ATOM     22  N   LIG    1       -1.224  -0.755   0.311  0.00  0.00    -0.670 N 
ATOM     23  H   LIG    1       -2.070  -0.293   0.419  0.00  0.00    +0.410 HD
BRANCH  22  24
ATOM     24  C   LIG    1       -0.025  -0.033   0.329  0.00  0.00    +0.140 A 
ATOM     25  C   LIG    1        1.046  -0.444  -0.453  0.00  0.00    +0.010 A 
ATOM     26  C   LIG    1        2.228   0.271  -0.434  0.00  0.00    +0.030 A 
ATOM     27  C   LIG    1        2.344   1.395   0.363  0.00  0.00    +0.000 A 
ATOM     28  C   LIG    1        1.280   1.806   1.144  0.00  0.00    +0.030 A 
ATOM     29  C   LIG    1        0.095   1.096   1.129  0.00  0.00    -0.010 A 
ENDBRANCH  22  24
ENDBRANCH  19  21
ENDBRANCH  18  19
ENDBRANCH  16  18
ENDBRANCH   1  16
TORSDOF 7
