REMARK  Name = ZINCrH000004u08Z.0
REMARK                            x       y       z     vdW  Elec       q    Type
REMARK                         _______ _______ _______ _____ _____    ______ ____
ROOT
ATOM      1  O   LIG    1        1.490  -1.716  -2.752  0.00  0.00    -0.500 OA
ATOM      2  C   LIG    1        1.672  -2.304  -1.707  0.00  0.00    +0.520 C 
ATOM      3  N   LIG    1        2.277  -3.508  -1.707  0.00  0.00    -0.560 N 
ENDROOT
BRANCH   3   4
ATOM      4  C   LIG    1        2.810  -4.059  -2.955  0.00  0.00    +0.250 C 
ATOM      5  C   LIG    1        3.890  -3.125  -3.505  0.00  0.00    +0.010 C 
ATOM      6  C   LIG    1        4.447  -3.701  -4.809  0.00  0.00    +0.020 C 
ATOM      7  C   LIG    1        3.317  -3.833  -5.832  0.00  0.00    +0.000 C 
ATOM      8  C   LIG    1        2.238  -4.767  -5.282  0.00  0.00    +0.020 C 
ATOM      9  C   LIG    1        1.681  -4.191  -3.979  0.00  0.00    +0.010 C 
ENDBRANCH   3   4
BRANCH   3  10
ATOM     10  C   LIG    1        2.395  -4.232  -0.516  0.00  0.00    +0.110 A 
ATOM     11  C   LIG    1        3.335  -3.857   0.436  0.00  0.00    +0.010 A 
ATOM     12  C   LIG    1        3.445  -4.571   1.613  0.00  0.00    +0.020 A 
ATOM     13  C   LIG    1        2.628  -5.663   1.841  0.00  0.00    +0.020 A 
ATOM     14  C   LIG    1        1.696  -6.042   0.893  0.00  0.00    +0.020 A 
ATOM     15  C   LIG    1        1.576  -5.330  -0.284  0.00  0.00    +0.020 A 
ENDBRANCH   3  10
BRANCH   2  16
ATOM     16  C   LIG    1        1.222  -1.687  -0.408  0.00  0.00    +0.410 C 
BRANCH  16  17
ATOM     17  N   LIG    1        0.533  -0.423  -0.680  0.00  0.00    -0.130 N 
ATOM     18  N   LIG    1       -0.730  -0.293  -0.892  0.00  0.00    -0.050 NA
ATOM     19  N   LIG    1       -0.994   0.953  -1.096  0.00  0.00    -0.270 NA
ATOM     20  C   LIG    1        0.162   1.625  -1.006  0.00  0.00    +0.220 A 
ATOM     21  N   LIG    1        1.097   0.734  -0.745  0.00  0.00    -0.290 NA
BRANCH  20  22
ATOM     22  C   LIG    1        0.352   3.088  -1.169  0.00  0.00    -0.020 A 
ATOM     23  C   LIG    1        1.621   3.647  -1.042  0.00  0.00    +0.050 A 
ATOM     24  C   LIG    1        1.793   5.008  -1.199  0.00  0.00    +0.010 A 
ATOM     25  C   LIG    1        0.705   5.817  -1.474  0.00  0.00    +0.030 A 
ATOM     26  C   LIG    1       -0.558   5.268  -1.596  0.00  0.00    +0.010 A 
ATOM     27  C   LIG    1       -0.740   3.908  -1.445  0.00  0.00    +0.060 A 
ENDBRANCH  20  22
ENDBRANCH  16  17
ENDBRANCH   2  16
TORSDOF 5
