REMARK  Name = ZINCvU0000000Bmx.0
REMARK                            x       y       z     vdW  Elec       q    Type
REMARK                         _______ _______ _______ _____ _____    ______ ____
ROOT
ATOM      1  O   LIG    1        9.201  -2.635   0.603  0.00  0.00    -0.580 OA
ATOM      2  C   LIG    1        8.789  -1.966   1.532  0.00  0.00    +0.720 C 
ATOM      3  N   LIG    1        9.162  -2.264   2.792  0.00  0.00    -0.630 N 
ATOM      4  C   LIG    1       10.146  -3.322   3.060  0.00  0.00    +0.330 C 
ATOM      5  C   LIG    1       11.396  -2.696   3.689  0.00  0.00    +0.100 C 
ATOM      6  C   LIG    1       10.973  -1.732   4.771  0.00  0.00    +0.090 A 
ATOM      7  C   LIG    1        9.730  -1.214   4.880  0.00  0.00    -0.190 A 
ATOM      8  C   LIG    1        9.729  -0.338   6.032  0.00  0.00    -0.090 A 
ATOM      9  C   LIG    1        8.740   0.456   6.620  0.00  0.00    +0.060 A 
ATOM     10  C   LIG    1        9.102   1.175   7.732  0.00  0.00    -0.030 A 
ATOM     11  C   LIG    1       10.382   1.124   8.257  0.00  0.00    +0.020 A 
ATOM     12  C   LIG    1       11.381   0.347   7.696  0.00  0.00    +0.000 A 
ATOM     13  C   LIG    1       11.043  -0.395   6.566  0.00  0.00    +0.100 A 
ATOM     14  N   LIG    1       11.764  -1.246   5.780  0.00  0.00    -0.580 N 
ATOM     15  H   LIG    1       12.697  -1.474   5.915  0.00  0.00    +0.420 HD
ATOM     16  C   LIG    1        8.597  -1.533   3.941  0.00  0.00    +0.350 C 
ATOM     17  N   LIG    1        7.962  -0.928   1.300  0.00  0.00    -0.740 N 
ATOM     18  H   LIG    1        7.575  -0.441   2.044  0.00  0.00    +0.400 HD
ENDROOT
BRANCH  17  19
ATOM     19  C   LIG    1        7.646  -0.536  -0.075  0.00  0.00    +0.420 C 
BRANCH  19  20
ATOM     20  C   LIG    1        6.707   0.642  -0.059  0.00  0.00    -0.010 A 
ATOM     21  C   LIG    1        7.074   1.941  -0.051  0.00  0.00    -0.020 A 
ATOM     22  C   LIG    1        5.893   2.704  -0.042  0.00  0.00    +0.000 A 
ATOM     23  C   LIG    1        4.854   1.821  -0.035  0.00  0.00    +0.050 A 
ATOM     24  O   LIG    1        5.367   0.574  -0.049  0.00  0.00    -0.140 OA
BRANCH  23  25
ATOM     25  C   LIG    1        3.426   2.168  -0.021  0.00  0.00    +0.170 A 
ATOM     26  N   LIG    1        2.457   1.310  -0.020  0.00  0.00    -0.450 NA
ATOM     27  C   LIG    1        1.200   1.783  -0.007  0.00  0.00    +0.080 A 
ATOM     28  C   LIG    1       -0.015   1.063  -0.002  0.00  0.00    +0.080 A 
ATOM     29  C   LIG    1       -1.216   1.726   0.006  0.00  0.00    +0.030 A 
ATOM     30  C   LIG    1       -1.258   3.112   0.021  0.00  0.00    +0.050 A 
ATOM     31  C   LIG    1       -0.087   3.837   0.017  0.00  0.00    +0.060 A 
ATOM     32  C   LIG    1        1.143   3.182   0.003  0.00  0.00    -0.170 A 
ATOM     33  S   LIG    1        2.790   3.807  -0.005  0.00  0.00    +0.120 S 
ENDBRANCH  23  25
ENDBRANCH  19  20
ENDBRANCH  17  19
TORSDOF 3
