REMARK  Name = ZINCqH0000004UZx.0
REMARK                            x       y       z     vdW  Elec       q    Type
REMARK                         _______ _______ _______ _____ _____    ______ ____
ROOT
ATOM      1  C   LIG    1       -0.386  -2.770  -0.017  0.00  0.00    -0.150 A 
ATOM      2  C   LIG    1       -1.618  -2.148  -0.081  0.00  0.00    +0.070 A 
ATOM      3  C   LIG    1       -1.698  -0.768  -0.077  0.00  0.00    -0.020 A 
ATOM      4  C   LIG    1       -0.540  -0.008  -0.008  0.00  0.00    +0.140 A 
ATOM      5  C   LIG    1        0.696  -0.635   0.051  0.00  0.00    -0.080 A 
ATOM      6  C   LIG    1        0.770  -2.014   0.052  0.00  0.00    +0.070 A 
ENDROOT
BRANCH   1   7
ATOM      7  C   LIG    1       -0.301  -4.275  -0.021  0.00  0.00    +0.330 C 
BRANCH   7   9
ATOM      8  C   LIG    1       -0.110  -6.075  -1.652  0.00  0.00    +0.590 C 
ATOM      9  N   LIG    1       -0.198  -4.754  -1.402  0.00  0.00    -0.710 N 
ATOM     10  H   LIG    1       -0.192  -4.120  -2.136  0.00  0.00    +0.410 HD
ATOM     11  O   LIG    1       -0.016  -6.864  -0.731  0.00  0.00    -0.540 OA
BRANCH   8  17
ATOM     12  N   LIG    1       -0.150  -7.867  -3.450  0.00  0.00    -0.250 N 
ATOM     13  N   LIG    1       -0.161  -7.915  -4.733  0.00  0.00    -0.270 NA
ATOM     14  C   LIG    1       -0.149  -6.711  -5.246  0.00  0.00    +0.020 A 
ATOM     15  C   LIG    1       -0.132  -5.796  -4.191  0.00  0.00    -0.030 A 
ATOM     16  C   LIG    1       -0.157  -6.372  -6.715  0.00  0.00    +0.150 C 
ATOM     17  C   LIG    1       -0.128  -6.564  -3.040  0.00  0.00    -0.040 A 
BRANCH  12  19
ATOM     18  C   LIG    1       -1.604  -9.431  -2.258  0.00  0.00    +0.040 C 
ATOM     19  C   LIG    1       -0.159  -9.032  -2.561  0.00  0.00    +0.330 C 
ENDBRANCH  12  19
ENDBRANCH   8  17
ENDBRANCH   7   9
ENDBRANCH   1   7
BRANCH   4  20
ATOM     20  O   LIG    1       -0.616   1.349  -0.004  0.00  0.00    -0.310 OA
BRANCH  20  21
ATOM     21  C   LIG    1        0.617   2.067   0.069  0.00  0.00    +0.240 C 
BRANCH  21  22
ATOM     22  C   LIG    1        0.337   3.548   0.063  0.00  0.00    -0.100 A 
ATOM     23  C   LIG    1        0.280   4.236  -1.135  0.00  0.00    +0.020 A 
ATOM     24  C   LIG    1        0.018   5.593  -1.141  0.00  0.00    +0.010 A 
ATOM     25  C   LIG    1       -0.177   6.264   0.051  0.00  0.00    +0.020 A 
ATOM     26  C   LIG    1       -0.114   5.578   1.250  0.00  0.00    +0.010 A 
ATOM     27  C   LIG    1        0.142   4.220   1.255  0.00  0.00    +0.020 A 
ENDBRANCH  21  22
ENDBRANCH  20  21
ENDBRANCH   4  20
TORSDOF 7
