REMARK  Name = ZINCrH000004kkz5.0
REMARK                            x       y       z     vdW  Elec       q    Type
REMARK                         _______ _______ _______ _____ _____    ______ ____
ROOT
ATOM      1  N   LIG    1        5.045   3.315  -1.733  0.00  0.00    -0.710 N 
ATOM      2  H   LIG    1        5.525   3.683  -0.975  0.00  0.00    +0.400 HD
ATOM      3  C   LIG    1        3.887   2.652  -1.540  0.00  0.00    +0.520 C 
ATOM      4  O   LIG    1        3.236   2.279  -2.493  0.00  0.00    -0.530 OA
ENDROOT
BRANCH   1   5
ATOM      5  C   LIG    1        5.578   3.479  -3.088  0.00  0.00    +0.200 C 
ATOM      6  C   LIG    1        6.933   4.187  -3.020  0.00  0.00    +0.040 C 
ATOM      7  C   LIG    1        6.757   5.562  -2.372  0.00  0.00    +0.010 C 
ATOM      8  C   LIG    1        5.784   6.399  -3.205  0.00  0.00    +0.000 C 
ATOM      9  C   LIG    1        4.430   5.690  -3.273  0.00  0.00    +0.010 C 
ATOM     10  C   LIG    1        4.606   4.315  -3.921  0.00  0.00    +0.030 C 
BRANCH   5  11
ATOM     11  C   LIG    1        5.754   2.104  -3.736  0.00  0.00    +0.110 C 
BRANCH  11  12
ATOM     12  C   LIG    1        6.595   1.230  -2.842  0.00  0.00    +0.470 C 
ATOM     13  O   LIG    1        7.069   1.683  -1.827  0.00  0.00    -0.500 OA
BRANCH  12  15
ATOM     14  C   LIG    1        7.637  -0.834  -2.264  0.00  0.00    +0.260 C 
ATOM     15  O   LIG    1        6.818  -0.051  -3.172  0.00  0.00    -0.360 OA
ENDBRANCH  12  15
ENDBRANCH  11  12
ENDBRANCH   5  11
ENDBRANCH   1   5
BRANCH   3  16
ATOM     16  C   LIG    1        3.401   2.376  -0.141  0.00  0.00    +0.120 C 
BRANCH  16  17
ATOM     17  C   LIG    1        2.094   1.628  -0.202  0.00  0.00    -0.120 A 
ATOM     18  C   LIG    1        2.089   0.263  -0.228  0.00  0.00    -0.010 A 
ATOM     19  C   LIG    1        0.846  -0.396  -0.284  0.00  0.00    -0.100 A 
ATOM     20  C   LIG    1        0.761  -1.797  -0.315  0.00  0.00    +0.030 A 
ATOM     21  C   LIG    1       -0.460  -2.396  -0.370  0.00  0.00    +0.010 A 
ATOM     22  C   LIG    1       -1.628  -1.637  -0.398  0.00  0.00    +0.030 A 
ATOM     23  C   LIG    1       -1.583  -0.277  -0.369  0.00  0.00    +0.040 A 
ATOM     24  C   LIG    1       -0.341   0.378  -0.312  0.00  0.00    +0.140 A 
ATOM     25  N   LIG    1       -0.266   1.713  -0.285  0.00  0.00    -0.480 NA
ATOM     26  C   LIG    1        3.378  -0.517  -0.197  0.00  0.00    +0.110 C 
ATOM     27  C   LIG    1        0.890   2.329  -0.232  0.00  0.00    +0.180 A 
ATOM     28  C   LIG    1        0.918   3.836  -0.204  0.00  0.00    +0.120 C 
ENDBRANCH  16  17
ENDBRANCH   3  16
TORSDOF 6
