REMARK  Name = ZINCrH000004t5OT.0
REMARK                            x       y       z     vdW  Elec       q    Type
REMARK                         _______ _______ _______ _____ _____    ______ ____
ROOT
ATOM      1  N   LIG    1       -2.317  -7.187   0.269  0.00  0.00    -0.720 N 
ATOM      2  H   LIG    1       -1.357  -7.316   0.319  0.00  0.00    +0.400 HD
ATOM      3  C   LIG    1       -2.842  -5.960   0.458  0.00  0.00    +0.710 C 
ATOM      4  N   LIG    1       -2.033  -4.913   0.716  0.00  0.00    -0.740 N 
ATOM      5  H   LIG    1       -1.073  -5.043   0.765  0.00  0.00    +0.400 HD
ATOM      6  O   LIG    1       -4.045  -5.798   0.396  0.00  0.00    -0.580 OA
ENDROOT
BRANCH   1   7
ATOM      7  C   LIG    1       -3.196  -8.325  -0.011  0.00  0.00    +0.410 C 
BRANCH   7   8
ATOM      8  C   LIG    1       -2.538  -9.596   0.462  0.00  0.00    -0.130 A 
ATOM      9  C   LIG    1       -1.160  -9.684   0.511  0.00  0.00    +0.060 A 
ATOM     10  C   LIG    1       -0.556 -10.850   0.945  0.00  0.00    +0.020 A 
ATOM     11  C   LIG    1       -1.330 -11.929   1.329  0.00  0.00    +0.060 A 
ATOM     12  C   LIG    1       -2.709 -11.843   1.280  0.00  0.00    -0.010 A 
ATOM     13  C   LIG    1       -3.314 -10.674   0.852  0.00  0.00    +0.110 A 
ATOM     14  F   LIG    1       -4.662 -10.587   0.810  0.00  0.00    -0.140 F 
ENDBRANCH   7   8
BRANCH   7  20
ATOM     15  C   LIG    1       -5.929  -8.803  -1.390  0.00  0.00    +0.320 C 
ATOM     16  N   LIG    1       -4.648  -8.621  -2.077  0.00  0.00    -0.440 N 
ATOM     17  C   LIG    1       -4.444  -8.630  -3.431  0.00  0.00    +0.130 A 
ATOM     18  C   LIG    1       -3.128  -8.426  -3.628  0.00  0.00    +0.140 A 
ATOM     19  N   LIG    1       -2.544  -8.291  -2.428  0.00  0.00    -0.470 NA
ATOM     20  C   LIG    1       -3.448  -8.412  -1.494  0.00  0.00    +0.190 A 
ENDBRANCH   7  20
ENDBRANCH   1   7
BRANCH   4  21
ATOM     21  C   LIG    1       -2.604  -3.580   0.921  0.00  0.00    +0.320 C 
BRANCH  21  22
ATOM     22  C   LIG    1       -1.479  -2.580   1.194  0.00  0.00    +0.070 C 
BRANCH  22  23
ATOM     23  S   LIG    1       -2.186  -0.929   1.448  0.00  0.00    -0.090 S 
BRANCH  23  24
ATOM     24  C   LIG    1       -0.765   0.070   1.744  0.00  0.00    -0.090 A 
ATOM     25  C   LIG    1       -0.908   1.431   1.987  0.00  0.00    +0.030 A 
ATOM     26  C   LIG    1        0.208   2.210   2.219  0.00  0.00    +0.030 A 
ATOM     27  C   LIG    1        1.467   1.638   2.209  0.00  0.00    +0.010 A 
ATOM     28  C   LIG    1        1.613   0.284   1.968  0.00  0.00    +0.030 A 
ATOM     29  C   LIG    1        0.502  -0.501   1.735  0.00  0.00    -0.010 A 
ENDBRANCH  23  24
ENDBRANCH  22  23
ENDBRANCH  21  22
ENDBRANCH   4  21
TORSDOF 7
