REMARK  Name = ZINCtV000002weYH.0
REMARK                            x       y       z     vdW  Elec       q    Type
REMARK                         _______ _______ _______ _____ _____    ______ ____
ROOT
ATOM      1  N   LIG    1        2.424  -2.812  -0.138  0.00  0.00    -0.600 N 
ATOM      2  C   LIG    1        1.249  -2.153  -0.092  0.00  0.00    +0.560 C 
ATOM      3  O   LIG    1        0.208  -2.772   0.014  0.00  0.00    -0.520 OA
ENDROOT
BRANCH   1   4
ATOM      4  C   LIG    1        2.440  -4.275  -0.207  0.00  0.00    +0.180 C 
ATOM      5  C   LIG    1        3.011  -4.715  -1.557  0.00  0.00    +0.000 C 
ATOM      6  C   LIG    1        3.029  -6.243  -1.630  0.00  0.00    -0.010 C 
ATOM      7  C   LIG    1        3.901  -6.798  -0.503  0.00  0.00    +0.020 C 
ATOM      8  C   LIG    1        3.330  -6.358   0.847  0.00  0.00    -0.010 C 
ATOM      9  C   LIG    1        1.904  -6.892   0.996  0.00  0.00    +0.010 C 
ATOM     10  C   LIG    1        1.032  -6.337  -0.132  0.00  0.00    -0.030 C 
ATOM     11  C   LIG    1        1.603  -6.777  -1.481  0.00  0.00    +0.010 C 
ATOM     12  C   LIG    1        3.313  -4.830   0.920  0.00  0.00    +0.020 C 
ATOM     13  C   LIG    1        1.014  -4.809  -0.059  0.00  0.00    +0.070 C 
ENDBRANCH   1   4
BRANCH   2  14
ATOM     14  C   LIG    1        1.226  -0.677  -0.170  0.00  0.00    -0.130 A 
ATOM     15  C   LIG    1        0.122  -0.021  -0.717  0.00  0.00    +0.080 A 
ATOM     16  C   LIG    1        0.107   1.357  -0.787  0.00  0.00    +0.020 A 
ATOM     17  C   LIG    1        1.183   2.088  -0.316  0.00  0.00    -0.060 A 
ATOM     18  C   LIG    1        2.280   1.444   0.228  0.00  0.00    +0.020 A 
ATOM     19  C   LIG    1        2.308   0.067   0.303  0.00  0.00    +0.040 A 
BRANCH  17  20
ATOM     20  C   LIG    1        1.159   3.593  -0.396  0.00  0.00    +0.130 C 
BRANCH  20  21
ATOM     21  S   LIG    1        0.424   4.268   1.120  0.00  0.00    -0.100 S 
BRANCH  21  22
ATOM     22  C   LIG    1        0.481   6.007   0.847  0.00  0.00    -0.090 A 
ATOM     23  C   LIG    1        1.018   6.511  -0.332  0.00  0.00    -0.020 A 
ATOM     24  C   LIG    1        1.057   7.875  -0.544  0.00  0.00    +0.030 A 
ATOM     25  C   LIG    1        0.571   8.740   0.420  0.00  0.00    +0.010 A 
ATOM     26  C   LIG    1        0.041   8.243   1.597  0.00  0.00    +0.030 A 
ATOM     27  C   LIG    1       -0.005   6.880   1.814  0.00  0.00    +0.030 A 
ENDBRANCH  21  22
ENDBRANCH  20  21
ENDBRANCH  17  20
ENDBRANCH   2  14
BRANCH   1  29
ATOM     28  C   LIG    1        4.232  -2.029   1.310  0.00  0.00    +0.010 C 
ATOM     29  C   LIG    1        3.684  -2.065  -0.117  0.00  0.00    +0.260 C 
ENDBRANCH   1  29
TORSDOF 6
