REMARK  Name = ZINCqH00000050dP.0
REMARK                            x       y       z     vdW  Elec       q    Type
REMARK                         _______ _______ _______ _____ _____    ______ ____
ROOT
ATOM      1  C   LIG    1        3.689  -0.697  -0.037  0.00  0.00    +0.550 C 
ATOM      2  N   LIG    1        3.705  -2.045  -0.044  0.00  0.00    -0.730 N 
ATOM      3  H   LIG    1        2.871  -2.540  -0.039  0.00  0.00    +0.400 HD
ATOM      4  O   LIG    1        4.735  -0.076  -0.043  0.00  0.00    -0.500 OA
ENDROOT
BRANCH   1  10
ATOM      5  C   LIG    1        2.382   1.429  -0.013  0.00  0.00    -0.060 A 
ATOM      6  C   LIG    1        1.163   2.097   0.002  0.00  0.00    -0.020 A 
ATOM      7  C   LIG    1       -0.017   1.382   0.010  0.00  0.00    +0.060 A 
ATOM      8  C   LIG    1        0.002  -0.004   0.002  0.00  0.00    -0.010 A 
ATOM      9  C   LIG    1        1.200  -0.684  -0.013  0.00  0.00    +0.070 A 
ATOM     10  C   LIG    1        2.404   0.024  -0.020  0.00  0.00    -0.130 A 
BRANCH   5  11
ATOM     11  S   LIG    1        3.891   2.338  -0.022  0.00  0.00    +0.080 S 
BRANCH  11  12
ATOM     12  C   LIG    1        3.328   4.063  -0.008  0.00  0.00    +0.010 C 
BRANCH  12  15
ATOM     13  C   LIG    1        5.506   7.211  -0.012  0.00  0.00    +0.290 C 
ATOM     14  N   LIG    1        4.345   6.317  -0.006  0.00  0.00    -0.620 N 
ATOM     15  C   LIG    1        4.522   4.981  -0.015  0.00  0.00    +0.530 C 
ATOM     16  O   LIG    1        5.643   4.519  -0.027  0.00  0.00    -0.520 OA
ATOM     17  C   LIG    1        2.991   6.877   0.009  0.00  0.00    +0.280 C 
ENDBRANCH  12  15
ENDBRANCH  11  12
ENDBRANCH   5  11
ENDBRANCH   1  10
BRANCH   2  18
ATOM     18  C   LIG    1        4.983  -2.762  -0.060  0.00  0.00    +0.270 C 
BRANCH  18  19
ATOM     19  C   LIG    1        4.721  -4.269  -0.066  0.00  0.00    +0.040 C 
BRANCH  19  20
ATOM     20  C   LIG    1        6.056  -5.018  -0.083  0.00  0.00    +0.070 C 
BRANCH  20  21
ATOM     21  S   LIG    1        5.745  -6.806  -0.089  0.00  0.00    -0.110 S 
BRANCH  21  22
ATOM     22  C   LIG    1        7.369  -7.489  -0.108  0.00  0.00    -0.080 A 
ATOM     23  C   LIG    1        8.478  -6.652  -0.120  0.00  0.00    -0.010 A 
ATOM     24  C   LIG    1        9.749  -7.191  -0.130  0.00  0.00    +0.030 A 
ATOM     25  C   LIG    1        9.919  -8.563  -0.139  0.00  0.00    +0.010 A 
ATOM     26  C   LIG    1        8.819  -9.400  -0.133  0.00  0.00    +0.030 A 
ATOM     27  C   LIG    1        7.545  -8.868  -0.117  0.00  0.00    +0.030 A 
ENDBRANCH  21  22
ENDBRANCH  20  21
ENDBRANCH  19  20
ENDBRANCH  18  19
ENDBRANCH   2  18
TORSDOF 9
