REMARK  Name = ZINCnE000004vfnc.0
REMARK                            x       y       z     vdW  Elec       q    Type
REMARK                         _______ _______ _______ _____ _____    ______ ____
ROOT
ATOM      1  C   LIG    1       -0.772  -3.873   0.228  0.00  0.00    -0.030 A 
ATOM      2  C   LIG    1       -2.076  -4.174   0.623  0.00  0.00    -0.070 A 
ATOM      3  C   LIG    1       -2.474  -5.491   0.734  0.00  0.00    +0.020 A 
ATOM      4  C   LIG    1       -1.579  -6.511   0.466  0.00  0.00    +0.020 A 
ATOM      5  C   LIG    1       -0.283  -6.220   0.079  0.00  0.00    +0.000 A 
ATOM      6  C   LIG    1        0.125  -4.908  -0.041  0.00  0.00    -0.010 A 
ENDROOT
BRANCH   1  14
ATOM      7  C   LIG    1        1.437   3.523  -0.265  0.00  0.00    +0.020 C 
ATOM      8  C   LIG    1        1.427   2.016  -0.001  0.00  0.00    -0.010 C 
ATOM      9  C   LIG    1        2.199   1.296  -1.110  0.00  0.00    +0.020 C 
ATOM     10  C   LIG    1        2.410  -0.167  -0.716  0.00  0.00    +0.130 C 
ATOM     11  C   LIG    1        1.068  -0.766  -0.317  0.00  0.00    +0.080 A 
ATOM     12  C   LIG    1        0.002  -0.004   0.002  0.00  0.00    -0.240 A 
ATOM     13  S   LIG    1       -1.351  -1.055   0.404  0.00  0.00    +0.040 S 
ATOM     14  C   LIG    1       -0.341  -2.465   0.101  0.00  0.00    +0.130 A 
ATOM     15  N   LIG    1        0.843  -2.068  -0.252  0.00  0.00    -0.430 NA
ATOM     16  C   LIG    1       -0.018   1.507   0.010  0.00  0.00    +0.120 C 
ENDBRANCH   1  14
BRANCH   2  17
ATOM     17  C   LIG    1       -3.049  -3.063   0.922  0.00  0.00    +0.250 C 
BRANCH  17  18
ATOM     18  O   LIG    1       -4.308  -3.623   1.303  0.00  0.00    -0.560 OA
ATOM     19  H   LIG    1       -4.985  -2.964   1.510  0.00  0.00    +0.380 HD
ENDBRANCH  17  18
ENDBRANCH   2  17
BRANCH   6  20
ATOM     20  C   LIG    1        1.537  -4.592  -0.464  0.00  0.00    +0.100 C 
BRANCH  20  21
ATOM     21  C   LIG    1        2.402  -4.364   0.778  0.00  0.00    -0.070 C 
BRANCH  21  22
ATOM     22  C   LIG    1        3.813  -4.048   0.356  0.00  0.00    +0.500 C 
ATOM     23  O   LIG    1        4.668  -3.831   1.198  0.00  0.00    -0.710 OA
ATOM     24  O   LIG    1        4.101  -4.009  -0.828  0.00  0.00    -0.700 OA
ENDBRANCH  21  22
ENDBRANCH  20  21
ENDBRANCH   6  20
TORSDOF 6
