REMARK  Name = ZINCrg00000BbOf2.0
REMARK                            x       y       z     vdW  Elec       q    Type
REMARK                         _______ _______ _______ _____ _____    ______ ____
ROOT
ATOM      1  C   LIG    1       -3.109  -1.927   1.189  0.00  0.00    +0.300 C 
ENDROOT
BRANCH   1   3
ATOM      2  C   LIG    1       -1.156  -1.093  -0.006  0.00  0.00    +0.580 C 
ATOM      3  N   LIG    1       -1.745  -1.392   1.169  0.00  0.00    -0.720 N 
ATOM      4  H   LIG    1       -1.266  -1.253   2.001  0.00  0.00    +0.400 HD
ATOM      5  O   LIG    1       -1.757  -1.268  -1.050  0.00  0.00    -0.520 OA
BRANCH   2   9
ATOM      6  C   LIG    1        2.797   0.458  -0.064  0.00  0.00    +0.290 A 
ATOM      7  C   LIG    1        1.712   1.327   0.010  0.00  0.00    -0.100 A 
ATOM      8  C   LIG    1        0.427   0.828   0.029  0.00  0.00    +0.220 A 
ATOM      9  C   LIG    1        0.214  -0.555  -0.027  0.00  0.00    -0.270 A 
ATOM     10  C   LIG    1        1.310  -1.426  -0.102  0.00  0.00    +0.220 A 
ATOM     11  F   LIG    1        1.111  -2.761  -0.155  0.00  0.00    -0.120 F 
ATOM     12  F   LIG    1       -0.625   1.673   0.096  0.00  0.00    -0.120 F 
ATOM     13  C   LIG    1        2.591  -0.917  -0.120  0.00  0.00    -0.100 A 
BRANCH   6  14
ATOM     14  N   LIG    1        4.092   0.966  -0.083  0.00  0.00    -0.850 N 
ATOM     15  H   LIG    1        4.237   1.924  -0.044  0.00  0.00    +0.410 HD
ATOM     16  H   LIG    1        4.849   0.362  -0.135  0.00  0.00    +0.410 HD
ENDBRANCH   6  14
ENDBRANCH   2   9
ENDBRANCH   1   3
BRANCH   1  17
ATOM     17  C   LIG    1       -3.530  -2.175   2.614  0.00  0.00    -0.020 C 
ATOM     18  C   LIG    1       -4.651  -1.668   3.064  0.00  0.00    -0.030 C 
BRANCH  18  19
ATOM     19  C   LIG    1       -5.601  -0.983   2.116  0.00  0.00    +0.300 C 
BRANCH  19  20
ATOM     20  N   LIG    1       -6.937  -1.568   2.256  0.00  0.00    -0.730 N 
ATOM     21  H   LIG    1       -7.088  -2.286   2.891  0.00  0.00    +0.400 HD
ATOM     22  C   LIG    1       -7.956  -1.109   1.502  0.00  0.00    +0.510 C 
ATOM     23  O   LIG    1       -7.767  -0.212   0.709  0.00  0.00    -0.510 OA
BRANCH  22  24
ATOM     24  C   LIG    1       -9.330  -1.712   1.646  0.00  0.00    +0.250 C 
ATOM     25  C   LIG    1      -10.389  -0.620   1.479  0.00  0.00    +0.050 C 
ATOM     26  C   LIG    1       -9.888   0.707   2.019  0.00  0.00    +0.010 C 
ATOM     27  C   LIG    1       -9.694   0.721   3.525  0.00  0.00    +0.030 C 
ATOM     28  C   LIG    1       -8.555  -0.215   3.934  0.00  0.00    +0.040 C 
ATOM     29  C   LIG    1       -9.110  -1.617   4.070  0.00  0.00    +0.520 C 
ATOM     30  O   LIG    1       -9.227  -2.117   5.169  0.00  0.00    -0.540 OA
ATOM     31  N   LIG    1       -9.472  -2.305   2.986  0.00  0.00    -0.720 N 
ATOM     32  H   LIG    1       -9.831  -3.201   3.080  0.00  0.00    +0.410 HD
ENDBRANCH  22  24
ENDBRANCH  19  20
ENDBRANCH  18  19
ENDBRANCH   1  17
TORSDOF 7
