REMARK  Name = ZINCrH000004v8gq.0
REMARK                            x       y       z     vdW  Elec       q    Type
REMARK                         _______ _______ _______ _____ _____    ______ ____
ROOT
ATOM      1  C   LIG    1        4.872   1.088  -0.017  0.00  0.00    +0.070 A 
ATOM      2  C   LIG    1        6.073   1.789  -0.107  0.00  0.00    +0.090 A 
ATOM      3  C   LIG    1        7.240   1.073  -0.304  0.00  0.00    -0.010 A 
ATOM      4  C   LIG    1        7.178  -0.310  -0.406  0.00  0.00    +0.300 A 
ATOM      5  N   LIG    1        6.020  -0.944  -0.315  0.00  0.00    -0.510 NA
ATOM      6  C   LIG    1        4.888  -0.296  -0.122  0.00  0.00    +0.320 A 
ENDROOT
BRANCH   1   9
ATOM      7  O   LIG    1        2.880   0.150   1.485  0.00  0.00    -0.440 OA
ATOM      8  C   LIG    1        2.678   1.197   0.901  0.00  0.00    +0.550 C 
ATOM      9  N   LIG    1        3.665   1.770   0.184  0.00  0.00    -0.660 N 
ATOM     10  H   LIG    1        3.540   2.655  -0.194  0.00  0.00    +0.410 HD
BRANCH   8  11
ATOM     11  C   LIG    1        1.349   1.842   0.977  0.00  0.00    +0.040 C 
ATOM     12  C   LIG    1        1.088   2.979   0.214  0.00  0.00    +0.070 C 
ATOM     13  C   LIG    1       -0.160   3.575   0.300  0.00  0.00    +0.070 C 
ATOM     14  C   LIG    1       -1.108   3.008   1.138  0.00  0.00    +0.080 C 
ATOM     15  C   LIG    1       -0.781   1.878   1.868  0.00  0.00    +0.260 C 
ATOM     16  N   LIG    1        0.414   1.333   1.772  0.00  0.00    -0.090 NA
ATOM     17  O   LIG    1        0.709   0.177   2.535  0.00  0.00    -0.490 OA
ENDBRANCH   8  11
ENDBRANCH   1   9
BRANCH   4  18
ATOM     18  O   LIG    1        8.318  -1.021  -0.600  0.00  0.00    -0.250 OA
BRANCH  18  19
ATOM     19  C   LIG    1        8.232  -2.377  -0.599  0.00  0.00    +0.130 A 
ATOM     20  C   LIG    1        8.618  -3.096   0.523  0.00  0.00    +0.020 A 
ATOM     21  C   LIG    1        8.524  -4.475   0.525  0.00  0.00    +0.080 A 
ATOM     22  C   LIG    1        8.058  -5.138  -0.596  0.00  0.00    -0.180 A 
ATOM     23  C   LIG    1        7.679  -4.424  -1.717  0.00  0.00    +0.080 A 
ATOM     24  C   LIG    1        7.765  -3.045  -1.721  0.00  0.00    +0.030 A 
BRANCH  22  25
ATOM     25  C   LIG    1        7.964  -6.642  -0.594  0.00  0.00    +0.510 C 
ATOM     26  F   LIG    1        6.916  -7.044  -1.429  0.00  0.00    -0.180 F 
ATOM     27  F   LIG    1        7.722  -7.093   0.708  0.00  0.00    -0.180 F 
ATOM     28  F   LIG    1        9.166  -7.186  -1.060  0.00  0.00    -0.180 F 
ENDBRANCH  22  25
ENDBRANCH  18  19
ENDBRANCH   4  18
TORSDOF 5
