REMARK  Name = ZINCpk000000o5Yj.0
REMARK                            x       y       z     vdW  Elec       q    Type
REMARK                         _______ _______ _______ _____ _____    ______ ____
ROOT
ATOM      1  C   LIG    1        1.192   2.038  -0.021  0.00  0.00    -0.210 A 
ATOM      2  C   LIG    1        2.368   1.362  -0.380  0.00  0.00    +0.120 A 
ATOM      3  C   LIG    1        2.356  -0.007  -0.395  0.00  0.00    -0.050 A 
ATOM      4  C   LIG    1        1.186  -0.684  -0.055  0.00  0.00    +0.340 A 
ATOM      5  N   LIG    1        0.088  -0.021   0.281  0.00  0.00    -0.520 NA
ATOM      6  C   LIG    1        0.057   1.295   0.308  0.00  0.00    +0.340 A 
ENDROOT
BRANCH   4   7
ATOM      7  N   LIG    1        1.170  -2.068  -0.069  0.00  0.00    -0.480 N 
ATOM      8  C   LIG    1        1.568  -2.586  -1.386  0.00  0.00    +0.210 C 
ATOM      9  C   LIG    1        1.617  -4.115  -1.334  0.00  0.00    +0.200 C 
ATOM     10  N   LIG    1        0.297  -4.634  -0.946  0.00  0.00    -0.530 NA
ATOM     11  C   LIG    1        0.298  -6.104  -0.948  0.00  0.00    +0.160 C 
ATOM     12  C   LIG    1       -1.100  -6.613  -0.585  0.00  0.00    +0.220 C 
ATOM     13  O   LIG    1       -1.480  -6.075   0.685  0.00  0.00    -0.380 OA
ATOM     14  C   LIG    1       -1.497  -4.646   0.721  0.00  0.00    +0.230 C 
ATOM     15  C   LIG    1       -0.106  -4.113   0.368  0.00  0.00    +0.110 C 
ATOM     16  C   LIG    1       -0.150  -2.584   0.318  0.00  0.00    +0.250 C 
ENDBRANCH   4   7
BRANCH   1  23
ATOM     17  C   LIG    1        3.510   5.848   4.336  0.00  0.00    +0.020 C 
ATOM     18  C   LIG    1        3.395   5.433   2.868  0.00  0.00    -0.020 C 
ATOM     19  C   LIG    1        3.314   3.907   2.775  0.00  0.00    +0.020 C 
ATOM     20  C   LIG    1        3.235   3.493   1.302  0.00  0.00    +0.260 C 
ATOM     21  N   LIG    1        2.109   4.197   0.673  0.00  0.00    -0.610 N 
ATOM     22  C   LIG    1        2.044   5.661   0.777  0.00  0.00    +0.270 C 
ATOM     23  C   LIG    1        1.156   3.513   0.009  0.00  0.00    +0.570 C 
ATOM     24  O   LIG    1        0.267   4.111  -0.565  0.00  0.00    -0.530 OA
ATOM     25  C   LIG    1        2.134   6.050   2.260  0.00  0.00    +0.020 C 
ENDBRANCH   1  23
TORSDOF 2
