REMARK  Name = ZINCpe000027pHwc.0
REMARK                            x       y       z     vdW  Elec       q    Type
REMARK                         _______ _______ _______ _____ _____    ______ ____
ROOT
ATOM      1  C   LIG    1       -3.213  -2.348  -1.159  0.00  0.00    -0.070 C 
ATOM      2  C   LIG    1       -3.965  -2.360  -2.460  0.00  0.00    +0.030 C 
ATOM      3  C   LIG    1       -3.240  -1.599  -3.567  0.00  0.00    +0.220 C 
ATOM      4  O   LIG    1       -1.909  -2.126  -3.650  0.00  0.00    -0.370 OA
ATOM      5  C   LIG    1       -1.117  -1.776  -2.524  0.00  0.00    +0.220 C 
ATOM      6  C   LIG    1       -3.680  -1.236  -0.201  0.00  0.00    +0.300 C 
ATOM      7  N   LIG    1       -2.515  -0.326  -0.089  0.00  0.00    -0.620 N 
ATOM      8  C   LIG    1       -2.523   1.017   0.020  0.00  0.00    +0.590 C 
ATOM      9  O   LIG    1       -3.579   1.613   0.119  0.00  0.00    -0.520 OA
ATOM     10  C   LIG    1       -1.337  -1.228  -0.116  0.00  0.00    +0.280 C 
ATOM     11  C   LIG    1       -1.699  -2.269  -1.213  0.00  0.00    +0.000 C 
ENDROOT
BRANCH   8  12
ATOM     12  C   LIG    1       -1.251   1.766   0.019  0.00  0.00    -0.110 A 
ATOM     13  C   LIG    1       -0.475   1.830   1.164  0.00  0.00    +0.130 A 
ATOM     14  C   LIG    1        0.730   2.555   1.134  0.00  0.00    +0.210 A 
ATOM     15  N   LIG    1        1.653   2.787   2.058  0.00  0.00    -0.480 NA
ATOM     16  C   LIG    1        2.618   3.539   1.533  0.00  0.00    +0.230 A 
ATOM     17  C   LIG    1        2.309   3.797   0.240  0.00  0.00    -0.060 A 
ATOM     18  C   LIG    1        3.126   4.612  -0.729  0.00  0.00    +0.160 C 
ATOM     19  N   LIG    1        1.120   3.181  -0.023  0.00  0.00    -0.360 N 
ATOM     20  C   LIG    1        0.351   3.109  -1.151  0.00  0.00    +0.230 A 
ATOM     21  C   LIG    1       -0.807   2.424  -1.156  0.00  0.00    +0.050 A 
ENDBRANCH   8  12
BRANCH   1  25
ATOM     22  C   LIG    1       -5.152  -5.242   0.429  0.00  0.00    +0.280 C 
ATOM     23  N   LIG    1       -4.830  -3.987  -0.256  0.00  0.00    -0.730 N 
ATOM     24  H   LIG    1       -5.544  -3.407  -0.566  0.00  0.00    +0.400 HD
ATOM     25  C   LIG    1       -3.544  -3.639  -0.455  0.00  0.00    +0.520 C 
ATOM     26  O   LIG    1       -2.652  -4.364  -0.067  0.00  0.00    -0.530 OA
ENDBRANCH   1  25
TORSDOF 2
