REMARK  Name = ZINCAx0000000e1g.0
REMARK                            x       y       z     vdW  Elec       q    Type
REMARK                         _______ _______ _______ _____ _____    ______ ____
ROOT
ATOM      1  N   LIG    1       -8.693   5.417  -7.677  0.00  0.00    -0.480 N 
ATOM      2  C   LIG    1       -8.215   4.133  -7.494  0.00  0.00    +0.290 A 
ATOM      3  C   LIG    1       -8.155   3.574  -6.291  0.00  0.00    +0.160 A 
ATOM      4  N   LIG    1       -8.572   4.257  -5.164  0.00  0.00    -0.390 N 
ATOM      5  C   LIG    1       -8.629   3.960  -3.853  0.00  0.00    +0.200 A 
ATOM      6  N   LIG    1       -9.125   5.004  -3.231  0.00  0.00    -0.270 NA
ATOM      7  N   LIG    1       -9.376   5.943  -4.076  0.00  0.00    -0.200 NA
ATOM      8  C   LIG    1       -9.056   5.536  -5.284  0.00  0.00    +0.110 A 
ATOM      9  C   LIG    1       -9.117   6.144  -6.619  0.00  0.00    +0.600 A 
ATOM     10  O   LIG    1       -9.541   7.276  -6.770  0.00  0.00    -0.460 OA
ENDROOT
BRANCH   1  14
ATOM     11  C   LIG    1       -8.827   7.057 -11.508  0.00  0.00    +0.150 A 
ATOM     12  C   LIG    1      -10.006   6.771 -10.835  0.00  0.00    +0.000 A 
ATOM     13  C   LIG    1       -9.962   6.228  -9.566  0.00  0.00    +0.090 A 
ATOM     14  C   LIG    1       -8.738   5.968  -8.964  0.00  0.00    +0.070 A 
ATOM     15  C   LIG    1       -7.558   6.259  -9.637  0.00  0.00    +0.070 A 
ATOM     16  C   LIG    1       -7.603   6.797 -10.907  0.00  0.00    -0.060 A 
BRANCH  11  18
ATOM     17  C   LIG    1       -7.619   7.861 -13.391  0.00  0.00    +0.240 C 
ATOM     18  O   LIG    1       -8.870   7.592 -12.757  0.00  0.00    -0.310 OA
ENDBRANCH  11  18
ENDBRANCH   1  14
BRANCH   5  19
ATOM     19  C   LIG    1       -8.206   2.662  -3.215  0.00  0.00    +0.200 C 
BRANCH  19  20
ATOM     20  C   LIG    1       -6.729   2.743  -2.823  0.00  0.00    +0.070 C 
BRANCH  20  21
ATOM     21  C   LIG    1       -6.306   1.445  -2.185  0.00  0.00    +0.520 C 
ATOM     22  N   LIG    1       -5.038   1.286  -1.757  0.00  0.00    -0.610 N 
ATOM     23  C   LIG    1       -4.605   0.028  -1.132  0.00  0.00    +0.300 C 
ATOM     24  C   LIG    1       -3.916   0.356   0.197  0.00  0.00    +0.180 C 
ATOM     25  N   LIG    1       -2.845   1.334  -0.038  0.00  0.00    -0.500 N 
ATOM     26  C   LIG    1       -3.385   2.604  -0.543  0.00  0.00    +0.180 C 
ATOM     27  C   LIG    1       -4.051   2.367  -1.903  0.00  0.00    +0.280 C 
ATOM     28  O   LIG    1       -7.107   0.543  -2.057  0.00  0.00    -0.530 OA
BRANCH  25  29
ATOM     29  C   LIG    1       -2.089   1.536   1.118  0.00  0.00    +0.080 A 
ATOM     30  C   LIG    1       -2.697   2.007   2.274  0.00  0.00    -0.020 A 
ATOM     31  C   LIG    1       -1.945   2.210   3.415  0.00  0.00    -0.080 A 
ATOM     32  C   LIG    1       -0.589   1.941   3.408  0.00  0.00    +0.000 A 
ATOM     33  C   LIG    1        0.019   1.468   2.259  0.00  0.00    +0.020 A 
ATOM     34  C   LIG    1       -2.603   2.725   4.669  0.00  0.00    +0.080 C 
ATOM     35  C   LIG    1       -0.727   1.262   1.116  0.00  0.00    -0.060 A 
ATOM     36  C   LIG    1       -0.063   0.746  -0.135  0.00  0.00    +0.110 C 
ENDBRANCH  25  29
ENDBRANCH  20  21
ENDBRANCH  19  20
ENDBRANCH   5  19
TORSDOF 6
