REMARK  Name = ZINCqH00000080QC.0
REMARK                            x       y       z     vdW  Elec       q    Type
REMARK                         _______ _______ _______ _____ _____    ______ ____
ROOT
ATOM      1  C   LIG    1        3.704  -1.198  -0.436  0.00  0.00    +0.260 C 
ENDROOT
BRANCH   1   2
ATOM      2  C   LIG    1        3.376  -2.409   0.398  0.00  0.00    +0.520 C 
ATOM      3  N   LIG    1        4.331  -3.321   0.668  0.00  0.00    -0.610 N 
ATOM      4  C   LIG    1        5.710  -3.088   0.230  0.00  0.00    +0.290 C 
ATOM      5  O   LIG    1        2.252  -2.564   0.826  0.00  0.00    -0.520 OA
BRANCH   3   6
ATOM      6  C   LIG    1        3.991  -4.544   1.399  0.00  0.00    +0.420 C 
BRANCH   6   7
ATOM      7  C   LIG    1        3.595  -5.620   0.421  0.00  0.00    -0.040 A 
ATOM      8  C   LIG    1        4.428  -6.508  -0.151  0.00  0.00    -0.040 A 
ATOM      9  C   LIG    1        3.639  -7.326  -0.993  0.00  0.00    -0.070 A 
ATOM     10  C   LIG    1        2.372  -6.889  -0.884  0.00  0.00    -0.000 A 
ATOM     11  C   LIG    1        1.177  -7.462  -1.602  0.00  0.00    +0.170 C 
ATOM     12  O   LIG    1        2.350  -5.859  -0.022  0.00  0.00    -0.160 OA
ENDBRANCH   6   7
ENDBRANCH   3   6
ENDBRANCH   1   2
BRANCH   1  13
ATOM     13  N   LIG    1        2.553  -0.292  -0.456  0.00  0.00    -0.710 N 
ATOM     14  H   LIG    1        1.659  -0.640  -0.308  0.00  0.00    +0.410 HD
ATOM     15  C   LIG    1        2.735   1.024  -0.680  0.00  0.00    +0.560 C 
ATOM     16  O   LIG    1        3.854   1.460  -0.866  0.00  0.00    -0.510 OA
BRANCH  15  17
ATOM     17  C   LIG    1        1.573   1.938  -0.700  0.00  0.00    -0.130 A 
ATOM     18  C   LIG    1        0.286   1.441  -0.487  0.00  0.00    +0.070 A 
ATOM     19  C   LIG    1       -0.794   2.298  -0.512  0.00  0.00    +0.020 A 
ATOM     20  C   LIG    1       -0.604   3.650  -0.738  0.00  0.00    +0.060 A 
ATOM     21  C   LIG    1        0.668   4.151  -0.950  0.00  0.00    +0.020 A 
ATOM     22  C   LIG    1        1.758   3.303  -0.932  0.00  0.00    +0.020 A 
ATOM     23 CL   LIG    1        3.354   3.933  -1.198  0.00  0.00    -0.030 Cl
ENDBRANCH  15  17
ENDBRANCH   1  13
BRANCH   1  24
ATOM     24  C   LIG    1        4.032  -1.636  -1.865  0.00  0.00    +0.060 C 
BRANCH  24  25
ATOM     25  C   LIG    1        4.440  -0.415  -2.692  0.00  0.00    +0.110 C 
BRANCH  25  27
ATOM     26  C   LIG    1        5.282   0.624  -5.197  0.00  0.00    +0.140 C 
ATOM     27  S   LIG    1        4.830  -0.935  -4.386  0.00  0.00    -0.270 S 
ENDBRANCH  25  27
ENDBRANCH  24  25
ENDBRANCH   1  24
TORSDOF 8
