REMARK  Name = ZINCrD00000l4fDW.0
REMARK                            x       y       z     vdW  Elec       q    Type
REMARK                         _______ _______ _______ _____ _____    ______ ____
ROOT
ATOM      1  C   LIG    1        0.117  -4.269   0.191  0.00  0.00    +0.360 C 
ENDROOT
BRANCH   1   6
ATOM      2  C   LIG    1       -3.334  -5.591  -0.182  0.00  0.00    +0.130 C 
ATOM      3  N   LIG    1       -3.145  -5.444   1.271  0.00  0.00    -0.710 N 
ATOM      4  H   LIG    1       -3.791  -5.653   1.964  0.00  0.00    +0.440 HD
ATOM      5  C   LIG    1       -1.899  -4.970   1.451  0.00  0.00    +0.710 C 
ATOM      6  N   LIG    1       -1.252  -4.780   0.294  0.00  0.00    -0.560 N 
ATOM      7  O   LIG    1       -1.415  -4.736   2.541  0.00  0.00    -0.540 OA
ATOM      8  C   LIG    1       -2.015  -5.122  -0.763  0.00  0.00    +0.540 C 
ATOM      9  O   LIG    1       -1.708  -5.067  -1.935  0.00  0.00    -0.460 OA
BRANCH   2  10
ATOM     10  C   LIG    1       -4.481  -4.702  -0.668  0.00  0.00    +0.070 C 
BRANCH  10  12
ATOM     11  C   LIG    1       -5.369  -2.368  -0.727  0.00  0.00    +0.010 C 
ATOM     12  C   LIG    1       -4.222  -3.256  -0.242  0.00  0.00    +0.010 C 
ENDBRANCH  10  12
ENDBRANCH   2  10
BRANCH   2  13
ATOM     13  C   LIG    1       -3.595  -7.053  -0.550  0.00  0.00    +0.060 C 
BRANCH  13  14
ATOM     14  C   LIG    1       -2.529  -7.939   0.097  0.00  0.00    +0.000 C 
ATOM     15  C   LIG    1       -2.790  -9.401  -0.270  0.00  0.00    +0.030 C 
ENDBRANCH  13  14
ENDBRANCH   2  13
ENDBRANCH   1   6
BRANCH   1  16
ATOM     16  C   LIG    1        0.085  -2.766   0.087  0.00  0.00    +0.500 C 
ATOM     17  N   LIG    1        1.237  -2.073  -0.019  0.00  0.00    -0.660 N 
ATOM     18  H   LIG    1        2.080  -2.545  -0.108  0.00  0.00    +0.410 HD
ATOM     19  O   LIG    1       -0.976  -2.179   0.098  0.00  0.00    -0.500 OA
BRANCH  17  20
ATOM     20  C   LIG    1        1.216  -0.674   0.001  0.00  0.00    +0.150 A 
ATOM     21  C   LIG    1        0.171  -0.009   0.621  0.00  0.00    +0.010 A 
ATOM     22  C   LIG    1        0.152   1.372   0.638  0.00  0.00    +0.030 A 
ATOM     23  C   LIG    1        1.172   2.080   0.036  0.00  0.00    -0.020 A 
ATOM     24  C   LIG    1        2.221   1.418  -0.590  0.00  0.00    -0.060 A 
ATOM     25  C   LIG    1        3.292   2.257  -1.238  0.00  0.00    +0.080 C 
ATOM     26  C   LIG    1        4.551   1.427  -1.479  0.00  0.00    +0.020 C 
ATOM     27  C   LIG    1        4.151   0.143  -2.215  0.00  0.00    +0.020 C 
ATOM     28  C   LIG    1        3.363  -0.740  -1.249  0.00  0.00    +0.070 C 
ATOM     29  C   LIG    1        2.248   0.043  -0.605  0.00  0.00    -0.100 A 
ENDBRANCH  17  20
ENDBRANCH   1  16
TORSDOF 7
