REMARK  Name = ZINCpe000000Y8Zg.0
REMARK                            x       y       z     vdW  Elec       q    Type
REMARK                         _______ _______ _______ _____ _____    ______ ____
ROOT
ATOM      1  N   LIG    1        2.891   2.952   1.150  0.00  0.00    -0.630 N 
ATOM      2  H   LIG    1        3.415   2.760   1.943  0.00  0.00    +0.420 HD
ATOM      3  C   LIG    1        3.416   2.742  -0.073  0.00  0.00    +0.530 C 
ATOM      4  O   LIG    1        2.760   2.982  -1.065  0.00  0.00    -0.450 OA
ENDROOT
BRANCH   3   5
ATOM      5  C   LIG    1        4.819   2.209  -0.209  0.00  0.00    +0.020 C 
ATOM      6  C   LIG    1        5.006   1.480  -1.560  0.00  0.00    +0.100 C 
ATOM      7  C   LIG    1        6.415   1.833  -1.980  0.00  0.00    +0.520 C 
ATOM      8  N   LIG    1        6.859   2.887  -1.274  0.00  0.00    -0.620 N 
ATOM      9  C   LIG    1        8.188   3.482  -1.424  0.00  0.00    +0.310 C 
ATOM     10  O   LIG    1        7.053   1.250  -2.832  0.00  0.00    -0.510 OA
ATOM     11  C   LIG    1        5.840   3.363  -0.331  0.00  0.00    +0.340 C 
BRANCH  11  12
ATOM     12  C   LIG    1        5.167   4.599  -0.871  0.00  0.00    +0.050 A 
ATOM     13  C   LIG    1        4.519   5.537  -0.143  0.00  0.00    -0.110 A 
ATOM     14  C   LIG    1        4.045   6.514  -1.024  0.00  0.00    +0.230 A 
ATOM     15  N   LIG    1        4.388   6.170  -2.239  0.00  0.00    -0.280 NA
ATOM     16  N   LIG    1        5.098   4.965  -2.168  0.00  0.00    -0.340 N 
ATOM     17  C   LIG    1        5.664   4.230  -3.302  0.00  0.00    +0.340 C 
ENDBRANCH  11  12
ENDBRANCH   3   5
BRANCH   1  22
ATOM     18  C   LIG    1       -1.405   4.580   3.005  0.00  0.00    +0.200 C 
ATOM     19  C   LIG    1       -0.296   4.161   2.075  0.00  0.00    +0.180 A 
ATOM     20  N   LIG    1       -0.336   4.170   0.772  0.00  0.00    -0.280 NA
ATOM     21  N   LIG    1        0.779   3.744   0.295  0.00  0.00    -0.260 NA
ATOM     22  C   LIG    1        1.597   3.443   1.275  0.00  0.00    +0.410 A 
ATOM     23  N   LIG    1        0.937   3.704   2.441  0.00  0.00    -0.470 N 
BRANCH  23  24
ATOM     24  C   LIG    1        1.445   3.524   3.803  0.00  0.00    +0.180 C 
ATOM     25  C   LIG    1        1.248   4.677   4.789  0.00  0.00    +0.070 C 
ATOM     26  C   LIG    1        2.641   4.378   4.230  0.00  0.00    +0.060 C 
ENDBRANCH  23  24
ENDBRANCH   1  22
TORSDOF 4
