REMARK  Name = ZINCpk000000nkRo.0
REMARK                            x       y       z     vdW  Elec       q    Type
REMARK                         _______ _______ _______ _____ _____    ______ ____
ROOT
ATOM      1  C   LIG    1        5.876  -3.605  -5.040  0.00  0.00    +0.560 C 
ATOM      2  N   LIG    1        5.308  -2.967  -3.997  0.00  0.00    -0.720 N 
ATOM      3  H   LIG    1        5.787  -2.890  -3.157  0.00  0.00    +0.410 HD
ATOM      4  O   LIG    1        5.276  -3.702  -6.092  0.00  0.00    -0.540 OA
ENDROOT
BRANCH   1   8
ATOM      5  C   LIG    1        9.762  -5.275  -4.648  0.00  0.00    -0.040 A 
ATOM      6  C   LIG    1        9.081  -5.388  -5.847  0.00  0.00    +0.010 A 
ATOM      7  C   LIG    1        7.819  -4.848  -5.981  0.00  0.00    +0.090 A 
ATOM      8  C   LIG    1        7.228  -4.187  -4.903  0.00  0.00    -0.140 A 
ATOM      9  C   LIG    1        7.922  -4.072  -3.697  0.00  0.00    +0.050 A 
ATOM     10  C   LIG    1        9.182  -4.621  -3.575  0.00  0.00    +0.000 A 
BRANCH   5  12
ATOM     11  C   LIG    1       12.078  -5.220  -5.531  0.00  0.00    +0.040 C 
ATOM     12  C   LIG    1       11.141  -5.867  -4.509  0.00  0.00    -0.040 C 
ATOM     13  C   LIG    1       11.076  -7.375  -4.759  0.00  0.00    +0.040 C 
ATOM     14  C   LIG    1       11.668  -5.606  -3.097  0.00  0.00    +0.030 C 
ENDBRANCH   5  12
ENDBRANCH   1   8
BRANCH   2  15
ATOM     15  C   LIG    1        3.968  -2.391  -4.132  0.00  0.00    +0.300 C 
BRANCH  15  16
ATOM     16  C   LIG    1        3.568  -1.739  -2.833  0.00  0.00    +0.510 C 
ATOM     17  N   LIG    1        2.367  -1.139  -2.722  0.00  0.00    -0.720 N 
ATOM     18  H   LIG    1        1.759  -1.127  -3.478  0.00  0.00    +0.410 HD
ATOM     19  O   LIG    1        4.328  -1.755  -1.888  0.00  0.00    -0.530 OA
BRANCH  17  20
ATOM     20  C   LIG    1        1.978  -0.506  -1.460  0.00  0.00    +0.230 C 
ATOM     21  C   LIG    1        2.623   0.866  -1.387  0.00  0.00    +0.020 C 
ATOM     22  C   LIG    1        2.417   1.493  -0.007  0.00  0.00    +0.280 C 
ATOM     23  N   LIG    1        1.125   2.197   0.003  0.00  0.00    -0.720 N 
ATOM     24  H   LIG    1        1.104   3.167   0.004  0.00  0.00    +0.400 HD
ATOM     25  C   LIG    1       -0.018   1.510   0.010  0.00  0.00    +0.520 C 
ATOM     26  C   LIG    1        0.002  -0.004   0.002  0.00  0.00    +0.060 C 
ATOM     27  O   LIG    1       -1.078   2.100   0.019  0.00  0.00    -0.550 OA
ATOM     28  C   LIG    1        0.462  -0.476  -1.379  0.00  0.00    +0.050 C 
ENDBRANCH  17  20
ENDBRANCH  15  16
ENDBRANCH   2  15
TORSDOF 5
