REMARK  Name = ZINCpe000014ZKXY.0
REMARK                            x       y       z     vdW  Elec       q    Type
REMARK                         _______ _______ _______ _____ _____    ______ ____
ROOT
ATOM      1  N   LIG    1       -0.780   1.868  -1.510  0.00  0.00    -0.990 NA
ATOM      2  C   LIG    1       -0.369   2.909  -2.476  0.00  0.00    +0.290 C 
ATOM      3  C   LIG    1       -1.512   3.909  -2.659  0.00  0.00    +0.000 C 
ATOM      4  C   LIG    1       -0.935   5.308  -2.885  0.00  0.00    +0.050 C 
ATOM      5  C   LIG    1       -1.107   6.144  -1.615  0.00  0.00    +0.040 C 
ATOM      6  C   LIG    1       -0.459   5.429  -0.456  0.00  0.00    +0.510 C 
ATOM      7  N   LIG    1       -1.226   4.627   0.332  0.00  0.00    -0.760 N 
ATOM      8  H   LIG    1       -2.189   4.567   0.210  0.00  0.00    +0.420 HD
ATOM      9  C   LIG    1       -0.534   3.855   1.381  0.00  0.00    +0.330 C 
ATOM     10  C   LIG    1       -0.864   2.372   1.193  0.00  0.00    -0.380 C 
ATOM     11  O   LIG    1        0.724   5.573  -0.233  0.00  0.00    -0.500 OA
ATOM     12  S   LIG    1        0.154   1.685  -0.141  0.00  0.00    +2.590 S 
ATOM     13  O   LIG    1        1.294   2.500  -0.372  0.00  0.00    -0.930 OA
ATOM     14  O   LIG    1        0.284   0.276   0.007  0.00  0.00    -0.950 OA
ENDROOT
BRANCH   1  15
ATOM     15  C   LIG    1       -1.955   1.024  -1.749  0.00  0.00    +0.360 C 
BRANCH  15  21
ATOM     16  C   LIG    1       -4.444   1.226  -1.569  0.00  0.00    -0.070 A 
ATOM     17  C   LIG    1       -5.580   1.882  -1.135  0.00  0.00    +0.040 A 
ATOM     18  C   LIG    1       -5.467   3.061  -0.421  0.00  0.00    +0.020 A 
ATOM     19  C   LIG    1       -4.218   3.580  -0.138  0.00  0.00    +0.000 A 
ATOM     20  C   LIG    1       -3.081   2.921  -0.567  0.00  0.00    -0.010 A 
ATOM     21  C   LIG    1       -3.194   1.742  -1.280  0.00  0.00    -0.080 A 
BRANCH  16  22
ATOM     22  C   LIG    1       -4.567  -0.056  -2.352  0.00  0.00    +0.160 C 
BRANCH  22  23
ATOM     23  C   LIG    1       -4.490  -1.230  -1.410  0.00  0.00    +0.460 C 
ATOM     24  O   LIG    1       -4.351  -1.044  -0.224  0.00  0.00    -0.490 OA
BRANCH  23  26
ATOM     25  C   LIG    1       -4.497  -3.562  -0.923  0.00  0.00    +0.260 C 
ATOM     26  O   LIG    1       -4.578  -2.481  -1.888  0.00  0.00    -0.360 OA
ENDBRANCH  23  26
ENDBRANCH  22  23
ENDBRANCH  16  22
ENDBRANCH  15  21
ENDBRANCH   1  15
TORSDOF 5
