REMARK  Name = ZINCqH0000005q1P.0
REMARK                            x       y       z     vdW  Elec       q    Type
REMARK                         _______ _______ _______ _____ _____    ______ ____
ROOT
ATOM      1  C   LIG    1        1.804   2.068  -1.475  0.00  0.00    -0.190 A 
ATOM      2  C   LIG    1        1.371   1.137  -2.399  0.00  0.00    +0.120 A 
ATOM      3  C   LIG    1        1.863   1.160  -3.690  0.00  0.00    -0.070 A 
ATOM      4  C   LIG    1        2.793   2.120  -4.061  0.00  0.00    +0.160 A 
ATOM      5  C   LIG    1        3.230   3.056  -3.136  0.00  0.00    -0.060 A 
ATOM      6  C   LIG    1        2.731   3.034  -1.843  0.00  0.00    +0.160 A 
ENDROOT
BRANCH   1  19
ATOM      7  C   LIG    1        3.531   1.881   0.759  0.00  0.00    +0.250 C 
ATOM      8  N   LIG    1        2.188   1.287   0.784  0.00  0.00    -0.490 N 
ATOM      9  C   LIG    1        2.232  -0.058   0.455  0.00  0.00    +0.160 A 
ATOM     10  C   LIG    1        3.417  -0.777   0.540  0.00  0.00    -0.040 A 
ATOM     11  C   LIG    1        3.431  -2.119   0.216  0.00  0.00    +0.070 A 
ATOM     12  C   LIG    1        2.273  -2.760  -0.194  0.00  0.00    -0.030 A 
ATOM     13  C   LIG    1        1.086  -2.061  -0.288  0.00  0.00    +0.110 A 
ATOM     14  C   LIG    1        1.060  -0.707   0.034  0.00  0.00    -0.190 A 
ATOM     15  C   LIG    1       -0.185   0.082  -0.056  0.00  0.00    +0.570 C 
ATOM     16  N   LIG    1       -0.065   1.431  -0.076  0.00  0.00    -0.720 N 
ATOM     17  H   LIG    1       -0.857   1.991  -0.100  0.00  0.00    +0.420 HD
ATOM     18  O   LIG    1       -1.274  -0.457  -0.108  0.00  0.00    -0.520 OA
ATOM     19  C   LIG    1        1.265   2.040  -0.068  0.00  0.00    +0.510 C 
ENDBRANCH   1  19
BRANCH   4  20
ATOM     20  O   LIG    1        3.277   2.143  -5.331  0.00  0.00    -0.320 OA
BRANCH  20  21
ATOM     21  C   LIG    1        2.784   1.148  -6.231  0.00  0.00    +0.600 C 
ATOM     22  F   LIG    1        1.396   1.279  -6.355  0.00  0.00    -0.190 F 
ATOM     23  F   LIG    1        3.090  -0.123  -5.735  0.00  0.00    -0.190 F 
ENDBRANCH  20  21
ENDBRANCH   4  20
BRANCH   6  24
ATOM     24  O   LIG    1        3.152   3.953  -0.935  0.00  0.00    -0.320 OA
BRANCH  24  25
ATOM     25  C   LIG    1        4.107   4.917  -1.384  0.00  0.00    +0.600 C 
ATOM     26  F   LIG    1        3.564   5.654  -2.442  0.00  0.00    -0.190 F 
ATOM     27  F   LIG    1        5.263   4.260  -1.818  0.00  0.00    -0.190 F 
ENDBRANCH  24  25
ENDBRANCH   6  24
TORSDOF 5
