REMARK  Name = ZINCvU0000000F40.0
REMARK                            x       y       z     vdW  Elec       q    Type
REMARK                         _______ _______ _______ _____ _____    ______ ____
ROOT
ATOM      1  C   LIG    1        5.154  -2.793  -0.958  0.00  0.00    -0.270 A 
ATOM      2  C   LIG    1        5.433  -2.982   0.380  0.00  0.00    +0.290 A 
ATOM      3  N   LIG    1        6.350  -3.959   0.477  0.00  0.00    -0.310 N 
ATOM      4  N   LIG    1        6.683  -4.422  -0.799  0.00  0.00    -0.270 NA
ATOM      5  C   LIG    1        5.984  -3.755  -1.694  0.00  0.00    +0.210 A 
ENDROOT
BRANCH   1  10
ATOM      6  C   LIG    1        2.490   1.046  -0.017  0.00  0.00    +0.050 C 
ATOM      7  C   LIG    1        2.634   0.136   1.231  0.00  0.00    +0.050 C 
ATOM      8  C   LIG    1        3.591  -0.972   0.742  0.00  0.00    +0.230 C 
ATOM      9  N   LIG    1        3.507  -1.004  -0.725  0.00  0.00    -0.610 N 
ATOM     10  C   LIG    1        4.208  -1.824  -1.534  0.00  0.00    +0.610 C 
ATOM     11  O   LIG    1        4.057  -1.763  -2.739  0.00  0.00    -0.520 OA
ATOM     12  C   LIG    1        2.530   0.008  -1.166  0.00  0.00    +0.270 C 
BRANCH   6  18
ATOM     13  C   LIG    1        1.155   3.169   0.008  0.00  0.00    +0.130 A 
ATOM     14  C   LIG    1       -0.057   3.844   0.023  0.00  0.00    -0.080 A 
ATOM     15  C   LIG    1       -1.242   3.132   0.031  0.00  0.00    +0.050 A 
ATOM     16  C   LIG    1       -1.220   1.750   0.017  0.00  0.00    -0.020 A 
ATOM     17  C   LIG    1       -0.013   1.076   0.008  0.00  0.00    +0.050 A 
ATOM     18  C   LIG    1        1.174   1.782   0.000  0.00  0.00    -0.110 A 
BRANCH  13  20
ATOM     19  C   LIG    1        2.225   5.292   0.009  0.00  0.00    +0.250 C 
ATOM     20  O   LIG    1        2.321   3.867   0.000  0.00  0.00    -0.310 OA
ENDBRANCH  13  20
ENDBRANCH   6  18
ENDBRANCH   1  10
BRANCH   3  21
ATOM     21  C   LIG    1        6.892  -4.441   1.676  0.00  0.00    +0.150 A 
ATOM     22  C   LIG    1        6.489  -3.898   2.889  0.00  0.00    -0.010 A 
ATOM     23  C   LIG    1        7.021  -4.379   4.069  0.00  0.00    +0.050 A 
ATOM     24  C   LIG    1        7.961  -5.392   4.044  0.00  0.00    +0.010 A 
ATOM     25  C   LIG    1        8.369  -5.931   2.837  0.00  0.00    +0.050 A 
ATOM     26  C   LIG    1        7.837  -5.458   1.653  0.00  0.00    +0.030 A 
ENDBRANCH   3  21
BRANCH   5  27
ATOM     27  C   LIG    1        6.030  -3.937  -3.158  0.00  0.00    -0.150 A 
ATOM     28  C   LIG    1        7.130  -4.257  -3.869  0.00  0.00    +0.040 A 
ATOM     29  C   LIG    1        6.924  -4.373  -5.228  0.00  0.00    -0.010 A 
ATOM     30  C   LIG    1        5.670  -4.151  -5.632  0.00  0.00    -0.080 A 
ATOM     31  S   LIG    1        4.656  -3.777  -4.245  0.00  0.00    +0.240 S 
ENDBRANCH   5  27
TORSDOF 5
