REMARK  Name = ZINCrH00000Cv74y.0
REMARK                            x       y       z     vdW  Elec       q    Type
REMARK                         _______ _______ _______ _____ _____    ______ ____
ROOT
ATOM      1  C   LIG    1        0.967  -2.674  -0.977  0.00  0.00    +0.240 C 
ENDROOT
BRANCH   1   2
ATOM      2  C   LIG    1        0.026  -1.637  -1.535  0.00  0.00    +0.030 A 
ATOM      3  N   LIG    1       -1.276  -1.720  -1.618  0.00  0.00    -0.320 NA
ATOM      4  O   LIG    1       -1.758  -0.723  -2.117  0.00  0.00    +0.110 OA
ATOM      5  C   LIG    1       -0.816   0.164  -2.432  0.00  0.00    -0.030 A 
ATOM      6  C   LIG    1       -0.947   1.526  -3.058  0.00  0.00    +0.150 C 
ATOM      7  C   LIG    1        0.361   2.293  -2.824  0.00  0.00    +0.030 C 
ATOM      8  C   LIG    1        1.551   1.424  -3.240  0.00  0.00    +0.030 C 
ATOM      9  C   LIG    1        1.708   0.261  -2.249  0.00  0.00    +0.110 C 
ATOM     10  C   LIG    1        0.368  -0.390  -2.072  0.00  0.00    -0.200 A 
ENDBRANCH   1   2
BRANCH   1  13
ATOM     11  N   LIG    1        1.586  -3.566  -3.199  0.00  0.00    -0.730 N 
ATOM     12  H   LIG    1        1.838  -2.666  -3.456  0.00  0.00    +0.400 HD
ATOM     13  C   LIG    1        1.109  -3.806  -1.961  0.00  0.00    +0.520 C 
ATOM     14  O   LIG    1        0.795  -4.932  -1.640  0.00  0.00    -0.510 OA
BRANCH  11  16
ATOM     15  C   LIG    1        2.284  -4.129  -5.474  0.00  0.00    +0.030 C 
ATOM     16  C   LIG    1        1.725  -4.667  -4.156  0.00  0.00    +0.250 C 
ENDBRANCH  11  16
ENDBRANCH   1  13
BRANCH   1  17
ATOM     17  N   LIG    1        0.430  -3.190   0.289  0.00  0.00    -0.470 NA
BRANCH  17  18
ATOM     18  C   LIG    1        0.189  -2.100   1.244  0.00  0.00    +0.130 C 
ATOM     19  C   LIG    1        0.981  -2.118   2.552  0.00  0.00    -0.020 C 
ATOM     20  C   LIG    1       -0.512  -2.452   2.557  0.00  0.00    +0.040 C 
ENDBRANCH  17  18
BRANCH  17  21
ATOM     21  C   LIG    1        1.323  -4.205   0.865  0.00  0.00    +0.240 C 
BRANCH  21  22
ATOM     22  C   LIG    1        0.566  -5.023   1.879  0.00  0.00    -0.070 A 
ATOM     23  C   LIG    1       -0.610  -5.654   1.520  0.00  0.00    +0.040 A 
ATOM     24  C   LIG    1       -1.304  -6.405   2.451  0.00  0.00    +0.000 A 
ATOM     25  C   LIG    1       -0.822  -6.524   3.741  0.00  0.00    +0.000 A 
ATOM     26  C   LIG    1        0.355  -5.892   4.100  0.00  0.00    -0.090 A 
ATOM     27  C   LIG    1        0.880  -6.022   5.507  0.00  0.00    +0.090 C 
ATOM     28  C   LIG    1        1.051  -5.147   3.168  0.00  0.00    +0.000 A 
ENDBRANCH  21  22
ENDBRANCH  17  21
ENDBRANCH   1  17
TORSDOF 7
