REMARK  Name = ZINCpk00000eawRm.0
REMARK                            x       y       z     vdW  Elec       q    Type
REMARK                         _______ _______ _______ _____ _____    ______ ____
ROOT
ATOM      1  N   LIG    1        2.709   3.366  -4.290  0.00  0.00    -0.990 NA
ATOM      2  C   LIG    1        1.538   3.875  -3.562  0.00  0.00    +0.300 C 
ATOM      3  C   LIG    1        2.022   4.582  -2.289  0.00  0.00    +0.280 C 
ATOM      4  N   LIG    1        2.962   3.696  -1.589  0.00  0.00    -0.990 NA
ATOM      5  C   LIG    1        4.136   3.192  -2.316  0.00  0.00    +0.290 C 
ATOM      6  C   LIG    1        3.649   2.481  -3.590  0.00  0.00    +0.290 C 
ENDROOT
BRANCH   1   7
ATOM      7  S   LIG    1        2.964   3.784  -5.872  0.00  0.00    +2.700 S 
ATOM      8  O   LIG    1        1.695   4.142  -6.403  0.00  0.00    -0.940 OA
ATOM      9  O   LIG    1        3.780   2.764  -6.431  0.00  0.00    -0.960 OA
BRANCH   7  15
ATOM     10  C   LIG    1        3.414   6.431  -5.354  0.00  0.00    +0.220 A 
ATOM     11  C   LIG    1        4.182   7.587  -5.355  0.00  0.00    -0.090 A 
ATOM     12  C   LIG    1        5.462   7.564  -5.874  0.00  0.00    +0.110 A 
ATOM     13  C   LIG    1        5.979   6.390  -6.391  0.00  0.00    -0.030 A 
ATOM     14  C   LIG    1        5.218   5.236  -6.386  0.00  0.00    +0.160 A 
ATOM     15  C   LIG    1        3.935   5.255  -5.873  0.00  0.00    -0.710 A 
BRANCH  10  17
ATOM     16  C   LIG    1        1.684   7.697  -4.326  0.00  0.00    +0.250 C 
ATOM     17  O   LIG    1        2.155   6.451  -4.844  0.00  0.00    -0.310 OA
ENDBRANCH  10  17
ENDBRANCH   7  15
ENDBRANCH   1   7
BRANCH   4  18
ATOM     18  S   LIG    1        2.708   3.278  -0.007  0.00  0.00    +2.710 S 
ATOM     19  O   LIG    1        3.977   2.921   0.523  0.00  0.00    -0.940 OA
ATOM     20  O   LIG    1        1.891   4.299   0.551  0.00  0.00    -0.950 OA
BRANCH  18  21
ATOM     21  C   LIG    1        1.736   1.808  -0.005  0.00  0.00    -0.800 A 
ATOM     22  C   LIG    1        2.222   0.566  -0.016  0.00  0.00    +0.160 A 
ATOM     23  C   LIG    1        1.265  -0.434  -0.012  0.00  0.00    -0.010 A 
ATOM     24  C   LIG    1        0.002  -0.004   0.002  0.00  0.00    +0.010 A 
ATOM     25  S   LIG    1       -0.022   1.755   0.012  0.00  0.00    +0.220 S 
ENDBRANCH  18  21
ENDBRANCH   4  18
TORSDOF 5
