REMARK  Name = ZINCkj000005g43m.0
REMARK                            x       y       z     vdW  Elec       q    Type
REMARK                         _______ _______ _______ _____ _____    ______ ____
ROOT
ATOM      1  C   LIG    1       -1.224  -0.957   0.059  0.00  0.00    +0.440 C 
ENDROOT
BRANCH   1   2
ATOM      2  C   LIG    1       -0.018  -0.055   0.100  0.00  0.00    +0.130 A 
ATOM      3  N   LIG    1       -0.027   1.250   0.135  0.00  0.00    -0.240 NA
ATOM      4  N   LIG    1        1.178   1.696   0.162  0.00  0.00    -0.280 NA
ATOM      5  C   LIG    1        2.021   0.699   0.145  0.00  0.00    +0.430 A 
ATOM      6  N   LIG    1        1.287  -0.449   0.105  0.00  0.00    -0.420 N 
BRANCH   6   7
ATOM      7  C   LIG    1        1.774  -1.764   0.075  0.00  0.00    +0.090 A 
ATOM      8  C   LIG    1        1.284  -2.708   0.967  0.00  0.00    +0.010 A 
ATOM      9  C   LIG    1        1.761  -4.003   0.932  0.00  0.00    +0.040 A 
ATOM     10  C   LIG    1        2.734  -4.358   0.016  0.00  0.00    +0.040 A 
ATOM     11  C   LIG    1        3.228  -3.419  -0.871  0.00  0.00    +0.050 A 
ATOM     12  C   LIG    1        2.750  -2.123  -0.844  0.00  0.00    +0.030 A 
ENDBRANCH   6   7
ENDBRANCH   1   2
BRANCH   1  13
ATOM     13  N   LIG    1       -1.598  -1.212  -1.334  0.00  0.00    -0.690 NA
ATOM     14  H   LIG    1       -1.084  -0.814  -2.054  0.00  0.00    +0.430 HD
BRANCH  13  15
ATOM     15  C   LIG    1       -2.671  -2.010  -1.620  0.00  0.00    +0.730 C 
BRANCH  15  16
ATOM     16  N   LIG    1       -3.011  -2.241  -2.886  0.00  0.00    -0.670 NA
ATOM     17  H   LIG    1       -3.724  -2.866  -3.091  0.00  0.00    +0.440 HD
BRANCH  16  19
ATOM     18  C   LIG    1       -2.967  -1.897  -5.308  0.00  0.00    +0.080 C 
ATOM     19  C   LIG    1       -2.308  -1.552  -3.971  0.00  0.00    +0.280 C 
ENDBRANCH  16  19
ENDBRANCH  15  16
BRANCH  15  20
ATOM     20  N   LIG    1       -3.377  -2.556  -0.631  0.00  0.00    -0.680 NA
ATOM     21  H   LIG    1       -3.178  -2.328   0.291  0.00  0.00    +0.430 HD
BRANCH  20  22
ATOM     22  C   LIG    1       -4.454  -3.501  -0.934  0.00  0.00    +0.280 C 
ATOM     23  C   LIG    1       -5.017  -4.069   0.370  0.00  0.00    +0.080 C 
ENDBRANCH  20  22
ENDBRANCH  15  20
ENDBRANCH  13  15
ENDBRANCH   1  13
TORSDOF 8
