REMARK  Name = ZINCqH0000050bwY.1
REMARK                            x       y       z     vdW  Elec       q    Type
REMARK                         _______ _______ _______ _____ _____    ______ ____
ROOT
ATOM      1  N   LIG    1       -2.434   3.264   1.433  0.00  0.00    -0.600 N 
ATOM      2  C   LIG    1       -3.156   2.152   1.194  0.00  0.00    +0.520 C 
ATOM      3  O   LIG    1       -4.278   2.048   1.643  0.00  0.00    -0.510 OA
ENDROOT
BRANCH   1   4
ATOM      4  C   LIG    1       -1.126   3.440   0.797  0.00  0.00    +0.230 C 
ATOM      5  C   LIG    1       -1.128   4.674  -0.141  0.00  0.00    +0.000 C 
ATOM      6  C   LIG    1        0.357   5.081  -0.231  0.00  0.00    +0.020 C 
ATOM      7  C   LIG    1        1.042   4.532   1.032  0.00  0.00    +0.020 C 
ATOM      8  C   LIG    1       -0.050   3.810   1.848  0.00  0.00    +0.010 C 
ENDBRANCH   1   4
BRANCH   1   9
ATOM      9  C   LIG    1       -2.958   4.299   2.329  0.00  0.00    +0.350 C 
BRANCH   9  19
ATOM     10  C   LIG    1       -3.462   8.491  -0.349  0.00  0.00    +0.130 C 
ATOM     11  C   LIG    1       -4.078   7.258   0.259  0.00  0.00    +0.160 A 
ATOM     12  N   LIG    1       -5.359   7.037   0.094  0.00  0.00    -0.470 NA
ATOM     13  C   LIG    1       -5.951   5.957   0.614  0.00  0.00    +0.130 A 
ATOM     14  C   LIG    1       -7.325   5.725   0.433  0.00  0.00    +0.020 A 
ATOM     15  C   LIG    1       -7.896   4.607   0.961  0.00  0.00    +0.040 A 
ATOM     16  C   LIG    1       -7.144   3.693   1.695  0.00  0.00    -0.010 A 
ATOM     17  C   LIG    1       -5.811   3.887   1.896  0.00  0.00    +0.090 A 
ATOM     18  C   LIG    1       -5.186   5.023   1.357  0.00  0.00    -0.100 A 
ATOM     19  C   LIG    1       -3.811   5.260   1.542  0.00  0.00    -0.040 A 
ATOM     20  C   LIG    1       -3.270   6.383   0.983  0.00  0.00    -0.030 A 
ENDBRANCH   9  19
ENDBRANCH   1   9
BRANCH   2  21
ATOM     21  C   LIG    1       -2.569   1.036   0.368  0.00  0.00    +0.150 C 
BRANCH  21  22
ATOM     22  C   LIG    1       -3.612  -0.029   0.149  0.00  0.00    +0.100 A 
ATOM     23  C   LIG    1       -4.550  -0.039  -0.826  0.00  0.00    -0.110 A 
ATOM     24  C   LIG    1       -5.315  -1.200  -0.676  0.00  0.00    +0.230 A 
ATOM     25  N   LIG    1       -4.853  -1.864   0.352  0.00  0.00    -0.290 NA
ATOM     26  N   LIG    1       -3.775  -1.148   0.887  0.00  0.00    -0.470 N 
ATOM     27  H   LIG    1       -3.240  -1.408   1.654  0.00  0.00    +0.440 HD
ENDBRANCH  21  22
ENDBRANCH   2  21
TORSDOF 5
