REMARK  Name = ZINCqH0000050bwY.0
REMARK                            x       y       z     vdW  Elec       q    Type
REMARK                         _______ _______ _______ _____ _____    ______ ____
ROOT
ATOM      1  N   LIG    1        3.306   4.138   1.382  0.00  0.00    -0.610 N 
ATOM      2  C   LIG    1        4.348   4.278   2.226  0.00  0.00    +0.520 C 
ATOM      3  O   LIG    1        5.483   4.205   1.804  0.00  0.00    -0.510 OA
ENDROOT
BRANCH   1   4
ATOM      4  C   LIG    1        1.938   4.335   1.869  0.00  0.00    +0.230 C 
ATOM      5  C   LIG    1        1.777   5.764   2.427  0.00  0.00    +0.010 C 
ATOM      6  C   LIG    1        0.843   5.590   3.651  0.00  0.00    +0.020 C 
ATOM      7  C   LIG    1        1.323   4.249   4.260  0.00  0.00    +0.010 C 
ATOM      8  C   LIG    1        1.649   3.372   3.034  0.00  0.00    +0.010 C 
ENDBRANCH   1   4
BRANCH   1   9
ATOM      9  C   LIG    1        3.541   3.789  -0.021  0.00  0.00    +0.340 C 
BRANCH   9  19
ATOM     10  C   LIG    1        5.989  -0.562  -0.306  0.00  0.00    +0.130 C 
ATOM     11  C   LIG    1        4.687   0.198  -0.310  0.00  0.00    +0.160 A 
ATOM     12  N   LIG    1        3.563  -0.462  -0.447  0.00  0.00    -0.480 NA
ATOM     13  C   LIG    1        2.384   0.167  -0.457  0.00  0.00    +0.130 A 
ATOM     14  C   LIG    1        1.182  -0.546  -0.604  0.00  0.00    +0.040 A 
ATOM     15  C   LIG    1       -0.004   0.122  -0.611  0.00  0.00    +0.030 A 
ATOM     16  C   LIG    1       -0.048   1.508  -0.474  0.00  0.00    +0.020 A 
ATOM     17  C   LIG    1        1.095   2.233  -0.330  0.00  0.00    +0.020 A 
ATOM     18  C   LIG    1        2.336   1.577  -0.319  0.00  0.00    -0.090 A 
ATOM     19  C   LIG    1        3.541   2.289  -0.172  0.00  0.00    -0.050 A 
ATOM     20  C   LIG    1        4.711   1.584  -0.170  0.00  0.00    -0.010 A 
ENDBRANCH   9  19
ENDBRANCH   1   9
BRANCH   2  21
ATOM     21  C   LIG    1        4.103   4.526   3.692  0.00  0.00    +0.170 C 
BRANCH  21  22
ATOM     22  C   LIG    1        5.419   4.760   4.388  0.00  0.00    +0.080 A 
ATOM     23  N   LIG    1        6.448   3.952   4.375  0.00  0.00    -0.260 NA
ATOM     24  N   LIG    1        7.470   4.533   5.137  0.00  0.00    -0.480 N 
ATOM     25  H   LIG    1        8.348   4.154   5.297  0.00  0.00    +0.440 HD
ATOM     26  C   LIG    1        7.014   5.710   5.614  0.00  0.00    +0.240 A 
ATOM     27  C   LIG    1        5.748   5.875   5.166  0.00  0.00    -0.120 A 
ENDBRANCH  21  22
ENDBRANCH   2  21
TORSDOF 5
