REMARK  Name = ZINCrD000000ArfE.0
REMARK                            x       y       z     vdW  Elec       q    Type
REMARK                         _______ _______ _______ _____ _____    ______ ____
ROOT
ATOM      1  O   LIG    1        0.867  -0.687  -0.130  0.00  0.00    -0.480 OA
ATOM      2  C   LIG    1       -0.126   0.001  -0.015  0.00  0.00    +0.520 C 
ATOM      3  N   LIG    1       -0.016   1.344   0.009  0.00  0.00    -0.670 N 
ATOM      4  H   LIG    1       -0.814   1.895   0.032  0.00  0.00    +0.420 HD
ENDROOT
BRANCH   3   5
ATOM      5  C   LIG    1        1.249   1.943  -0.003  0.00  0.00    +0.160 A 
ATOM      6  C   LIG    1        2.287   1.362  -0.718  0.00  0.00    +0.100 A 
ATOM      7  C   LIG    1        3.533   1.958  -0.732  0.00  0.00    -0.160 A 
ATOM      8  C   LIG    1        3.750   3.127  -0.026  0.00  0.00    +0.080 A 
ATOM      9  C   LIG    1        2.720   3.706   0.692  0.00  0.00    +0.060 A 
ATOM     10  C   LIG    1        1.470   3.118   0.706  0.00  0.00    -0.030 A 
ATOM     11 CL   LIG    1        0.177   3.845   1.608  0.00  0.00    -0.050 Cl
BRANCH   7  12
ATOM     12  C   LIG    1        4.659   1.330  -1.512  0.00  0.00    +0.510 C 
ATOM     13  F   LIG    1        4.307   1.260  -2.864  0.00  0.00    -0.170 F 
ATOM     14  F   LIG    1        4.901   0.040  -1.026  0.00  0.00    -0.170 F 
ATOM     15  F   LIG    1        5.814   2.106  -1.370  0.00  0.00    -0.170 F 
ENDBRANCH   7  12
ENDBRANCH   3   5
BRANCH   2  16
ATOM     16  C   LIG    1       -1.482  -0.647   0.099  0.00  0.00    +0.260 C 
BRANCH  16  17
ATOM     17  O   LIG    1       -1.337  -2.068   0.048  0.00  0.00    -0.280 OA
BRANCH  17  18
ATOM     18  C   LIG    1       -2.474  -2.807   0.139  0.00  0.00    +0.150 A 
ATOM     19  C   LIG    1       -3.703  -2.178   0.275  0.00  0.00    -0.060 A 
ATOM     20  C   LIG    1       -4.859  -2.929   0.367  0.00  0.00    +0.100 A 
ATOM     21  C   LIG    1       -4.795  -4.308   0.324  0.00  0.00    -0.020 A 
ATOM     22  C   LIG    1       -3.568  -4.943   0.188  0.00  0.00    +0.170 A 
ATOM     23  C   LIG    1       -2.407  -4.191   0.090  0.00  0.00    +0.020 A 
BRANCH  22  24
ATOM     24  N   LIG    1       -3.503  -6.344   0.144  0.00  0.00    -0.330 N 
ATOM     25  C   LIG    1       -4.538  -7.212   0.126  0.00  0.00    +0.470 A 
ATOM     26  N   LIG    1       -4.032  -8.417   0.084  0.00  0.00    -0.330 NA
ATOM     27  N   LIG    1       -2.749  -8.370   0.074  0.00  0.00    -0.030 NA
ATOM     28  N   LIG    1       -2.348  -7.144   0.102  0.00  0.00    -0.070 NA
ENDBRANCH  22  24
ENDBRANCH  17  18
ENDBRANCH  16  17
ENDBRANCH   2  16
TORSDOF 6
