REMARK  Name = ZINCnE000001UbJS.0
REMARK                            x       y       z     vdW  Elec       q    Type
REMARK                         _______ _______ _______ _____ _____    ______ ____
ROOT
ATOM      1  C   LIG    1       -1.190  -0.714   0.010  0.00  0.00    +0.380 A 
ATOM      2  N   LIG    1       -2.388  -0.204   0.029  0.00  0.00    -0.420 NA
ATOM      3  N   LIG    1       -3.363  -1.003   0.029  0.00  0.00    -0.200 NA
ATOM      4  C   LIG    1       -3.109  -2.271   0.019  0.00  0.00    -0.030 A 
ATOM      5  S   LIG    1       -1.355  -2.471   0.002  0.00  0.00    -0.030 S 
ENDROOT
BRANCH   4   6
ATOM      6  C   LIG    1       -4.128  -3.381   0.023  0.00  0.00    +0.010 C 
ATOM      7  C   LIG    1       -3.993  -4.468  -1.045  0.00  0.00    +0.050 C 
ATOM      8  C   LIG    1       -5.117  -3.435  -1.143  0.00  0.00    +0.050 C 
BRANCH   6   9
ATOM      9  C   LIG    1       -4.631  -3.797   1.381  0.00  0.00    -0.030 A 
ATOM     10  C   LIG    1       -5.943  -4.202   1.538  0.00  0.00    +0.000 A 
ATOM     11  C   LIG    1       -6.403  -4.588   2.783  0.00  0.00    +0.000 A 
ATOM     12  C   LIG    1       -5.553  -4.562   3.873  0.00  0.00    -0.010 A 
ATOM     13  C   LIG    1       -4.242  -4.152   3.717  0.00  0.00    +0.000 A 
ATOM     14  C   LIG    1       -3.781  -3.770   2.471  0.00  0.00    +0.020 A 
ENDBRANCH   6   9
ENDBRANCH   4   6
BRANCH   1  15
ATOM     15  N   LIG    1        0.002  -0.004   0.002  0.00  0.00    -1.030 NA
BRANCH  15  17
ATOM     16  O   LIG    1       -0.582   2.052  -1.231  0.00  0.00    -1.000 OA
ATOM     17  S   LIG    1       -0.020   1.652   0.011  0.00  0.00    +2.660 S 
ATOM     18  O   LIG    1       -0.558   2.039   1.268  0.00  0.00    -1.000 OA
BRANCH  17  19
ATOM     19  C   LIG    1        1.655   2.196  -0.002  0.00  0.00    -0.730 A 
ATOM     20  C   LIG    1        2.376   2.440  -1.097  0.00  0.00    +0.130 A 
ATOM     21  C   LIG    1        3.674   2.860  -0.861  0.00  0.00    -0.020 A 
ATOM     22  C   LIG    1        4.007   2.957   0.427  0.00  0.00    -0.030 A 
ATOM     23  S   LIG    1        2.631   2.509   1.428  0.00  0.00    +0.200 S 
ENDBRANCH  17  19
ENDBRANCH  15  17
ENDBRANCH   1  15
TORSDOF 5
