REMARK  Name = ZINCrD00000hQ5B6.0
REMARK                            x       y       z     vdW  Elec       q    Type
REMARK                         _______ _______ _______ _____ _____    ______ ____
ROOT
ATOM      1  C   LIG    1       -0.923  -0.702   0.772  0.00  0.00    +0.560 C 
ATOM      2  N   LIG    1       -0.066  -0.050  -0.038  0.00  0.00    -0.590 N 
ATOM      3  C   LIG    1        0.815  -0.829  -0.882  0.00  0.00    +0.270 C 
ATOM      4  C   LIG    1        2.146  -1.096  -0.135  0.00  0.00    +0.030 C 
ATOM      5  C   LIG    1        2.904   0.163  -0.004  0.00  0.00    +0.200 C 
ATOM      6  N   LIG    1        2.228   1.196   0.780  0.00  0.00    -0.460 N 
ATOM      7  C   LIG    1        1.365   1.995  -0.064  0.00  0.00    +0.200 C 
ATOM      8  C   LIG    1       -0.067   1.428  -0.026  0.00  0.00    +0.280 C 
ATOM      9  O   LIG    1       -0.999  -1.914   0.729  0.00  0.00    -0.530 OA
ENDROOT
BRANCH   6  10
ATOM     10  C   LIG    1        3.148   1.995   1.450  0.00  0.00    +0.250 A 
ATOM     11  C   LIG    1        2.709   3.043   2.257  0.00  0.00    +0.020 A 
ATOM     12  C   LIG    1        3.666   3.810   2.903  0.00  0.00    +0.060 A 
ATOM     13  C   LIG    1        5.002   3.487   2.707  0.00  0.00    +0.040 A 
ATOM     14  N   LIG    1        5.328   2.477   1.926  0.00  0.00    -0.220 NA
ATOM     15  C   LIG    1        6.079   4.292   3.388  0.00  0.00    +0.140 C 
ATOM     16  N   LIG    1        4.447   1.760   1.329  0.00  0.00    -0.280 NA
ENDBRANCH   6  10
BRANCH   1  20
ATOM     17  C   LIG    1       -3.360   1.482   3.480  0.00  0.00    +0.160 A 
ATOM     18  C   LIG    1       -3.235   1.907   2.162  0.00  0.00    -0.080 A 
ATOM     19  C   LIG    1       -2.445   1.202   1.281  0.00  0.00    +0.080 A 
ATOM     20  C   LIG    1       -1.770   0.058   1.713  0.00  0.00    -0.170 A 
ATOM     21  C   LIG    1       -1.903  -0.370   3.037  0.00  0.00    +0.120 A 
ATOM     22  C   LIG    1       -2.689   0.345   3.913  0.00  0.00    -0.020 A 
BRANCH  17  23
ATOM     23  O   LIG    1       -4.138   2.180   4.345  0.00  0.00    -0.300 OA
BRANCH  23  24
ATOM     24  C   LIG    1       -4.700   3.405   3.869  0.00  0.00    +0.160 C 
ATOM     25  C   LIG    1       -5.991   3.110   3.102  0.00  0.00    +0.020 C 
BRANCH  24  27
ATOM     26  C   LIG    1       -3.704   4.715   5.749  0.00  0.00    +0.020 C 
ATOM     27  C   LIG    1       -5.009   4.319   5.056  0.00  0.00    +0.040 C 
ENDBRANCH  24  27
ENDBRANCH  23  24
ENDBRANCH  17  23
ENDBRANCH   1  20
TORSDOF 5
