REMARK  Name = ZINCkj00000PCbJ9.0
REMARK                            x       y       z     vdW  Elec       q    Type
REMARK                         _______ _______ _______ _____ _____    ______ ____
ROOT
ATOM      1  C   LIG    1        0.195   3.211   3.235  0.00  0.00    +0.140 C 
ATOM      2  C   LIG    1       -0.944   2.584   4.065  0.00  0.00    +0.050 C 
ATOM      3  C   LIG    1       -0.613   2.981   5.525  0.00  0.00    +0.050 C 
ATOM      4  C   LIG    1        0.931   2.868   5.569  0.00  0.00    +0.050 C 
ATOM      5  C   LIG    1        1.387   3.391   4.191  0.00  0.00    +0.170 C 
ENDROOT
BRANCH   1   9
ATOM      6  C   LIG    1       -0.139   1.338   0.059  0.00  0.00    +0.170 C 
ATOM      7  C   LIG    1        1.133   2.175  -0.193  0.00  0.00    +0.020 C 
ATOM      8  C   LIG    1        1.291   3.054   1.066  0.00  0.00    +0.160 C 
ATOM      9  N   LIG    1        0.566   2.314   2.132  0.00  0.00    -0.530 NA
ATOM     10  C   LIG    1       -0.641   1.782   1.450  0.00  0.00    +0.230 C 
BRANCH   6  11
ATOM     11  O   LIG    1        0.178  -0.055   0.067  0.00  0.00    -0.560 OA
ATOM     12  H   LIG    1        0.541  -0.381  -0.768  0.00  0.00    +0.390 HD
ENDBRANCH   6  11
ENDBRANCH   1   9
BRANCH   5  13
ATOM     13  N   LIG    1        2.538   2.614   3.713  0.00  0.00    -0.500 N 
ATOM     14  H   LIG    1        2.765   2.895   2.770  0.00  0.00    +0.420 HD
ATOM     15  H   LIG    1        2.309   1.632   3.725  0.00  0.00    +0.430 HD
BRANCH  13  16
ATOM     16  C   LIG    1        3.693   2.859   4.588  0.00  0.00    +0.250 C 
BRANCH  16  17
ATOM     17  C   LIG    1        4.891   2.050   4.089  0.00  0.00    +0.030 C 
BRANCH  17  18
ATOM     18  C   LIG    1        6.093   2.304   5.001  0.00  0.00    +0.050 C 
BRANCH  18  19
ATOM     19  C   LIG    1        7.292   1.495   4.502  0.00  0.00    -0.030 C 
ATOM     20  C   LIG    1        8.515   1.688   5.433  0.00  0.00    +0.010 C 
ATOM     21  C   LIG    1        9.710   1.805   4.466  0.00  0.00    +0.190 C 
ATOM     22  O   LIG    1        9.199   1.639   3.133  0.00  0.00    -0.370 OA
ATOM     23  C   LIG    1        7.816   2.055   3.155  0.00  0.00    +0.200 C 
ENDBRANCH  18  19
ENDBRANCH  17  18
ENDBRANCH  16  17
ENDBRANCH  13  16
ENDBRANCH   5  13
TORSDOF 7
