REMARK  Name = ZINCpe000000UOlY.0
REMARK                            x       y       z     vdW  Elec       q    Type
REMARK                         _______ _______ _______ _____ _____    ______ ____
ROOT
ATOM      1  C   LIG    1       -4.498   8.227  -1.400  0.00  0.00    +0.280 C 
ENDROOT
BRANCH   1   2
ATOM      2  N   LIG    1       -3.875   7.114  -0.680  0.00  0.00    -0.730 N 
ATOM      3  H   LIG    1       -3.867   7.107   0.290  0.00  0.00    +0.400 HD
ATOM      4  C   LIG    1       -3.313   6.098  -1.365  0.00  0.00    +0.560 C 
ATOM      5  O   LIG    1       -3.323   6.106  -2.581  0.00  0.00    -0.530 OA
BRANCH   4   6
ATOM      6  C   LIG    1       -2.684   4.975  -0.639  0.00  0.00    -0.140 A 
ATOM      7  C   LIG    1       -2.670   4.962   0.757  0.00  0.00    +0.040 A 
ATOM      8  C   LIG    1       -2.082   3.910   1.426  0.00  0.00    +0.010 A 
ATOM      9  C   LIG    1       -1.504   2.865   0.721  0.00  0.00    -0.070 A 
ATOM     10  C   LIG    1       -0.802   1.617   1.223  0.00  0.00    +0.080 C 
ATOM     11  C   LIG    1       -0.013   1.086   0.008  0.00  0.00    +0.030 C 
ATOM     12  C   LIG    1       -0.826   1.630  -1.186  0.00  0.00    +0.080 C 
ATOM     13  C   LIG    1       -1.514   2.873  -0.663  0.00  0.00    -0.100 A 
ATOM     14  C   LIG    1       -2.102   3.922  -1.344  0.00  0.00    +0.080 A 
ENDBRANCH   4   6
ENDBRANCH   1   2
BRANCH   1  15
ATOM     15  C   LIG    1       -5.055   9.237  -0.395  0.00  0.00    +0.170 C 
BRANCH  15  21
ATOM     16  C   LIG    1       -4.016  15.250  -3.160  0.00  0.00    +0.310 C 
ATOM     17  N   LIG    1       -4.406  13.882  -2.812  0.00  0.00    -0.620 N 
ATOM     18  C   LIG    1       -3.365  12.898  -2.535  0.00  0.00    +0.300 C 
ATOM     19  C   LIG    1       -3.722  11.980  -1.364  0.00  0.00    +0.300 C 
ATOM     20  N   LIG    1       -5.094  11.506  -1.523  0.00  0.00    -0.460 N 
ATOM     21  C   LIG    1       -5.696  10.382  -1.135  0.00  0.00    +0.220 A 
ATOM     22  N   LIG    1       -6.954  10.459  -1.514  0.00  0.00    -0.290 NA
ATOM     23  N   LIG    1       -7.165  11.575  -2.130  0.00  0.00    -0.200 NA
ATOM     24  C   LIG    1       -6.056  12.249  -2.179  0.00  0.00    +0.120 A 
ATOM     25  C   LIG    1       -5.722  13.566  -2.755  0.00  0.00    +0.610 C 
ATOM     26  O   LIG    1       -6.581  14.327  -3.158  0.00  0.00    -0.480 OA
ENDBRANCH  15  21
ENDBRANCH   1  15
TORSDOF 4
