REMARK  Name = ZINCpk00000xI6qH.0
REMARK                            x       y       z     vdW  Elec       q    Type
REMARK                         _______ _______ _______ _____ _____    ______ ____
ROOT
ATOM      1  C   LIG    1        1.721   6.732   1.455  0.00  0.00    +0.600 C 
ATOM      2  N   LIG    1        0.915   5.789   0.930  0.00  0.00    -0.700 N 
ATOM      3  H   LIG    1       -0.018   5.747   1.193  0.00  0.00    +0.420 HD
ATOM      4  O   LIG    1        2.890   6.785   1.125  0.00  0.00    -0.520 OA
ENDROOT
BRANCH   1   7
ATOM      5  N   LIG    1       -0.593   8.465   3.632  0.00  0.00    -0.330 N 
ATOM      6  N   LIG    1       -0.081   7.648   2.784  0.00  0.00    -0.170 NA
ATOM      7  C   LIG    1        1.185   7.704   2.433  0.00  0.00    +0.010 A 
ATOM      8  C   LIG    1        2.034   8.694   2.983  0.00  0.00    +0.140 A 
ATOM      9  C   LIG    1        1.504   9.572   3.881  0.00  0.00    -0.020 A 
ATOM     10  C   LIG    1        0.136   9.439   4.207  0.00  0.00    +0.480 A 
ATOM     11  O   LIG    1       -0.382  10.202   5.006  0.00  0.00    -0.520 OA
BRANCH   5  12
ATOM     12  C   LIG    1       -2.011   8.336   3.978  0.00  0.00    +0.320 C 
BRANCH  12  14
ATOM     13  C   LIG    1       -4.329   9.052   3.381  0.00  0.00    +0.030 C 
ATOM     14  C   LIG    1       -2.848   9.186   3.020  0.00  0.00    +0.000 C 
ENDBRANCH  12  14
ENDBRANCH   5  12
ENDBRANCH   1   7
BRANCH   2  15
ATOM     15  C   LIG    1        1.447   4.827  -0.038  0.00  0.00    +0.350 C 
ATOM     16  C   LIG    1        1.402   5.437  -1.441  0.00  0.00    +0.060 C 
BRANCH  15  17
ATOM     17  C   LIG    1        0.613   3.572  -0.010  0.00  0.00    +0.160 A 
ATOM     18  N   LIG    1       -0.693   3.508   0.006  0.00  0.00    -0.280 NA
ATOM     19  N   LIG    1       -1.066   2.276   0.019  0.00  0.00    -0.290 NA
ATOM     20  C   LIG    1       -0.018   1.502   0.010  0.00  0.00    +0.190 A 
ATOM     21  C   LIG    1        0.002  -0.004   0.002  0.00  0.00    +0.160 C 
ATOM     22  C   LIG    1        1.005  -0.497   1.050  0.00  0.00    +0.020 C 
ATOM     23  C   LIG    1        2.391  -0.601   0.421  0.00  0.00    +0.020 C 
ATOM     24  C   LIG    1        2.583   0.488  -0.634  0.00  0.00    +0.030 C 
ATOM     25  C   LIG    1        2.471   1.868   0.022  0.00  0.00    +0.290 C 
ATOM     26  N   LIG    1        1.074   2.302   0.004  0.00  0.00    -0.460 N 
ENDBRANCH  15  17
ENDBRANCH   2  15
TORSDOF 5
