REMARK  Name = ZINCkj000018RCjc.0
REMARK                            x       y       z     vdW  Elec       q    Type
REMARK                         _______ _______ _______ _____ _____    ______ ____
ROOT
ATOM      1  C   LIG    1        4.171   4.977  -1.451  0.00  0.00    +0.190 A 
ATOM      2  N   LIG    1        4.296   6.270  -1.451  0.00  0.00    -0.360 NA
ATOM      3  O   LIG    1        5.469   6.579  -1.455  0.00  0.00    +0.080 OA
ATOM      4  C   LIG    1        6.227   5.478  -1.467  0.00  0.00    +0.120 A 
ATOM      5  N   LIG    1        5.410   4.452  -1.465  0.00  0.00    -0.440 NA
ENDROOT
BRANCH   1   6
ATOM      6  C   LIG    1        2.877   4.205  -1.444  0.00  0.00    +0.180 C 
BRANCH   6   7
ATOM      7  C   LIG    1        2.451   3.937   0.001  0.00  0.00    +0.090 C 
BRANCH   7  11
ATOM      8  C   LIG    1       -1.219   1.751   0.017  0.00  0.00    +0.010 A 
ATOM      9  C   LIG    1       -0.013   1.076   0.008  0.00  0.00    +0.010 A 
ATOM     10  C   LIG    1        1.175   1.783   0.000  0.00  0.00    +0.010 A 
ATOM     11  C   LIG    1        1.156   3.165   0.008  0.00  0.00    -0.090 A 
ATOM     12  C   LIG    1       -0.050   3.840   0.023  0.00  0.00    +0.010 A 
ATOM     13  C   LIG    1       -1.238   3.133   0.029  0.00  0.00    +0.010 A 
ENDBRANCH   7  11
ENDBRANCH   6   7
ENDBRANCH   1   6
BRANCH   4  14
ATOM     14  C   LIG    1        7.733   5.426  -1.481  0.00  0.00    +0.250 C 
BRANCH  14  15
ATOM     15  C   LIG    1        8.229   5.415  -2.929  0.00  0.00    +0.150 C 
ATOM     16  C   LIG    1        9.749   5.238  -2.946  0.00  0.00    +0.290 C 
ATOM     17  O   LIG    1       10.214   5.285  -4.298  0.00  0.00    -0.350 OA
ATOM     18  C   LIG    1        9.877   6.496  -4.979  0.00  0.00    +0.270 C 
ATOM     19  C   LIG    1        8.357   6.677  -4.965  0.00  0.00    +0.250 C 
ATOM     20  N   LIG    1        7.880   6.688  -3.576  0.00  0.00    -0.510 N 
ATOM     21  H   LIG    1        8.314   7.449  -3.077  0.00  0.00    +0.430 HD
ATOM     22  H   LIG    1        6.878   6.806  -3.565  0.00  0.00    +0.430 HD
ENDBRANCH  14  15
ENDBRANCH   4  14
TORSDOF 5
