REMARK  Name = ZINCkj000005lYPZ.1
REMARK                            x       y       z     vdW  Elec       q    Type
REMARK                         _______ _______ _______ _____ _____    ______ ____
ROOT
ATOM      1  O   LIG    1        1.130   2.868   0.007  0.00  0.00    -0.490 OA
ATOM      2  C   LIG    1        1.147   1.655   0.000  0.00  0.00    +0.520 C 
ATOM      3  N   LIG    1       -0.011   0.966   0.007  0.00  0.00    -0.590 N 
ATOM      4  H   LIG    1        0.002  -0.004   0.002  0.00  0.00    +0.430 HD
ENDROOT
BRANCH   2   5
ATOM      5  C   LIG    1        2.462   0.920  -0.017  0.00  0.00    +0.200 C 
ATOM      6  N   LIG    1        3.636   1.814  -0.035  0.00  0.00    -0.510 N 
ATOM      7  C   LIG    1        3.546   1.815  -1.508  0.00  0.00    +0.310 C 
ATOM      8  H   LIG    1        4.477   1.379   0.315  0.00  0.00    +0.450 HD
ATOM      9  H   LIG    1        3.459   2.717   0.378  0.00  0.00    +0.440 HD
ATOM     10  C   LIG    1        2.876   0.442  -1.408  0.00  0.00    -0.080 C 
ATOM     11  C   LIG    1        1.710   0.243  -2.374  0.00  0.00    +0.040 C 
ATOM     12  C   LIG    1        2.268  -0.101  -3.760  0.00  0.00    +0.230 C 
ATOM     13  O   LIG    1        3.132  -1.234  -3.655  0.00  0.00    -0.370 OA
ATOM     14  C   LIG    1        4.289  -1.020  -2.844  0.00  0.00    +0.230 C 
ATOM     15  C   LIG    1        3.852  -0.731  -1.403  0.00  0.00    +0.050 C 
ENDBRANCH   2   5
BRANCH   3  16
ATOM     16  C   LIG    1       -1.224   1.644   0.017  0.00  0.00    +0.210 A 
ATOM     17  N   LIG    1       -2.384   1.082   0.019  0.00  0.00    -0.480 NA
ATOM     18  C   LIG    1       -3.459   1.878   0.029  0.00  0.00    +0.070 A 
ATOM     19  C   LIG    1       -3.152   3.179   0.034  0.00  0.00    -0.270 A 
ATOM     20  C   LIG    1       -4.408   4.031   0.043  0.00  0.00    +0.130 C 
ATOM     21  C   LIG    1       -5.536   3.076  -0.398  0.00  0.00    +0.050 C 
ATOM     22  C   LIG    1       -4.976   1.707   0.037  0.00  0.00    +0.140 C 
ATOM     23  S   LIG    1       -1.394   3.343   0.034  0.00  0.00    +0.270 S 
ENDBRANCH   3  16
TORSDOF 2
