REMARK  Name = ZINCpe000027pHcl.0
REMARK                            x       y       z     vdW  Elec       q    Type
REMARK                         _______ _______ _______ _____ _____    ______ ____
ROOT
ATOM      1  C   LIG    1        0.002  -0.004   0.002  0.00  0.00    +0.520 C 
ATOM      2  N   LIG    1       -0.016   1.344   0.009  0.00  0.00    -0.600 N 
ATOM      3  O   LIG    1        1.060  -0.596  -0.011  0.00  0.00    -0.520 OA
ENDROOT
BRANCH   1   4
ATOM      4  C   LIG    1       -1.293  -0.775   0.010  0.00  0.00    +0.130 C 
BRANCH   4   8
ATOM      5  O   LIG    1       -0.627  -4.976   2.155  0.00  0.00    -0.510 OA
ATOM      6  C   LIG    1       -0.673  -4.332   1.123  0.00  0.00    +0.550 A 
ATOM      7  C   LIG    1       -0.947  -2.943   1.159  0.00  0.00    -0.110 A 
ATOM      8  C   LIG    1       -0.997  -2.253  -0.001  0.00  0.00    +0.220 A 
ATOM      9  N   LIG    1       -0.773  -2.901  -1.185  0.00  0.00    -0.630 N 
ATOM     10  H   LIG    1       -0.804  -2.404  -2.018  0.00  0.00    +0.430 HD
ATOM     11  C   LIG    1       -0.508  -4.219  -1.205  0.00  0.00    +0.700 A 
ATOM     12  O   LIG    1       -0.311  -4.775  -2.269  0.00  0.00    -0.540 OA
ATOM     13  N   LIG    1       -0.457  -4.933  -0.065  0.00  0.00    -0.660 N 
ATOM     14  H   LIG    1       -0.264  -5.883  -0.098  0.00  0.00    +0.430 HD
ENDBRANCH   4   8
ENDBRANCH   1   4
BRANCH   2  15
ATOM     15  C   LIG    1        1.242   2.093   0.001  0.00  0.00    +0.290 C 
BRANCH  15  16
ATOM     16  C   LIG    1        1.667   2.362  -1.444  0.00  0.00    -0.020 C 
ATOM     17  C   LIG    1        0.651   3.290  -2.114  0.00  0.00    +0.060 C 
ATOM     18  C   LIG    1        1.184   3.773  -3.431  0.00  0.00    -0.060 C 
ATOM     19  C   LIG    1        2.430   3.714  -3.776  0.00  0.00    -0.050 C 
ATOM     20  C   LIG    1        3.515   3.145  -2.909  0.00  0.00    +0.050 C 
ATOM     21  C   LIG    1        3.040   3.046  -1.459  0.00  0.00    +0.030 C 
ENDBRANCH  15  16
ENDBRANCH   2  15
BRANCH   2  22
ATOM     22  C   LIG    1       -1.295   2.059   0.019  0.00  0.00    +0.290 C 
BRANCH  22  23
ATOM     23  C   LIG    1       -1.733   2.300   1.465  0.00  0.00    -0.050 C 
ATOM     24  C   LIG    1       -3.140   2.943   1.516  0.00  0.00    +0.010 C 
ATOM     25  C   LIG    1       -3.032   4.001   2.631  0.00  0.00    +0.190 C 
ATOM     26  O   LIG    1       -1.706   3.912   3.177  0.00  0.00    -0.380 OA
ATOM     27  C   LIG    1       -0.855   3.387   2.135  0.00  0.00    +0.200 C 
ENDBRANCH  22  23
ENDBRANCH   2  22
TORSDOF 6
