REMARK  Name = ZINCqH0000008X2G.0
REMARK                            x       y       z     vdW  Elec       q    Type
REMARK                         _______ _______ _______ _____ _____    ______ ____
ROOT
ATOM      1  C   LIG    1        0.397   1.690   3.410  0.00  0.00    +0.510 C 
ATOM      2  N   LIG    1       -0.161   0.940   2.439  0.00  0.00    -0.610 N 
ATOM      3  C   LIG    1       -0.190  -0.519   2.567  0.00  0.00    +0.280 C 
ATOM      4  O   LIG    1        0.421   2.898   3.304  0.00  0.00    -0.520 OA
ENDROOT
BRANCH   2   5
ATOM      5  C   LIG    1       -0.738   1.584   1.257  0.00  0.00    +0.290 C 
ATOM      6  C   LIG    1       -0.013   1.086   0.008  0.00  0.00    +0.010 C 
ATOM      7  C   LIG    1       -0.765   1.599  -1.226  0.00  0.00    +0.020 C 
ATOM      8  C   LIG    1       -2.100   0.863  -1.317  0.00  0.00    +0.080 C 
ATOM      9  C   LIG    1       -2.834   0.934  -0.003  0.00  0.00    -0.070 A 
ATOM     10  C   LIG    1       -4.195   0.658  -0.007  0.00  0.00    +0.000 A 
ATOM     11  C   LIG    1       -4.923   0.702   1.164  0.00  0.00    +0.010 A 
ATOM     12  C   LIG    1       -4.293   1.022   2.352  0.00  0.00    +0.000 A 
ATOM     13  C   LIG    1       -2.941   1.298   2.358  0.00  0.00    +0.020 A 
ATOM     14  C   LIG    1       -2.208   1.258   1.179  0.00  0.00    -0.090 A 
ENDBRANCH   2   5
BRANCH   1  15
ATOM     15  C   LIG    1        0.991   1.028   4.627  0.00  0.00    +0.060 C 
BRANCH  15  17
ATOM     16  C   LIG    1        2.043   1.437   6.856  0.00  0.00    +0.040 C 
ATOM     17  C   LIG    1        1.553   2.098   5.566  0.00  0.00    +0.260 C 
BRANCH  17  18
ATOM     18  N   LIG    1        2.671   2.782   4.912  0.00  0.00    -0.710 N 
ATOM     19  H   LIG    1        3.176   2.332   4.217  0.00  0.00    +0.400 HD
ATOM     20  C   LIG    1        2.999   4.037   5.278  0.00  0.00    +0.570 C 
ATOM     21  O   LIG    1        2.367   4.601   6.150  0.00  0.00    -0.540 OA
BRANCH  20  22
ATOM     22  C   LIG    1        4.128   4.728   4.619  0.00  0.00    -0.130 A 
ATOM     23  C   LIG    1        4.859   4.081   3.621  0.00  0.00    +0.030 A 
ATOM     24  C   LIG    1        5.909   4.733   3.007  0.00  0.00    +0.000 A 
ATOM     25  C   LIG    1        6.243   6.022   3.385  0.00  0.00    +0.030 A 
ATOM     26  C   LIG    1        5.525   6.667   4.376  0.00  0.00    +0.000 A 
ATOM     27  C   LIG    1        4.470   6.028   4.995  0.00  0.00    +0.080 A 
ENDBRANCH  20  22
ENDBRANCH  17  18
ENDBRANCH  15  17
ENDBRANCH   1  15
TORSDOF 5
