REMARK  Name = ZINCpk00000k8RTc.0
REMARK                            x       y       z     vdW  Elec       q    Type
REMARK                         _______ _______ _______ _____ _____    ______ ____
ROOT
ATOM      1  C   LIG    1       -1.630   6.526   3.212  0.00  0.00    +0.530 C 
ATOM      2  N   LIG    1       -1.947   7.790   2.867  0.00  0.00    -0.710 N 
ATOM      3  H   LIG    1       -2.396   7.965   2.026  0.00  0.00    +0.400 HD
ATOM      4  O   LIG    1       -1.069   6.306   4.264  0.00  0.00    -0.530 OA
ENDROOT
BRANCH   1   7
ATOM      5  N   LIG    1       -2.723   3.117   2.503  0.00  0.00    -0.610 N 
ATOM      6  C   LIG    1       -1.662   4.024   2.955  0.00  0.00    +0.310 C 
ATOM      7  C   LIG    1       -1.974   5.385   2.288  0.00  0.00    +0.000 C 
ATOM      8  C   LIG    1       -3.502   5.286   2.076  0.00  0.00    +0.070 C 
ATOM      9  C   LIG    1       -3.773   3.799   2.013  0.00  0.00    +0.520 C 
ATOM     10  O   LIG    1       -4.788   3.295   1.582  0.00  0.00    -0.530 OA
BRANCH   5  11
ATOM     11  C   LIG    1       -2.650   1.656   2.581  0.00  0.00    +0.320 C 
BRANCH  11  12
ATOM     12  C   LIG    1       -2.037   1.106   1.292  0.00  0.00    +0.150 C 
BRANCH  12  14
ATOM     13  C   LIG    1       -0.013   1.086   0.008  0.00  0.00    +0.200 C 
ATOM     14  O   LIG    1       -0.682   1.547   1.184  0.00  0.00    -0.390 OA
ENDBRANCH  12  14
ENDBRANCH  11  12
ENDBRANCH   5  11
ENDBRANCH   1   7
BRANCH   2  15
ATOM     15  C   LIG    1       -1.613   8.899   3.765  0.00  0.00    +0.230 C 
ATOM     16  C   LIG    1       -1.496  10.255   3.050  0.00  0.00    +0.050 C 
ATOM     17  C   LIG    1       -3.002  10.431   3.306  0.00  0.00    +0.020 C 
ATOM     18  C   LIG    1       -2.829   9.479   4.505  0.00  0.00    +0.040 C 
BRANCH  17  19
ATOM     19  C   LIG    1       -3.388  11.835   3.698  0.00  0.00    -0.040 A 
ATOM     20  C   LIG    1       -2.852  12.403   4.840  0.00  0.00    +0.020 A 
ATOM     21  C   LIG    1       -3.197  13.688   5.201  0.00  0.00    +0.060 A 
ATOM     22  C   LIG    1       -4.097  14.413   4.417  0.00  0.00    -0.030 A 
ATOM     23  C   LIG    1       -4.638  13.832   3.269  0.00  0.00    +0.060 A 
ATOM     24  C   LIG    1       -4.280  12.547   2.916  0.00  0.00    +0.010 A 
BRANCH  22  25
ATOM     25  C   LIG    1       -4.464  15.746   4.790  0.00  0.00    +0.250 C 
ATOM     26  N   LIG    1       -4.755  16.804   5.085  0.00  0.00    -0.410 NA
ENDBRANCH  22  25
ENDBRANCH  17  19
ENDBRANCH   2  15
TORSDOF 7
