REMARK  Name = ZINC4500000040bd.0
REMARK                            x       y       z     vdW  Elec       q    Type
REMARK                         _______ _______ _______ _____ _____    ______ ____
ROOT
ATOM      1  N   LIG    1        1.143   1.901   0.001  0.00  0.00    -0.870 N 
ATOM      2  H   LIG    1        1.130   2.871   0.007  0.00  0.00    +0.400 HD
ATOM      3  H   LIG    1        1.990   1.428  -0.009  0.00  0.00    +0.420 HD
ATOM      4  C   LIG    1       -0.014   1.212   0.009  0.00  0.00    +0.710 C 
ATOM      5  O   LIG    1        0.002  -0.004   0.002  0.00  0.00    -0.600 OA
ATOM      6  N   LIG    1       -1.191   1.870   0.018  0.00  0.00    -0.870 N 
ATOM      7  H   LIG    1       -1.204   2.840   0.023  0.00  0.00    +0.400 HD
ATOM      8  H   LIG    1       -2.024   1.373   0.019  0.00  0.00    +0.420 HD
ENDROOT
TORSDOF 0
