REMARK  Name = ZINCkj00000y7Ayf.0
REMARK                            x       y       z     vdW  Elec       q    Type
REMARK                         _______ _______ _______ _____ _____    ______ ____
ROOT
ATOM      1  O   LIG    1        0.002  -0.004   0.002  0.00  0.00    -0.930 OA
ATOM      2  S   LIG    1       -0.017   1.417   0.010  0.00  0.00    +2.700 S 
ATOM      3  O   LIG    1        1.162   2.210   0.003  0.00  0.00    -0.930 OA
ENDROOT
BRANCH   2   4
ATOM      4  C   LIG    1       -0.957   1.909  -1.397  0.00  0.00    -0.710 A 
ATOM      5  C   LIG    1       -0.464   2.876  -2.253  0.00  0.00    +0.180 A 
ATOM      6  C   LIG    1       -1.201   3.264  -3.358  0.00  0.00    +0.050 A 
ATOM      7  C   LIG    1       -2.434   2.681  -3.607  0.00  0.00    +0.160 A 
ATOM      8  C   LIG    1       -2.927   1.713  -2.750  0.00  0.00    -0.010 A 
ATOM      9  F   LIG    1       -3.154   3.058  -4.687  0.00  0.00    -0.100 F 
ATOM     10  F   LIG    1       -0.719   4.209  -4.194  0.00  0.00    -0.110 F 
ATOM     11  C   LIG    1       -2.186   1.323  -1.648  0.00  0.00    +0.210 A 
ATOM     12  F   LIG    1       -2.665   0.375  -0.814  0.00  0.00    -0.110 F 
ENDBRANCH   2   4
BRANCH   2  13
ATOM     13  N   LIG    1       -0.875   1.865   1.354  0.00  0.00    -1.110 NA
ATOM     14  H   LIG    1       -0.517   2.538   1.955  0.00  0.00    +0.430 HD
BRANCH  13  15
ATOM     15  C   LIG    1       -2.173   1.247   1.634  0.00  0.00    +0.300 C 
BRANCH  15  16
ATOM     16  C   LIG    1       -2.575   1.540   3.081  0.00  0.00    -0.010 C 
ATOM     17  C   LIG    1       -1.592   0.855   4.034  0.00  0.00    +0.050 C 
ATOM     18  C   LIG    1       -2.047   1.089   5.477  0.00  0.00    +0.060 C 
ATOM     19  C   LIG    1       -3.476   0.568   5.646  0.00  0.00    +0.250 C 
ATOM     20  N   LIG    1       -4.372   1.280   4.727  0.00  0.00    -0.500 N 
ATOM     21  H   LIG    1       -5.321   0.973   4.878  0.00  0.00    +0.430 HD
ATOM     22  H   LIG    1       -4.311   2.272   4.900  0.00  0.00    +0.430 HD
ATOM     23  C   LIG    1       -3.985   1.003   3.338  0.00  0.00    +0.270 C 
ENDBRANCH  15  16
ENDBRANCH  13  15
ENDBRANCH   2  13
TORSDOF 4
