REMARK  Name = ZINCpk00000eaD9J.0
REMARK                            x       y       z     vdW  Elec       q    Type
REMARK                         _______ _______ _______ _____ _____    ______ ____
ROOT
ATOM      1  C   LIG    1       -4.676   2.763  -2.595  0.00  0.00    +0.050 C 
ATOM      2  C   LIG    1       -3.595   2.708  -1.513  0.00  0.00    +0.230 C 
ENDROOT
BRANCH   2   3
ATOM      3  N   LIG    1       -3.311   1.311  -1.176  0.00  0.00    -1.110 NA
ATOM      4  H   LIG    1       -4.034   0.718  -0.917  0.00  0.00    +0.420 HD
BRANCH   3   5
ATOM      5  S   LIG    1       -1.756   0.744  -1.239  0.00  0.00    +2.770 S 
ATOM      6  O   LIG    1       -0.919   1.823  -0.849  0.00  0.00    -0.970 OA
ATOM      7  O   LIG    1       -1.761  -0.514  -0.578  0.00  0.00    -0.980 OA
BRANCH   5   8
ATOM      8  N   LIG    1       -1.411   0.434  -2.829  0.00  0.00    -1.000 NA
ATOM      9  C   LIG    1       -0.790   1.474  -3.618  0.00  0.00    +0.280 C 
ATOM     10  C   LIG    1       -1.884   2.356  -4.269  0.00  0.00    -0.010 C 
ATOM     11  C   LIG    1       -2.570   1.612  -5.338  0.00  0.00    +0.000 C 
ATOM     12  C   LIG    1       -3.319   0.372  -4.860  0.00  0.00    +0.010 C 
ATOM     13  C   LIG    1       -2.364  -0.793  -4.790  0.00  0.00    +0.020 C 
ATOM     14  C   LIG    1       -1.750  -0.891  -3.382  0.00  0.00    +0.270 C 
ENDBRANCH   5   8
ENDBRANCH   3   5
ENDBRANCH   2   3
BRANCH   2  15
ATOM     15  C   LIG    1       -4.085   3.444  -0.265  0.00  0.00    +0.330 C 
BRANCH  15  16
ATOM     16  N   LIG    1       -3.085   3.322   0.799  0.00  0.00    -0.430 N 
ATOM     17  N   LIG    1       -3.205   2.289   1.729  0.00  0.00    -0.240 NA
ATOM     18  C   LIG    1       -2.356   2.113   2.696  0.00  0.00    +0.310 A 
ATOM     19  C   LIG    1       -1.222   3.025   2.850  0.00  0.00    -0.070 A 
ATOM     20  C   LIG    1       -0.290   2.875   3.879  0.00  0.00    +0.040 A 
ATOM     21  C   LIG    1        0.759   3.761   3.979  0.00  0.00    +0.040 A 
ATOM     22  C   LIG    1        0.901   4.801   3.070  0.00  0.00    +0.030 A 
ATOM     23  C   LIG    1       -0.006   4.969   2.047  0.00  0.00    +0.080 A 
ATOM     24  C   LIG    1       -1.077   4.085   1.925  0.00  0.00    -0.110 A 
ATOM     25  C   LIG    1       -2.074   4.214   0.856  0.00  0.00    +0.540 A 
ATOM     26  O   LIG    1       -1.992   5.111   0.035  0.00  0.00    -0.520 OA
ENDBRANCH  15  16
ENDBRANCH   2  15
TORSDOF 5
