REMARK  Name = ZINCqH0000006gal.0
REMARK                            x       y       z     vdW  Elec       q    Type
REMARK                         _______ _______ _______ _____ _____    ______ ____
ROOT
ATOM      1  C   LIG    1        4.067   2.441   1.391  0.00  0.00    +0.420 C 
ATOM      2  O   LIG    1        3.214   2.543   2.246  0.00  0.00    -0.410 OA
ENDROOT
BRANCH   1   7
ATOM      3  C   LIG    1        7.178   3.186   3.357  0.00  0.00    +0.120 A 
ATOM      4  C   LIG    1        8.150   3.068   2.372  0.00  0.00    -0.030 A 
ATOM      5  C   LIG    1        7.793   2.747   1.075  0.00  0.00    +0.050 A 
ATOM      6  C   LIG    1        6.469   2.542   0.749  0.00  0.00    +0.020 A 
ATOM      7  C   LIG    1        5.482   2.659   1.734  0.00  0.00    -0.130 A 
ATOM      8  C   LIG    1        5.845   2.989   3.042  0.00  0.00    +0.060 A 
BRANCH   3   9
ATOM      9  O   LIG    1        7.536   3.502   4.630  0.00  0.00    -0.300 OA
BRANCH   9  10
ATOM     10  C   LIG    1        8.929   3.698   4.882  0.00  0.00    +0.210 C 
BRANCH  10  11
ATOM     11  C   LIG    1        9.136   4.043   6.358  0.00  0.00    +0.190 C 
BRANCH  11  13
ATOM     12  C   LIG    1        8.914   3.144   8.570  0.00  0.00    +0.200 C 
ATOM     13  O   LIG    1        8.759   2.926   7.166  0.00  0.00    -0.390 OA
ENDBRANCH  11  13
ENDBRANCH  10  11
ENDBRANCH   9  10
ENDBRANCH   3   9
ENDBRANCH   1   7
BRANCH   1  14
ATOM     14  C   LIG    1        3.679   2.092  -0.023  0.00  0.00    +0.180 C 
BRANCH  14  15
ATOM     15  C   LIG    1        2.371   1.344  -0.014  0.00  0.00    +0.170 A 
ATOM     16  N   LIG    1        2.385   0.033  -0.021  0.00  0.00    -0.460 NA
ATOM     17  C   LIG    1        1.251  -0.674  -0.013  0.00  0.00    +0.130 A 
ATOM     18  C   LIG    1        1.272  -2.079  -0.021  0.00  0.00    +0.050 A 
ATOM     19  C   LIG    1        0.101  -2.773  -0.014  0.00  0.00    +0.030 A 
ATOM     20  C   LIG    1       -1.126  -2.112   0.001  0.00  0.00    +0.020 A 
ATOM     21  C   LIG    1       -1.186  -0.751   0.009  0.00  0.00    +0.030 A 
ATOM     22  C   LIG    1        0.002  -0.004   0.002  0.00  0.00    -0.100 A 
ATOM     23  C   LIG    1       -0.017   1.404   0.010  0.00  0.00    +0.100 A 
ATOM     24  C   LIG    1        1.178   2.064   0.002  0.00  0.00    -0.020 A 
ENDBRANCH  14  15
BRANCH  14  25
ATOM     25  C   LIG    1        3.534   3.326  -0.811  0.00  0.00    +0.210 C 
ATOM     26  N   LIG    1        3.422   4.279  -1.420  0.00  0.00    -0.380 NA
ENDBRANCH  14  25
ENDBRANCH   1  14
TORSDOF 8
