REMARK  Name = ZINCrH000004oLKs.0
REMARK                            x       y       z     vdW  Elec       q    Type
REMARK                         _______ _______ _______ _____ _____    ______ ____
ROOT
ATOM      1  C   LIG    1        2.568  -0.295  -0.153  0.00  0.00    -0.150 A 
ATOM      2  C   LIG    1        2.654   1.058  -0.483  0.00  0.00    +0.110 A 
ATOM      3  C   LIG    1        1.510   1.828  -0.527  0.00  0.00    +0.000 A 
ATOM      4  C   LIG    1        0.280   1.261  -0.246  0.00  0.00    +0.160 A 
ATOM      5  C   LIG    1        0.188  -0.081   0.081  0.00  0.00    -0.680 A 
ATOM      6  C   LIG    1        1.324  -0.861   0.129  0.00  0.00    +0.190 A 
ENDROOT
BRANCH   1  13
ATOM      7  C   LIG    1        5.841   2.226   2.687  0.00  0.00    +0.030 C 
ATOM      8  C   LIG    1        5.659   0.786   2.203  0.00  0.00    -0.030 C 
ATOM      9  C   LIG    1        7.024   0.100   2.114  0.00  0.00    +0.030 C 
ATOM     10  C   LIG    1        6.840  -1.350   1.662  0.00  0.00    -0.020 C 
ATOM     11  C   LIG    1        6.197  -1.370   0.271  0.00  0.00    +0.290 C 
ATOM     12  N   LIG    1        4.954  -0.588   0.313  0.00  0.00    -0.600 N 
ATOM     13  C   LIG    1        3.791  -1.126  -0.103  0.00  0.00    +0.560 C 
ATOM     14  O   LIG    1        3.746  -2.293  -0.438  0.00  0.00    -0.520 OA
ATOM     15  C   LIG    1        5.934  -2.084   2.653  0.00  0.00    +0.030 C 
ATOM     16  C   LIG    1        5.004   0.793   0.813  0.00  0.00    +0.270 C 
ENDBRANCH   1  13
BRANCH   5  17
ATOM     17  S   LIG    1       -1.384  -0.793   0.438  0.00  0.00    +2.690 S 
ATOM     18  O   LIG    1       -2.225   0.276   0.850  0.00  0.00    -0.940 OA
ATOM     19  O   LIG    1       -1.132  -1.938   1.241  0.00  0.00    -0.940 OA
BRANCH  17  20
ATOM     20  N   LIG    1       -2.005  -1.352  -0.992  0.00  0.00    -1.050 N 
ATOM     21  H   LIG    1       -2.847  -1.004  -1.324  0.00  0.00    +0.430 HD
BRANCH  20  22
ATOM     22  C   LIG    1       -1.314  -2.325  -1.722  0.00  0.00    +0.120 A 
ATOM     23  C   LIG    1       -0.612  -3.323  -1.060  0.00  0.00    +0.020 A 
ATOM     24  C   LIG    1        0.064  -4.287  -1.784  0.00  0.00    +0.050 A 
ATOM     25  C   LIG    1        0.053  -4.251  -3.165  0.00  0.00    +0.040 A 
ATOM     26  C   LIG    1       -0.640  -3.255  -3.830  0.00  0.00    +0.010 A 
ATOM     27  C   LIG    1       -1.324  -2.291  -3.112  0.00  0.00    +0.080 A 
ATOM     28  F   LIG    1       -2.000  -1.318  -3.761  0.00  0.00    -0.130 F 
ENDBRANCH  20  22
ENDBRANCH  17  20
ENDBRANCH   5  17
TORSDOF 4
