REMARK  Name = ZINCpk00000xIeCF.0
REMARK                            x       y       z     vdW  Elec       q    Type
REMARK                         _______ _______ _______ _____ _____    ______ ____
ROOT
ATOM      1  C   LIG    1        4.597   3.848  -3.100  0.00  0.00    +0.160 A 
ATOM      2  C   LIG    1        4.834   2.782  -3.970  0.00  0.00    +0.040 A 
ATOM      3  C   LIG    1        5.217   3.031  -5.272  0.00  0.00    +0.200 A 
ATOM      4  C   LIG    1        5.366   4.333  -5.716  0.00  0.00    -0.670 A 
ATOM      5  C   LIG    1        5.132   5.394  -4.859  0.00  0.00    +0.230 A 
ATOM      6  C   LIG    1        4.744   5.159  -3.556  0.00  0.00    -0.020 A 
ENDROOT
BRANCH   4   7
ATOM      7  S   LIG    1        5.855   4.642  -7.380  0.00  0.00    +2.710 S 
ATOM      8  O   LIG    1        6.533   3.474  -7.822  0.00  0.00    -0.950 OA
ATOM      9  O   LIG    1        6.444   5.935  -7.392  0.00  0.00    -0.950 OA
BRANCH   7  10
ATOM     10  N   LIG    1        4.472   4.750  -8.286  0.00  0.00    -1.250 NA
ATOM     11  H   LIG    1        4.529   4.919  -9.239  0.00  0.00    +0.430 HD
ATOM     12  H   LIG    1        3.606   4.645  -7.862  0.00  0.00    +0.420 HD
ENDBRANCH   7  10
ENDBRANCH   4   7
BRANCH   6  13
ATOM     13  N   LIG    1        4.488   6.295  -2.642  0.00  0.00    +0.020 N 
ATOM     14  O   LIG    1        4.150   6.087  -1.491  0.00  0.00    -0.110 OA
ATOM     15  O   LIG    1        4.617   7.439  -3.042  0.00  0.00    -0.170 OA
ENDBRANCH   6  13
BRANCH   1  17
ATOM     16  N   LIG    1        4.082   2.442  -1.405  0.00  0.00    -0.180 NA
ATOM     17  N   LIG    1        4.217   3.607  -1.806  0.00  0.00    -0.190 NA
BRANCH  16  18
ATOM     18  C   LIG    1        3.676   2.185  -0.021  0.00  0.00    +0.290 C 
BRANCH  18  22
ATOM     19  C   LIG    1        0.002  -0.004   0.002  0.00  0.00    +0.110 A 
ATOM     20  C   LIG    1        1.213  -0.677  -0.013  0.00  0.00    -0.060 A 
ATOM     21  C   LIG    1        2.399   0.034  -0.021  0.00  0.00    +0.070 A 
ATOM     22  C   LIG    1        2.380   1.415  -0.013  0.00  0.00    -0.110 A 
ATOM     23  C   LIG    1        1.175   2.094   0.002  0.00  0.00    +0.050 A 
ATOM     24  C   LIG    1       -0.017   1.388   0.010  0.00  0.00    +0.080 A 
BRANCH  19  26
ATOM     25  C   LIG    1       -1.069  -2.127   0.000  0.00  0.00    +0.240 C 
ATOM     26  O   LIG    1       -1.165  -0.702   0.009  0.00  0.00    -0.310 OA
ENDBRANCH  19  26
BRANCH  24  27
ATOM     27  O   LIG    1       -1.203   2.053   0.019  0.00  0.00    -0.480 OA
ATOM     28  H   LIG    1       -1.542   2.241   0.905  0.00  0.00    +0.390 HD
ENDBRANCH  24  27
ENDBRANCH  18  22
ENDBRANCH  16  18
ENDBRANCH   1  17
TORSDOF 8
