REMARK  Name = ZINCrD00000F5LkD.0
REMARK                            x       y       z     vdW  Elec       q    Type
REMARK                         _______ _______ _______ _____ _____    ______ ____
ROOT
ATOM      1  N   LIG    1       -2.210  -2.458  -1.804  0.00  0.00    -0.980 NA
ENDROOT
BRANCH   1   2
ATOM      2  S   LIG    1       -3.140  -3.825  -1.721  0.00  0.00    +2.670 S 
ATOM      3  O   LIG    1       -3.092  -4.422  -3.010  0.00  0.00    -0.940 OA
ATOM      4  O   LIG    1       -4.353  -3.448  -1.084  0.00  0.00    -0.950 OA
BRANCH   2   6
ATOM      5  C   LIG    1       -2.948  -5.375   0.445  0.00  0.00    +0.220 C 
ATOM      6  C   LIG    1       -2.329  -4.942  -0.625  0.00  0.00    -0.580 C 
ENDBRANCH   2   6
ENDBRANCH   1   2
BRANCH   1   7
ATOM      7  C   LIG    1       -2.439  -1.358  -0.863  0.00  0.00    +0.260 C 
ATOM      8  C   LIG    1       -2.935  -0.129  -1.626  0.00  0.00    +0.040 C 
BRANCH   7   9
ATOM      9  C   LIG    1       -1.131  -1.020  -0.146  0.00  0.00    +0.080 C 
BRANCH   9  10
ATOM     10  C   LIG    1       -0.707  -2.189   0.705  0.00  0.00    -0.050 A 
ATOM     11  C   LIG    1       -1.230  -2.341   1.977  0.00  0.00    +0.020 A 
ATOM     12  C   LIG    1       -0.851  -3.411   2.759  0.00  0.00    +0.060 A 
ATOM     13  C   LIG    1        0.072  -4.338   2.269  0.00  0.00    -0.030 A 
ATOM     14  C   LIG    1        0.600  -4.176   0.987  0.00  0.00    +0.060 A 
ATOM     15  C   LIG    1        0.207  -3.104   0.213  0.00  0.00    +0.010 A 
BRANCH  13  16
ATOM     16  C   LIG    1        0.476  -5.448   3.079  0.00  0.00    +0.250 C 
ATOM     17  N   LIG    1        0.796  -6.329   3.720  0.00  0.00    -0.410 NA
ENDBRANCH  13  16
ENDBRANCH   9  10
ENDBRANCH   7   9
ENDBRANCH   1   7
BRANCH   1  18
ATOM     18  C   LIG    1       -1.159  -2.347  -2.818  0.00  0.00    +0.390 C 
BRANCH  18  19
ATOM     19  C   LIG    1       -1.705  -1.640  -4.032  0.00  0.00    +0.070 A 
ATOM     20  C   LIG    1       -3.000  -1.610  -4.423  0.00  0.00    -0.120 A 
ATOM     21  C   LIG    1       -3.079  -0.849  -5.593  0.00  0.00    +0.230 A 
ATOM     22  N   LIG    1       -1.875  -0.433  -5.893  0.00  0.00    -0.290 NA
ATOM     23  N   LIG    1       -0.989  -0.924  -4.925  0.00  0.00    -0.360 N 
BRANCH  23  24
ATOM     24  C   LIG    1        0.457  -0.696  -4.885  0.00  0.00    +0.320 C 
BRANCH  24  25
ATOM     25  C   LIG    1        1.177  -1.872  -5.547  0.00  0.00    -0.030 C 
ATOM     26  C   LIG    1        0.815  -1.921  -7.033  0.00  0.00    +0.030 C 
ATOM     27  C   LIG    1        2.690  -1.695  -5.397  0.00  0.00    +0.030 C 
ENDBRANCH  24  25
ENDBRANCH  23  24
ENDBRANCH  18  19
ENDBRANCH   1  18
TORSDOF 10
