REMARK  Name = ZINCpe00000MHy6e.0
REMARK                            x       y       z     vdW  Elec       q    Type
REMARK                         _______ _______ _______ _____ _____    ______ ____
ROOT
ATOM      1  C   LIG    1        1.272   7.314   1.506  0.00  0.00    +0.530 C 
ATOM      2  N   LIG    1        1.564   6.019   1.273  0.00  0.00    -0.730 N 
ATOM      3  H   LIG    1        1.353   5.346   1.939  0.00  0.00    +0.400 HD
ATOM      4  O   LIG    1        1.536   8.154   0.673  0.00  0.00    -0.510 OA
ENDROOT
BRANCH   1  12
ATOM      5  C   LIG    1        2.736   7.783   6.905  0.00  0.00    +0.200 C 
ATOM      6  C   LIG    1        1.489   8.431   6.361  0.00  0.00    +0.190 A 
ATOM      7  N   LIG    1        0.606   9.116   7.044  0.00  0.00    -0.290 NA
ATOM      8  N   LIG    1       -0.332   9.524   6.258  0.00  0.00    -0.270 NA
ATOM      9  C   LIG    1       -0.089   9.122   5.050  0.00  0.00    +0.140 A 
ATOM     10  C   LIG    1       -0.885   9.350   3.790  0.00  0.00    +0.370 C 
ATOM     11  N   LIG    1       -0.021   9.030   2.640  0.00  0.00    -0.510 NA
ATOM     12  C   LIG    1        0.618   7.716   2.803  0.00  0.00    +0.170 C 
ATOM     13  C   LIG    1        1.679   7.789   3.909  0.00  0.00    +0.290 C 
ATOM     14  C   LIG    1        0.983  10.081   2.429  0.00  0.00    +0.210 C 
ATOM     15  N   LIG    1        1.072   8.416   5.083  0.00  0.00    -0.470 N 
ENDBRANCH   1  12
BRANCH   2  16
ATOM     16  C   LIG    1        2.200   5.627   0.012  0.00  0.00    +0.310 C 
BRANCH  16  17
ATOM     17  C   LIG    1        2.421   4.113   0.002  0.00  0.00    +0.210 C 
BRANCH  17  18
ATOM     18  O   LIG    1        1.156   3.447   0.010  0.00  0.00    -0.300 OA
BRANCH  18  19
ATOM     19  C   LIG    1        1.175   2.088   0.002  0.00  0.00    +0.150 A 
ATOM     20  C   LIG    1       -0.017   1.378   0.010  0.00  0.00    +0.020 A 
ATOM     21  C   LIG    1        0.002  -0.004   0.002  0.00  0.00    +0.080 A 
ATOM     22  C   LIG    1        1.209  -0.681  -0.013  0.00  0.00    +0.030 A 
ATOM     23  C   LIG    1        2.402   0.027  -0.021  0.00  0.00    +0.110 A 
ATOM     24  F   LIG    1        3.580  -0.634  -0.036  0.00  0.00    -0.120 F 
ATOM     25  F   LIG    1        1.226  -2.031  -0.021  0.00  0.00    -0.130 F 
ATOM     26  C   LIG    1        2.385   1.410  -0.013  0.00  0.00    -0.070 A 
ENDBRANCH  18  19
ENDBRANCH  17  18
ENDBRANCH  16  17
ENDBRANCH   2  16
TORSDOF 5
