REMARK  Name = ZINCrH000004oSQA.0
REMARK                            x       y       z     vdW  Elec       q    Type
REMARK                         _______ _______ _______ _____ _____    ______ ____
ROOT
ATOM      1  C   LIG    1        2.911   4.994   0.941  0.00  0.00    +0.560 C 
ATOM      2  N   LIG    1        3.843   5.958   0.805  0.00  0.00    -0.720 N 
ATOM      3  H   LIG    1        4.767   5.719   0.634  0.00  0.00    +0.400 HD
ATOM      4  O   LIG    1        1.775   5.287   1.262  0.00  0.00    -0.490 OA
ENDROOT
BRANCH   1  15
ATOM      5  C   LIG    1       -0.196   2.392  -0.828  0.00  0.00    +0.050 C 
ATOM      6  C   LIG    1       -0.003   2.060   0.653  0.00  0.00    +0.230 C 
ATOM      7  O   LIG    1        1.032   2.884   1.195  0.00  0.00    -0.270 OA
ATOM      8  C   LIG    1        2.305   2.579   0.838  0.00  0.00    +0.140 A 
ATOM      9  C   LIG    1        2.655   1.249   0.608  0.00  0.00    +0.080 A 
ATOM     10  N   LIG    1        1.681   0.251   0.752  0.00  0.00    -0.660 N 
ATOM     11  H   LIG    1        1.938  -0.682   0.819  0.00  0.00    +0.420 HD
ATOM     12  C   LIG    1        3.950   0.926   0.242  0.00  0.00    +0.040 A 
ATOM     13  C   LIG    1        4.903   1.922   0.104  0.00  0.00    +0.020 A 
ATOM     14  C   LIG    1        4.573   3.241   0.329  0.00  0.00    +0.060 A 
ATOM     15  C   LIG    1        3.268   3.583   0.699  0.00  0.00    -0.130 A 
ATOM     16  C   LIG    1        0.378   0.608   0.792  0.00  0.00    +0.500 C 
ATOM     17  O   LIG    1       -0.480  -0.235   0.941  0.00  0.00    -0.500 OA
ENDBRANCH   1  15
BRANCH   2  18
ATOM     18  C   LIG    1        3.460   7.368   0.915  0.00  0.00    +0.220 C 
ATOM     19  C   LIG    1        2.407   7.730  -0.162  0.00  0.00    +0.030 C 
ATOM     20  C   LIG    1        3.275   7.952  -1.426  0.00  0.00    +0.020 C 
ATOM     21  C   LIG    1        4.543   8.652  -0.896  0.00  0.00    +0.010 C 
ATOM     22  C   LIG    1        4.661   8.280   0.593  0.00  0.00    +0.030 C 
BRANCH  18  23
ATOM     23  C   LIG    1        2.929   7.662   2.295  0.00  0.00    -0.080 A 
ATOM     24  C   LIG    1        2.162   8.791   2.513  0.00  0.00    +0.050 A 
ATOM     25  C   LIG    1        1.670   9.059   3.776  0.00  0.00    -0.010 A 
ATOM     26  C   LIG    1        1.955   8.202   4.826  0.00  0.00    +0.100 A 
ATOM     27  C   LIG    1        2.728   7.075   4.607  0.00  0.00    -0.020 A 
ATOM     28  F   LIG    1        1.479   8.466   6.063  0.00  0.00    -0.140 F 
ATOM     29  C   LIG    1        3.215   6.806   3.342  0.00  0.00    +0.050 A 
ENDBRANCH  18  23
ENDBRANCH   2  18
TORSDOF 3
