REMARK  Name = ZINCah0000002xXa.0
REMARK                            x       y       z     vdW  Elec       q    Type
REMARK                         _______ _______ _______ _____ _____    ______ ____
ROOT
ATOM      1  C   LIG    1        0.002  -0.004   0.002  0.00  0.00    +0.310 A 
ATOM      2  N   LIG    1        1.149  -0.660  -0.013  0.00  0.00    -0.530 NA
ATOM      3  C   LIG    1        2.309  -0.030  -0.020  0.00  0.00    +0.160 A 
ATOM      4  C   LIG    1        2.368   1.348  -0.013  0.00  0.00    -0.050 A 
ATOM      5  C   LIG    1        1.187   2.079   0.002  0.00  0.00    +0.090 A 
ATOM      6  C   LIG    1        3.587  -0.828  -0.037  0.00  0.00    +0.130 C 
ATOM      7  C   LIG    1       -0.017   1.390   0.010  0.00  0.00    +0.030 A 
ENDROOT
BRANCH   1   9
ATOM      8  C   LIG    1       -1.081  -2.119   0.001  0.00  0.00    +0.260 C 
ATOM      9  O   LIG    1       -1.168  -0.693   0.010  0.00  0.00    -0.300 OA
ENDBRANCH   1   9
BRANCH   7  10
ATOM     10  O   LIG    1       -1.198   2.064   0.019  0.00  0.00    -0.480 OA
ATOM     11  H   LIG    1       -1.535   2.254   0.905  0.00  0.00    +0.390 HD
ENDBRANCH   7  10
TORSDOF 2
