REMARK  Name = ZINCvU00000009UP.0
REMARK                            x       y       z     vdW  Elec       q    Type
REMARK                         _______ _______ _______ _____ _____    ______ ____
ROOT
ATOM      1  O   LIG    1       -0.178   7.726  -0.263  0.00  0.00    -0.490 OA
ATOM      2  C   LIG    1        0.065   8.065  -1.402  0.00  0.00    +0.530 C 
ATOM      3  N   LIG    1       -0.514   9.169  -1.915  0.00  0.00    -0.620 N 
ATOM      4  C   LIG    1       -0.309   9.693  -3.277  0.00  0.00    +0.260 C 
ATOM      5  C   LIG    1       -0.645  11.202  -3.177  0.00  0.00    +0.060 C 
ATOM      6  C   LIG    1       -1.831  11.191  -2.176  0.00  0.00    +0.060 C 
ATOM      7  C   LIG    1       -1.459  10.047  -1.209  0.00  0.00    +0.320 C 
ENDROOT
BRANCH   7   8
ATOM      8  C   LIG    1       -2.694   9.271  -0.830  0.00  0.00    +0.090 A 
ATOM      9  N   LIG    1       -3.258   9.330   0.317  0.00  0.00    -0.450 NA
ATOM     10  C   LIG    1       -4.358   8.580   0.516  0.00  0.00    +0.080 A 
ATOM     11  C   LIG    1       -5.166   8.455   1.664  0.00  0.00    +0.080 A 
ATOM     12  C   LIG    1       -6.251   7.631   1.658  0.00  0.00    +0.030 A 
ATOM     13  C   LIG    1       -6.581   6.900   0.526  0.00  0.00    +0.040 A 
ATOM     14  C   LIG    1       -5.809   7.003  -0.610  0.00  0.00    +0.060 A 
ATOM     15  C   LIG    1       -4.697   7.840  -0.622  0.00  0.00    -0.180 A 
ATOM     16  S   LIG    1       -3.520   8.209  -1.880  0.00  0.00    +0.100 S 
ENDBRANCH   7   8
BRANCH   2  17
ATOM     17  C   LIG    1        1.014   7.253  -2.244  0.00  0.00    +0.230 C 
BRANCH  17  18
ATOM     18  O   LIG    1        1.493   6.141  -1.485  0.00  0.00    -0.280 OA
BRANCH  18  19
ATOM     19  C   LIG    1        2.365   5.301  -2.102  0.00  0.00    +0.130 A 
ATOM     20  C   LIG    1        2.752   5.542  -3.412  0.00  0.00    -0.080 A 
ATOM     21  C   LIG    1        3.640   4.687  -4.037  0.00  0.00    +0.050 A 
ATOM     22  C   LIG    1        4.141   3.592  -3.358  0.00  0.00    -0.020 A 
ATOM     23  C   LIG    1        3.760   3.353  -2.051  0.00  0.00    +0.050 A 
ATOM     24  C   LIG    1        2.869   4.201  -1.423  0.00  0.00    -0.100 A 
BRANCH  24  25
ATOM     25  C   LIG    1        2.451   3.937   0.000  0.00  0.00    +0.130 C 
BRANCH  25  26
ATOM     26  C   LIG    1        1.156   3.165   0.008  0.00  0.00    -0.080 A 
ATOM     27  C   LIG    1        1.175   1.783   0.000  0.00  0.00    +0.000 A 
ATOM     28  C   LIG    1       -0.013   1.076   0.008  0.00  0.00    +0.000 A 
ATOM     29  C   LIG    1       -1.219   1.751   0.017  0.00  0.00    +0.000 A 
ATOM     30  C   LIG    1       -1.238   3.133   0.029  0.00  0.00    +0.000 A 
ATOM     31  C   LIG    1       -0.050   3.840   0.022  0.00  0.00    +0.030 A 
ENDBRANCH  25  26
ENDBRANCH  24  25
ENDBRANCH  18  19
ENDBRANCH  17  18
ENDBRANCH   2  17
TORSDOF 6
