REMARK  Name = ZINCpk00000KfL8C.0
REMARK                            x       y       z     vdW  Elec       q    Type
REMARK                         _______ _______ _______ _____ _____    ______ ____
ROOT
ATOM      1  N   LIG    1       -3.254   5.568   3.422  0.00  0.00    -0.530 NA
ATOM      2  C   LIG    1       -2.302   5.775   4.523  0.00  0.00    +0.150 C 
ATOM      3  C   LIG    1       -3.050   6.324   5.741  0.00  0.00    +0.220 C 
ATOM      4  O   LIG    1       -4.101   5.421   6.096  0.00  0.00    -0.380 OA
ATOM      5  C   LIG    1       -5.047   5.197   5.046  0.00  0.00    +0.160 C 
ATOM      6  C   LIG    1       -4.319   4.637   3.821  0.00  0.00    +0.160 C 
ENDROOT
BRANCH   1   7
ATOM      7  C   LIG    1       -2.567   5.095   2.213  0.00  0.00    +0.250 C 
BRANCH   7   8
ATOM      8  C   LIG    1       -1.995   3.698   2.466  0.00  0.00    +0.010 C 
BRANCH   8  10
ATOM      9  O   LIG    1       -1.248   3.914   0.237  0.00  0.00    -0.530 OA
ATOM     10  C   LIG    1       -1.290   3.212   1.226  0.00  0.00    +0.520 C 
ATOM     11  N   LIG    1       -0.704   1.998   1.216  0.00  0.00    -0.730 N 
ATOM     12  H   LIG    1       -0.737   1.437   2.006  0.00  0.00    +0.400 HD
BRANCH  11  13
ATOM     13  C   LIG    1       -0.019   1.526   0.010  0.00  0.00    +0.230 C 
ATOM     14  C   LIG    1        1.417   2.055  -0.000  0.00  0.00    +0.000 C 
ATOM     15  C   LIG    1        2.133   1.562  -1.259  0.00  0.00    +0.010 C 
ATOM     16  C   LIG    1        2.154   0.032  -1.268  0.00  0.00    +0.010 C 
ATOM     17  C   LIG    1        0.718  -0.497  -1.257  0.00  0.00    +0.020 C 
ATOM     18  C   LIG    1        0.002  -0.004   0.002  0.00  0.00    +0.010 C 
ENDBRANCH  11  13
ENDBRANCH   8  10
ENDBRANCH   7   8
ENDBRANCH   1   7
BRANCH   5  19
ATOM     19  C   LIG    1       -6.104   4.195   5.516  0.00  0.00    +0.290 C 
BRANCH  19  20
ATOM     20  N   LIG    1       -6.876   4.779   6.615  0.00  0.00    -0.710 N 
ATOM     21  H   LIG    1       -6.673   5.674   6.929  0.00  0.00    +0.410 HD
BRANCH  20  22
ATOM     22  C   LIG    1       -7.900   4.050   7.209  0.00  0.00    +0.340 A 
ATOM     23  C   LIG    1       -8.195   2.763   6.761  0.00  0.00    -0.040 A 
ATOM     24  C   LIG    1       -9.225   2.078   7.386  0.00  0.00    +0.070 A 
ATOM     25  C   LIG    1       -9.899   2.715   8.419  0.00  0.00    +0.150 A 
ATOM     26  N   LIG    1       -9.553   3.935   8.779  0.00  0.00    -0.200 NA
ATOM     27  N   LIG    1       -8.597   4.573   8.208  0.00  0.00    -0.310 NA
ENDBRANCH  20  22
ENDBRANCH  19  20
ENDBRANCH   5  19
TORSDOF 7
