REMARK  Name = ZINCrD000000BZfM.0
REMARK                            x       y       z     vdW  Elec       q    Type
REMARK                         _______ _______ _______ _____ _____    ______ ____
ROOT
ATOM      1  O   LIG    1        2.128   1.769  -0.414  0.00  0.00    -0.480 OA
ATOM      2  C   LIG    1        1.031   2.224  -0.170  0.00  0.00    +0.520 C 
ATOM      3  N   LIG    1       -0.017   1.395   0.010  0.00  0.00    -0.670 N 
ATOM      4  H   LIG    1       -0.909   1.759   0.125  0.00  0.00    +0.420 HD
ENDROOT
BRANCH   3   5
ATOM      5  C   LIG    1        0.181   0.010   0.024  0.00  0.00    +0.160 A 
ATOM      6  C   LIG    1       -0.803  -0.838  -0.467  0.00  0.00    +0.080 A 
ATOM      7  C   LIG    1       -0.603  -2.205  -0.457  0.00  0.00    +0.070 A 
ATOM      8  C   LIG    1        0.572  -2.729   0.053  0.00  0.00    -0.000 A 
ATOM      9  C   LIG    1        1.551  -1.887   0.549  0.00  0.00    -0.020 A 
ATOM     10 CL   LIG    1        0.817  -4.448   0.071  0.00  0.00    -0.000 Cl
ATOM     11  C   LIG    1        1.359  -0.519   0.535  0.00  0.00    +0.120 A 
BRANCH   9  12
ATOM     12  N   LIG    1        2.807  -2.451   1.093  0.00  0.00    +0.020 N 
ATOM     13  O   LIG    1        2.977  -3.657   1.105  0.00  0.00    -0.130 OA
ATOM     14  O   LIG    1        3.669  -1.710   1.529  0.00  0.00    -0.150 OA
ENDBRANCH   9  12
ENDBRANCH   3   5
BRANCH   2  15
ATOM     15  C   LIG    1        0.839   3.715  -0.067  0.00  0.00    +0.200 C 
BRANCH  15  16
ATOM     16  C   LIG    1        0.816   4.120   1.385  0.00  0.00    -0.130 A 
ATOM     17  C   LIG    1        1.947   4.655   1.971  0.00  0.00    +0.090 A 
ATOM     18  C   LIG    1        1.926   5.027   3.302  0.00  0.00    +0.010 A 
ATOM     19  C   LIG    1        0.775   4.862   4.049  0.00  0.00    +0.060 A 
ATOM     20  C   LIG    1       -0.357   4.326   3.465  0.00  0.00    -0.010 A 
ATOM     21  C   LIG    1       -0.340   3.959   2.130  0.00  0.00    +0.100 A 
ATOM     22  F   LIG    1       -1.448   3.441   1.557  0.00  0.00    -0.140 F 
ENDBRANCH  15  16
BRANCH  15  23
ATOM     23  N   LIG    1        1.946   4.399  -0.749  0.00  0.00    -0.510 NA
ATOM     24  C   LIG    1        1.838   5.858  -0.595  0.00  0.00    +0.160 C 
ATOM     25  C   LIG    1        3.040   6.526  -1.267  0.00  0.00    +0.230 C 
ATOM     26  O   LIG    1        3.093   6.129  -2.640  0.00  0.00    -0.380 OA
ATOM     27  C   LIG    1        3.199   4.715  -2.827  0.00  0.00    +0.240 C 
ATOM     28  C   LIG    1        1.999   4.028  -2.170  0.00  0.00    +0.150 C 
ENDBRANCH  15  23
ENDBRANCH   2  15
TORSDOF 5
