REMARK  Name = ZINCrD0000072RDs.0
REMARK                            x       y       z     vdW  Elec       q    Type
REMARK                         _______ _______ _______ _____ _____    ______ ____
ROOT
ATOM      1  C   LIG    1       -2.482   1.278   0.019  0.00  0.00    +0.440 C 
ATOM      2  O   LIG    1       -3.404   2.068   0.027  0.00  0.00    -0.430 OA
ENDROOT
BRANCH   1   7
ATOM      3  C   LIG    1        0.657   3.077   0.012  0.00  0.00    -0.220 A 
ATOM      4  C   LIG    1        1.072   1.757   0.001  0.00  0.00    +0.140 A 
ATOM      5  N   LIG    1       -0.011   0.966   0.007  0.00  0.00    -0.510 N 
ATOM      6  H   LIG    1        0.002  -0.004   0.002  0.00  0.00    +0.430 HD
ATOM      7  C   LIG    1       -1.147   1.749   0.016  0.00  0.00    -0.090 A 
ATOM      8  C   LIG    1        2.503   1.286  -0.015  0.00  0.00    +0.160 C 
ATOM      9  C   LIG    1       -0.755   3.070   0.026  0.00  0.00    +0.000 A 
ATOM     10  C   LIG    1       -1.659   4.276   0.042  0.00  0.00    +0.140 C 
BRANCH   3  11
ATOM     11  C   LIG    1        1.525   4.267   0.010  0.00  0.00    +0.550 C 
ATOM     12  O   LIG    1        1.873   4.763  -1.044  0.00  0.00    -0.490 OA
BRANCH  11  14
ATOM     13  C   LIG    1        2.788   5.977   1.097  0.00  0.00    +0.260 C 
ATOM     14  O   LIG    1        1.934   4.805   1.175  0.00  0.00    -0.350 OA
ENDBRANCH  11  14
ENDBRANCH   3  11
ENDBRANCH   1   7
BRANCH   1  15
ATOM     15  C   LIG    1       -2.758  -0.203   0.013  0.00  0.00    -0.020 C 
ATOM     16  C   LIG    1       -2.723  -0.735   1.447  0.00  0.00    +0.090 C 
BRANCH  15  17
ATOM     17  S   LIG    1       -4.396  -0.510  -0.705  0.00  0.00    +0.090 S 
BRANCH  17  18
ATOM     18  C   LIG    1       -4.479  -2.269  -0.766  0.00  0.00    +0.200 A 
ATOM     19  N   LIG    1       -5.492  -2.971  -1.217  0.00  0.00    -0.280 NA
ATOM     20  N   LIG    1       -5.140  -4.323  -1.083  0.00  0.00    -0.320 N 
ATOM     21  C   LIG    1       -3.906  -4.344  -0.545  0.00  0.00    +0.500 A 
ATOM     22  N   LIG    1       -3.518  -3.108  -0.365  0.00  0.00    -0.530 NA
BRANCH  20  23
ATOM     23  C   LIG    1       -5.920  -5.433  -1.438  0.00  0.00    +0.140 A 
ATOM     24  C   LIG    1       -5.429  -6.717  -1.248  0.00  0.00    +0.000 A 
ATOM     25  C   LIG    1       -6.202  -7.809  -1.593  0.00  0.00    +0.050 A 
ATOM     26  C   LIG    1       -7.459  -7.622  -2.138  0.00  0.00    +0.010 A 
ATOM     27  C   LIG    1       -7.948  -6.344  -2.334  0.00  0.00    +0.040 A 
ATOM     28  C   LIG    1       -7.182  -5.249  -1.985  0.00  0.00    +0.030 A 
ENDBRANCH  20  23
ENDBRANCH  17  18
ENDBRANCH  15  17
ENDBRANCH   1  15
TORSDOF 7
