REMARK  Name = ZINCrD0000072sQI.0
REMARK                            x       y       z     vdW  Elec       q    Type
REMARK                         _______ _______ _______ _____ _____    ______ ____
ROOT
ATOM      1  C   LIG    1       -6.276   6.040   0.283  0.00  0.00    +0.270 C 
ENDROOT
BRANCH   1   4
ATOM      2  C   LIG    1       -6.199   3.226  -0.065  0.00  0.00    +0.320 C 
ATOM      3  N   LIG    1       -4.942   3.970   0.049  0.00  0.00    -0.580 N 
ATOM      4  C   LIG    1       -4.962   5.313   0.159  0.00  0.00    +0.520 C 
ATOM      5  O   LIG    1       -3.922   5.937   0.157  0.00  0.00    -0.490 OA
BRANCH   3   6
ATOM      6  C   LIG    1       -3.721   3.287   0.044  0.00  0.00    +0.190 A 
ATOM      7  C   LIG    1       -3.388   2.451   1.102  0.00  0.00    +0.030 A 
ATOM      8  C   LIG    1       -2.182   1.778   1.095  0.00  0.00    +0.120 A 
ATOM      9  C   LIG    1       -1.306   1.936   0.036  0.00  0.00    -0.040 A 
ATOM     10  C   LIG    1       -1.633   2.771  -1.017  0.00  0.00    +0.120 A 
ATOM     11  C   LIG    1       -2.840   3.443  -1.018  0.00  0.00    +0.050 A 
BRANCH   9  12
ATOM     12  N   LIG    1       -0.015   1.213   0.031  0.00  0.00    +0.030 N 
ATOM     13  O   LIG    1        0.755   1.347  -0.903  0.00  0.00    -0.150 OA
ATOM     14  O   LIG    1        0.277   0.481   0.960  0.00  0.00    -0.160 OA
ENDBRANCH   9  12
ENDBRANCH   3   6
ENDBRANCH   1   4
BRANCH   1  15
ATOM     15  O   LIG    1       -6.033   7.467   0.386  0.00  0.00    -0.330 OA
BRANCH  15  16
ATOM     16  C   LIG    1       -7.108   8.262   0.505  0.00  0.00    +0.470 C 
ATOM     17  O   LIG    1       -8.216   7.781   0.521  0.00  0.00    -0.500 OA
BRANCH  16  18
ATOM     18  C   LIG    1       -6.933   9.755   0.617  0.00  0.00    -0.040 C 
ATOM     19  C   LIG    1       -6.220  10.280  -0.632  0.00  0.00    +0.050 C 
ATOM     20  C   LIG    1       -6.043  11.795  -0.518  0.00  0.00    +0.000 C 
ATOM     21  C   LIG    1       -5.205  12.119   0.721  0.00  0.00    +0.030 C 
ATOM     22  C   LIG    1       -5.918  11.594   1.969  0.00  0.00    +0.000 C 
ATOM     23  C   LIG    1       -7.289  12.261   2.092  0.00  0.00    +0.020 C 
ATOM     24  C   LIG    1       -8.126  11.937   0.853  0.00  0.00    -0.010 C 
ATOM     25  C   LIG    1       -7.414  12.462  -0.395  0.00  0.00    +0.020 C 
ATOM     26  C   LIG    1       -6.095  10.079   1.855  0.00  0.00    +0.050 C 
ATOM     27  C   LIG    1       -8.304  10.422   0.739  0.00  0.00    +0.050 C 
ENDBRANCH  16  18
ENDBRANCH  15  16
ENDBRANCH   1  15
TORSDOF 6
