REMARK  Name = ZINCpk00000y6yRD.2
REMARK                            x       y       z     vdW  Elec       q    Type
REMARK                         _______ _______ _______ _____ _____    ______ ____
ROOT
ATOM      1  C   LIG    1       -0.013   1.086   0.008  0.00  0.00    +0.310 C 
ENDROOT
BRANCH   1   6
ATOM      2  C   LIG    1       -3.236   1.623  -3.870  0.00  0.00    +0.170 C 
ATOM      3  C   LIG    1       -2.132   1.869  -2.873  0.00  0.00    +0.220 A 
ATOM      4  N   LIG    1       -1.353   2.915  -2.842  0.00  0.00    -0.480 NA
ATOM      5  C   LIG    1       -0.493   2.799  -1.819  0.00  0.00    +0.160 A 
ATOM      6  C   LIG    1       -0.740   1.631  -1.194  0.00  0.00    -0.060 A 
ATOM      7  N   LIG    1       -1.782   1.038  -1.858  0.00  0.00    -0.410 N 
BRANCH   7   8
ATOM      8  C   LIG    1       -2.375  -0.194  -1.546  0.00  0.00    +0.110 A 
ATOM      9  C   LIG    1       -1.643  -1.368  -1.665  0.00  0.00    +0.020 A 
ATOM     10  C   LIG    1       -2.228  -2.580  -1.353  0.00  0.00    +0.040 A 
ATOM     11  C   LIG    1       -3.545  -2.625  -0.933  0.00  0.00    +0.030 A 
ATOM     12  C   LIG    1       -4.278  -1.458  -0.818  0.00  0.00    +0.040 A 
ATOM     13  C   LIG    1       -3.696  -0.243  -1.124  0.00  0.00    +0.020 A 
ENDBRANCH   7   8
ENDBRANCH   1   6
BRANCH   1  14
ATOM     14  N   LIG    1       -0.721   1.486   1.231  0.00  0.00    -0.490 NA
ATOM     15  C   LIG    1       -1.935   0.665   1.433  0.00  0.00    +0.160 C 
ATOM     16  C   LIG    1       -2.993   1.576   2.083  0.00  0.00    +0.020 C 
ATOM     17  C   LIG    1       -2.314   2.959   2.205  0.00  0.00    +0.120 C 
ATOM     18  C   LIG    1       -1.193   2.891   1.138  0.00  0.00    +0.230 C 
BRANCH  17  19
ATOM     19  O   LIG    1       -1.764   3.140   3.511  0.00  0.00    -0.530 OA
ATOM     20  H   LIG    1       -2.420   3.113   4.222  0.00  0.00    +0.370 HD
ENDBRANCH  17  19
BRANCH  17  21
ATOM     21  C   LIG    1       -3.305   4.079   1.878  0.00  0.00    +0.320 C 
BRANCH  21  22
ATOM     22  N   LIG    1       -4.415   4.043   2.833  0.00  0.00    -0.290 N 
ATOM     23  C   LIG    1       -4.830   5.073   3.606  0.00  0.00    +0.140 A 
ATOM     24  C   LIG    1       -5.874   4.604   4.330  0.00  0.00    +0.140 A 
ATOM     25  N   LIG    1       -6.044   3.328   3.969  0.00  0.00    -0.270 NA
ATOM     26  N   LIG    1       -5.167   3.027   3.077  0.00  0.00    -0.090 NA
ENDBRANCH  21  22
ENDBRANCH  17  21
ENDBRANCH   1  14
TORSDOF 6
