REMARK  Name = ZINCrD000000AlNh.2
REMARK                            x       y       z     vdW  Elec       q    Type
REMARK                         _______ _______ _______ _____ _____    ______ ____
ROOT
ATOM      1  O   LIG    1        1.398   7.416   4.839  0.00  0.00    -0.520 OA
ATOM      2  C   LIG    1        1.072   6.248   4.861  0.00  0.00    +0.520 C 
ATOM      3  N   LIG    1        1.598   5.385   3.969  0.00  0.00    -0.620 N 
ATOM      4  C   LIG    1        2.568   5.839   2.961  0.00  0.00    +0.300 C 
ATOM      5  C   LIG    1        2.095   5.366   1.582  0.00  0.00    +0.170 C 
ATOM      6  N   LIG    1        1.869   3.915   1.617  0.00  0.00    -0.530 NA
ATOM      7  C   LIG    1        0.796   3.566   2.558  0.00  0.00    +0.170 C 
ATOM      8  C   LIG    1        1.216   3.965   3.977  0.00  0.00    +0.280 C 
ENDROOT
BRANCH   6   9
ATOM      9  C   LIG    1        1.581   3.395   0.274  0.00  0.00    +0.240 C 
BRANCH   9  10
ATOM     10  C   LIG    1        1.597   1.888   0.304  0.00  0.00    -0.120 A 
ATOM     11  C   LIG    1        0.410   1.183   0.261  0.00  0.00    +0.040 A 
ATOM     12  C   LIG    1        0.425  -0.199   0.288  0.00  0.00    +0.000 A 
ATOM     13  C   LIG    1        1.627  -0.877   0.359  0.00  0.00    +0.040 A 
ATOM     14  C   LIG    1        2.816  -0.174   0.403  0.00  0.00    -0.020 A 
ATOM     15  C   LIG    1        2.802   1.210   0.375  0.00  0.00    +0.130 A 
ATOM     16  F   LIG    1        3.964   1.899   0.417  0.00  0.00    -0.130 F 
ENDBRANCH   9  10
ENDBRANCH   6   9
BRANCH   2  17
ATOM     17  C   LIG    1        0.080   5.761   5.885  0.00  0.00    +0.210 C 
BRANCH  17  18
ATOM     18  N   LIG    1       -0.340   6.885   6.733  0.00  0.00    -0.500 NA
ATOM     19  C   LIG    1        0.719   7.242   7.701  0.00  0.00    +0.170 C 
ATOM     20  C   LIG    1       -0.043   7.711   8.966  0.00  0.00    +0.030 C 
ATOM     21  C   LIG    1       -1.253   6.740   8.980  0.00  0.00    +0.010 C 
ATOM     22  C   LIG    1       -1.567   6.554   7.481  0.00  0.00    +0.250 C 
BRANCH  22  23
ATOM     23  C   LIG    1       -1.960   5.124   7.213  0.00  0.00    -0.200 A 
ATOM     24  C   LIG    1       -3.109   4.733   6.660  0.00  0.00    +0.020 A 
ATOM     25  C   LIG    1       -3.248   3.364   6.510  0.00  0.00    +0.010 A 
ATOM     26  C   LIG    1       -2.215   2.643   6.949  0.00  0.00    -0.040 A 
ATOM     27  S   LIG    1       -0.977   3.715   7.589  0.00  0.00    +0.090 S 
ENDBRANCH  22  23
ENDBRANCH  17  18
ENDBRANCH   2  17
TORSDOF 5
