REMARK  Name = ZINCrH000004jdxn.0
REMARK                            x       y       z     vdW  Elec       q    Type
REMARK                         _______ _______ _______ _____ _____    ______ ____
ROOT
ATOM      1  N   LIG    1        0.832  -0.691   0.356  0.00  0.00    -0.580 N 
ATOM      2  C   LIG    1       -0.586  -0.468   0.052  0.00  0.00    +0.310 C 
ATOM      3  C   LIG    1       -0.706   1.037  -0.274  0.00  0.00    +0.010 C 
ATOM      4  C   LIG    1        0.726   1.371  -0.752  0.00  0.00    +0.090 C 
ATOM      5  C   LIG    1        1.593   0.324  -0.089  0.00  0.00    +0.520 C 
ATOM      6  O   LIG    1        2.799   0.389   0.024  0.00  0.00    -0.510 OA
ENDROOT
BRANCH   1  12
ATOM      7  C   LIG    1        1.327  -1.859   2.412  0.00  0.00    -0.070 A 
ATOM      8  C   LIG    1        1.813  -2.973   3.068  0.00  0.00    +0.020 A 
ATOM      9  C   LIG    1        2.311  -4.041   2.344  0.00  0.00    +0.020 A 
ATOM     10  C   LIG    1        2.319  -3.999   0.962  0.00  0.00    +0.010 A 
ATOM     11  C   LIG    1        1.829  -2.890   0.300  0.00  0.00    +0.020 A 
ATOM     12  C   LIG    1        1.329  -1.816   1.024  0.00  0.00    +0.140 A 
BRANCH   7  14
ATOM     13  C   LIG    1        1.898   0.347   3.391  0.00  0.00    +0.030 C 
ATOM     14  C   LIG    1        0.791  -0.692   3.202  0.00  0.00    +0.060 C 
ENDBRANCH   7  14
ENDBRANCH   1  12
BRANCH   3  15
ATOM     15  C   LIG    1       -1.710   1.274  -1.372  0.00  0.00    +0.530 C 
ATOM     16  N   LIG    1       -1.958   2.527  -1.800  0.00  0.00    -0.650 N 
ATOM     17  H   LIG    1       -1.542   3.283  -1.356  0.00  0.00    +0.420 HD
ATOM     18  O   LIG    1       -2.296   0.336  -1.870  0.00  0.00    -0.510 OA
BRANCH  16  19
ATOM     19  C   LIG    1       -2.814   2.739  -2.883  0.00  0.00    +0.160 A 
ATOM     20  C   LIG    1       -3.896   1.910  -3.085  0.00  0.00    +0.040 A 
ATOM     21  C   LIG    1       -4.760   2.112  -4.158  0.00  0.00    +0.040 A 
ATOM     22  C   LIG    1       -4.553   3.127  -5.042  0.00  0.00    +0.020 A 
ATOM     23  C   LIG    1       -3.458   3.990  -4.874  0.00  0.00    -0.090 A 
ATOM     24  C   LIG    1       -3.217   5.049  -5.770  0.00  0.00    +0.080 A 
ATOM     25  C   LIG    1       -2.133   5.849  -5.546  0.00  0.00    -0.030 A 
ATOM     26  C   LIG    1       -1.304   5.605  -4.454  0.00  0.00    +0.290 A 
ATOM     27  N   LIG    1       -1.532   4.618  -3.621  0.00  0.00    -0.480 NA
ATOM     28  C   LIG    1       -2.574   3.800  -3.784  0.00  0.00    +0.110 A 
ENDBRANCH  16  19
ENDBRANCH   3  15
TORSDOF 4
