REMARK  Name = ZINCkj00000haOhQ.0
REMARK                            x       y       z     vdW  Elec       q    Type
REMARK                         _______ _______ _______ _____ _____    ______ ____
ROOT
ATOM      1  N   LIG    1       -1.591  -0.438  -0.125  0.00  0.00    -1.000 NA
ATOM      2  C   LIG    1       -2.197  -0.622  -1.446  0.00  0.00    +0.300 C 
ENDROOT
BRANCH   1   6
ATOM      3  N   LIG    1       -4.952  -1.321   2.260  0.00  0.00    -0.380 N 
ATOM      4  C   LIG    1       -3.823  -2.256   2.339  0.00  0.00    +0.260 C 
ATOM      5  C   LIG    1       -2.921  -2.076   1.116  0.00  0.00    +0.070 C 
ATOM      6  C   LIG    1       -2.394  -0.639   1.084  0.00  0.00    +0.250 C 
ATOM      7  C   LIG    1       -3.581   0.329   1.076  0.00  0.00    +0.060 C 
ATOM      8  C   LIG    1       -4.459   0.061   2.301  0.00  0.00    +0.170 C 
ATOM      9  C   LIG    1       -3.636   0.271   3.573  0.00  0.00    +0.100 C 
ATOM     10  H   LIG    1       -5.453  -1.473   1.397  0.00  0.00    +0.420 HD
BRANCH   3  12
ATOM     11  C   LIG    1       -6.475  -2.945   3.280  0.00  0.00    +0.080 C 
ATOM     12  C   LIG    1       -5.856  -1.550   3.395  0.00  0.00    +0.250 C 
ENDBRANCH   3  12
ENDBRANCH   1   6
BRANCH   1  13
ATOM     13  S   LIG    1        0.002  -0.004   0.002  0.00  0.00    +2.600 S 
ATOM     14  O   LIG    1        0.402  -0.504   1.271  0.00  0.00    -0.950 OA
ATOM     15  O   LIG    1        0.594  -0.488  -1.196  0.00  0.00    -0.930 OA
BRANCH  13  16
ATOM     16  C   LIG    1       -0.022   1.810   0.012  0.00  0.00    -0.450 C 
ATOM     17  C   LIG    1       -0.753   2.319  -1.234  0.00  0.00    +0.040 C 
ATOM     18  C   LIG    1       -0.701   3.849  -1.257  0.00  0.00    +0.220 C 
ATOM     19  O   LIG    1        0.662   4.278  -1.235  0.00  0.00    -0.370 OA
ATOM     20  C   LIG    1        1.383   3.871  -0.070  0.00  0.00    +0.240 C 
ATOM     21  C   LIG    1        1.414   2.342   0.001  0.00  0.00    +0.030 C 
ENDBRANCH  13  16
ENDBRANCH   1  13
TORSDOF 4
