REMARK  Name = ZINCkj00000haOhQ.1
REMARK                            x       y       z     vdW  Elec       q    Type
REMARK                         _______ _______ _______ _____ _____    ______ ____
ROOT
ATOM      1  N   LIG    1        0.008   1.465   0.021  0.00  0.00    -1.010 NA
ATOM      2  C   LIG    1       -0.264   0.597  -1.127  0.00  0.00    +0.310 C 
ENDROOT
BRANCH   1   6
ATOM      3  N   LIG    1        3.428   0.717  -0.212  0.00  0.00    -0.380 N 
ATOM      4  C   LIG    1        2.517   0.855  -1.355  0.00  0.00    +0.240 C 
ATOM      5  C   LIG    1        1.885   2.248  -1.342  0.00  0.00    +0.090 C 
ATOM      6  C   LIG    1        1.103   2.436  -0.038  0.00  0.00    +0.270 C 
ATOM      7  C   LIG    1        2.047   2.216   1.148  0.00  0.00    +0.060 C 
ATOM      8  C   LIG    1        2.673   0.824   1.043  0.00  0.00    +0.140 C 
ATOM      9  C   LIG    1        3.617   0.600   2.226  0.00  0.00    +0.100 C 
ATOM     10  H   LIG    1        4.124   1.446  -0.248  0.00  0.00    +0.420 HD
BRANCH   3  12
ATOM     11  C   LIG    1        4.983  -0.658  -1.512  0.00  0.00    +0.080 C 
ATOM     12  C   LIG    1        4.090  -0.594  -0.271  0.00  0.00    +0.250 C 
ENDBRANCH   3  12
ENDBRANCH   1   6
BRANCH   1  13
ATOM     13  S   LIG    1       -0.927   1.353   1.383  0.00  0.00    +2.600 S 
ATOM     14  O   LIG    1       -2.210   0.981   0.898  0.00  0.00    -0.930 OA
ATOM     15  O   LIG    1       -0.727   2.593   2.048  0.00  0.00    -0.940 OA
BRANCH  13  16
ATOM     16  C   LIG    1       -0.187  -0.005   2.330  0.00  0.00    -0.470 C 
ATOM     17  C   LIG    1       -0.252  -1.297   1.511  0.00  0.00    +0.030 C 
ATOM     18  C   LIG    1        0.301  -2.452   2.349  0.00  0.00    +0.230 C 
ATOM     19  O   LIG    1       -0.444  -2.560   3.564  0.00  0.00    -0.370 OA
ATOM     20  C   LIG    1       -0.379  -1.397   4.393  0.00  0.00    +0.240 C 
ATOM     21  C   LIG    1       -0.962  -0.200   3.637  0.00  0.00    +0.040 C 
ENDBRANCH  13  16
ENDBRANCH   1  13
TORSDOF 4
