REMARK  Name = ZINCrH000004v3kb.0
REMARK                            x       y       z     vdW  Elec       q    Type
REMARK                         _______ _______ _______ _____ _____    ______ ____
ROOT
ATOM      1  O   LIG    1        1.041   1.931   0.330  0.00  0.00    -0.510 OA
ATOM      2  C   LIG    1       -0.006   1.332   0.179  0.00  0.00    +0.570 C 
ATOM      3  N   LIG    1        0.002  -0.004   0.002  0.00  0.00    -0.670 N 
ATOM      4  H   LIG    1       -0.835  -0.492  -0.042  0.00  0.00    +0.410 HD
ENDROOT
BRANCH   2   5
ATOM      5  C   LIG    1       -1.284   2.068   0.184  0.00  0.00    -0.230 A 
ATOM      6  C   LIG    1       -1.304   3.459   0.367  0.00  0.00    +0.160 A 
ATOM      7  C   LIG    1       -2.513   4.101   0.364  0.00  0.00    -0.060 A 
ATOM      8  C   LIG    1       -3.680   3.361   0.180  0.00  0.00    +0.350 A 
ATOM      9  N   LIG    1       -3.633   2.046   0.009  0.00  0.00    -0.520 NA
ATOM     10  C   LIG    1       -2.491   1.391  -0.000  0.00  0.00    +0.330 A 
BRANCH   8  11
ATOM     11  N   LIG    1       -4.904   4.007   0.175  0.00  0.00    -0.490 N 
ATOM     12  C   LIG    1       -5.053   4.869   1.369  0.00  0.00    +0.200 C 
ATOM     13  C   LIG    1       -6.458   5.376   1.551  0.00  0.00    +0.040 C 
ATOM     14  C   LIG    1       -7.207   4.414   2.497  0.00  0.00    +0.010 C 
ATOM     15  C   LIG    1       -7.647   3.202   1.814  0.00  0.00    +0.000 C 
ATOM     16  C   LIG    1       -6.465   2.392   1.244  0.00  0.00    +0.010 C 
ATOM     17  C   LIG    1       -6.010   3.046  -0.033  0.00  0.00    +0.230 C 
ENDBRANCH   8  11
ENDBRANCH   2   5
BRANCH   3  18
ATOM     18  C   LIG    1        1.215  -0.685  -0.119  0.00  0.00    +0.170 A 
ATOM     19  C   LIG    1        2.298  -0.071  -0.738  0.00  0.00    +0.020 A 
ATOM     20  C   LIG    1        3.497  -0.740  -0.854  0.00  0.00    +0.090 A 
ATOM     21  C   LIG    1        3.622  -2.037  -0.359  0.00  0.00    -0.040 A 
ATOM     22  C   LIG    1        2.533  -2.653   0.257  0.00  0.00    +0.080 A 
ATOM     23  C   LIG    1        1.337  -1.979   0.376  0.00  0.00    -0.010 A 
BRANCH  21  24
ATOM     24  C   LIG    1        4.910  -2.761  -0.488  0.00  0.00    +0.220 A 
ATOM     25  N   LIG    1        5.165  -3.973  -0.066  0.00  0.00    -0.380 NA
ATOM     26  O   LIG    1        6.311  -4.272  -0.329  0.00  0.00    +0.080 OA
ATOM     27  C   LIG    1        6.919  -3.257  -0.951  0.00  0.00    +0.440 A 
ATOM     28  N   LIG    1        6.042  -2.290  -1.058  0.00  0.00    -0.480 NA
ENDBRANCH  21  24
ENDBRANCH   3  18
TORSDOF 4
