REMARK  Name = ZINCtV000002BOR9.0
REMARK                            x       y       z     vdW  Elec       q    Type
REMARK                         _______ _______ _______ _____ _____    ______ ____
ROOT
ATOM      1  C   LIG    1        3.904   7.814   0.961  0.00  0.00    +0.290 C 
ATOM      2  C   LIG    1        4.933   8.492   0.058  0.00  0.00    +0.020 C 
ATOM      3  C   LIG    1        6.229   7.679   0.066  0.00  0.00    +0.020 C 
ATOM      4  C   LIG    1        5.956   6.275  -0.479  0.00  0.00    -0.020 C 
ATOM      5  C   LIG    1        4.938   5.571   0.423  0.00  0.00    +0.250 C 
ATOM      6  C   LIG    1        7.259   5.473  -0.502  0.00  0.00    +0.030 C 
ATOM      7  N   LIG    1        3.742   6.417   0.537  0.00  0.00    -0.620 N 
ATOM      8  C   LIG    1        2.521   5.921   0.254  0.00  0.00    +0.720 C 
ATOM      9  N   LIG    1        2.307   4.591   0.296  0.00  0.00    -0.560 N 
ATOM     10  O   LIG    1        1.613   6.675  -0.040  0.00  0.00    -0.530 OA
ENDROOT
BRANCH   9  11
ATOM     11  C   LIG    1        1.066   4.070  -0.087  0.00  0.00    +0.180 A 
ATOM     12  C   LIG    1        0.022   4.926  -0.409  0.00  0.00    +0.030 A 
ATOM     13  C   LIG    1       -1.202   4.409  -0.788  0.00  0.00    +0.040 A 
ATOM     14  C   LIG    1       -1.386   3.041  -0.853  0.00  0.00    -0.010 A 
ATOM     15  C   LIG    1       -0.349   2.184  -0.527  0.00  0.00    -0.010 A 
ATOM     16 CL   LIG    1       -0.586   0.466  -0.602  0.00  0.00    -0.070 Cl
ATOM     17  C   LIG    1        0.878   2.696  -0.147  0.00  0.00    -0.010 A 
ENDBRANCH   9  11
BRANCH   1  23
ATOM     18  C   LIG    1        1.623   8.382   1.837  0.00  0.00    +0.150 A 
ATOM     19  C   LIG    1        0.412   9.049   1.732  0.00  0.00    -0.080 A 
ATOM     20  C   LIG    1        0.159   9.851   0.636  0.00  0.00    +0.040 A 
ATOM     21  C   LIG    1        1.115   9.995  -0.353  0.00  0.00    -0.030 A 
ATOM     22  C   LIG    1        2.326   9.335  -0.247  0.00  0.00    +0.050 A 
ATOM     23  C   LIG    1        2.583   8.532   0.846  0.00  0.00    -0.090 A 
BRANCH  18  25
ATOM     24  C   LIG    1        0.839   7.481   3.892  0.00  0.00    +0.230 C 
ATOM     25  O   LIG    1        1.872   7.588   2.911  0.00  0.00    -0.320 OA
ENDBRANCH  18  25
ENDBRANCH   1  23
BRANCH   9  26
ATOM     26  C   LIG    1        3.373   3.692   0.744  0.00  0.00    +0.280 C 
BRANCH  26  27
ATOM     27  C   LIG    1        4.010   3.012  -0.470  0.00  0.00    +0.360 C 
ATOM     28  F   LIG    1        4.325   3.977  -1.433  0.00  0.00    -0.180 F 
ATOM     29  F   LIG    1        3.110   2.089  -1.013  0.00  0.00    -0.180 F 
ENDBRANCH  26  27
ENDBRANCH   9  26
TORSDOF 5
