REMARK  Name = ZINCtV00001bB3x3.0
REMARK                            x       y       z     vdW  Elec       q    Type
REMARK                         _______ _______ _______ _____ _____    ______ ____
ROOT
ATOM      1  C   LIG    1        6.627   1.976  -0.387  0.00  0.00    -0.100 A 
ATOM      2  C   LIG    1        5.452   2.687  -0.238  0.00  0.00    +0.060 A 
ATOM      3  C   LIG    1        4.237   2.076  -0.485  0.00  0.00    +0.030 A 
ATOM      4  C   LIG    1        4.197   0.745  -0.874  0.00  0.00    +0.100 A 
ATOM      5  C   LIG    1        5.378   0.033  -1.024  0.00  0.00    +0.010 A 
ATOM      6  C   LIG    1        6.591   0.649  -0.781  0.00  0.00    -0.000 A 
ATOM      7 CL   LIG    1        8.070  -0.241  -0.968  0.00  0.00    -0.050 Cl
ENDROOT
BRANCH   1   8
ATOM      8  C   LIG    1        7.951   2.646  -0.122  0.00  0.00    +0.340 C 
BRANCH   8   9
ATOM      9  N   LIG    1        8.543   3.078  -1.391  0.00  0.00    -0.600 N 
ATOM     10  C   LIG    1        8.179   4.254  -1.938  0.00  0.00    +0.550 C 
ATOM     11  O   LIG    1        8.600   4.571  -3.034  0.00  0.00    -0.520 OA
BRANCH  10  12
ATOM     12  C   LIG    1        7.272   5.155  -1.210  0.00  0.00    -0.090 C 
ATOM     13  C   LIG    1        6.828   6.265  -1.793  0.00  0.00    +0.140 C 
ENDBRANCH  10  12
BRANCH   9  14
ATOM     14  C   LIG    1        9.530   2.231  -2.064  0.00  0.00    +0.370 C 
BRANCH  14  16
ATOM     15  C   LIG    1        8.705   1.695  -4.520  0.00  0.00    +0.030 C 
ATOM     16  C   LIG    1        9.071   1.933  -3.430  0.00  0.00    -0.180 C 
ENDBRANCH  14  16
BRANCH  14  17
ATOM     17  C   LIG    1       10.873   2.962  -2.125  0.00  0.00    +0.030 C 
BRANCH  17  18
ATOM     18  C   LIG    1       11.923   2.048  -2.759  0.00  0.00    -0.020 C 
ATOM     19  C   LIG    1       12.183   0.855  -1.837  0.00  0.00    +0.020 C 
ATOM     20  C   LIG    1       13.223   2.829  -2.961  0.00  0.00    +0.020 C 
ENDBRANCH  17  18
ENDBRANCH  14  17
ENDBRANCH   9  14
ENDBRANCH   8   9
ENDBRANCH   1   8
BRANCH   4  21
ATOM     21  O   LIG    1        3.003   0.142  -1.113  0.00  0.00    -0.250 OA
BRANCH  21  22
ATOM     22  C   LIG    1        2.522  -0.714  -0.174  0.00  0.00    +0.110 A 
ATOM     23  C   LIG    1        3.286  -1.022   0.942  0.00  0.00    -0.030 A 
ATOM     24  C   LIG    1        2.794  -1.892   1.897  0.00  0.00    +0.030 A 
ATOM     25  C   LIG    1        1.540  -2.456   1.740  0.00  0.00    +0.070 A 
ATOM     26  C   LIG    1        0.776  -2.150   0.626  0.00  0.00    -0.080 A 
ATOM     27  C   LIG    1       -0.589  -2.766   0.456  0.00  0.00    +0.110 C 
ATOM     28  F   LIG    1        1.058  -3.302   2.676  0.00  0.00    -0.140 F 
ATOM     29  C   LIG    1        1.265  -1.281  -0.330  0.00  0.00    +0.020 A 
ENDBRANCH  21  22
ENDBRANCH   4  21
TORSDOF 9
