REMARK  Name = ZINCrD000000gRS0.0
REMARK                            x       y       z     vdW  Elec       q    Type
REMARK                         _______ _______ _______ _____ _____    ______ ____
ROOT
ATOM      1  C   LIG    1       -0.014   1.209   0.007  0.00  0.00    +0.490 C 
ATOM      2  N   LIG    1       -1.191   1.867   0.018  0.00  0.00    -0.670 N 
ATOM      3  H   LIG    1       -1.205   2.833   0.098  0.00  0.00    +0.410 HD
ATOM      4  O   LIG    1        0.002  -0.004  -0.008  0.00  0.00    -0.490 OA
ENDROOT
BRANCH   2   5
ATOM      5  C   LIG    1       -2.391   1.155  -0.086  0.00  0.00    +0.140 A 
ATOM      6  C   LIG    1       -3.468   1.704  -0.769  0.00  0.00    -0.010 A 
ATOM      7  C   LIG    1       -4.650   0.997  -0.875  0.00  0.00    +0.040 A 
ATOM      8  C   LIG    1       -4.765  -0.252  -0.291  0.00  0.00    -0.090 A 
ATOM      9  C   LIG    1       -3.696  -0.798   0.395  0.00  0.00    +0.040 A 
ATOM     10  C   LIG    1       -2.510  -0.099   0.499  0.00  0.00    +0.020 A 
BRANCH   8  11
ATOM     11  C   LIG    1       -6.058  -1.018  -0.403  0.00  0.00    +0.140 C 
BRANCH  11  12
ATOM     12  C   LIG    1       -6.950  -0.669   0.760  0.00  0.00    -0.030 A 
ATOM     13  C   LIG    1       -6.901  -1.401   1.937  0.00  0.00    -0.040 A 
ATOM     14  C   LIG    1       -7.731  -1.050   2.984  0.00  0.00    +0.260 A 
ATOM     15  N   LIG    1       -8.570  -0.038   2.869  0.00  0.00    -0.490 NA
ATOM     16  C   LIG    1       -8.648   0.676   1.764  0.00  0.00    +0.260 A 
ATOM     17  C   LIG    1       -7.845   0.387   0.677  0.00  0.00    -0.040 A 
ENDBRANCH  11  12
ENDBRANCH   8  11
ENDBRANCH   2   5
BRANCH   1  18
ATOM     18  C   LIG    1        1.280   1.980   0.007  0.00  0.00    +0.370 C 
BRANCH  18  21
ATOM     19  C   LIG    1        3.994  -0.271  -0.776  0.00  0.00    +0.130 A 
ATOM     20  N   LIG    1        3.033   0.531  -1.156  0.00  0.00    -0.290 NA
ATOM     21  N   LIG    1        2.407   1.044  -0.012  0.00  0.00    -0.390 N 
ATOM     22  C   LIG    1        3.030   0.525   1.071  0.00  0.00    +0.370 A 
ATOM     23  C   LIG    1        4.016  -0.299   0.622  0.00  0.00    -0.200 A 
BRANCH  19  25
ATOM     24  C   LIG    1        4.514  -2.509  -1.707  0.00  0.00    +0.040 C 
ATOM     25  C   LIG    1        4.919  -1.034  -1.688  0.00  0.00    +0.010 C 
ATOM     26  C   LIG    1        6.357  -0.906  -1.180  0.00  0.00    +0.040 C 
ATOM     27  C   LIG    1        4.825  -0.461  -3.104  0.00  0.00    +0.040 C 
ENDBRANCH  19  25
BRANCH  22  28
ATOM     28  N   LIG    1        2.717   0.785   2.402  0.00  0.00    -0.860 N 
ATOM     29  H   LIG    1        3.226   0.362   3.111  0.00  0.00    +0.420 HD
ATOM     30  H   LIG    1        1.991   1.389   2.621  0.00  0.00    +0.400 HD
ENDBRANCH  22  28
ENDBRANCH  18  21
ENDBRANCH   1  18
TORSDOF 7
