REMARK  Name = ZINCrH000004pB88.0
REMARK                            x       y       z     vdW  Elec       q    Type
REMARK                         _______ _______ _______ _____ _____    ______ ____
ROOT
ATOM      1  N   LIG    1       -5.697   3.736  -0.809  0.00  0.00    -0.610 N 
ATOM      2  C   LIG    1       -4.488   4.333  -0.824  0.00  0.00    +0.570 C 
ATOM      3  O   LIG    1       -4.396   5.511  -1.108  0.00  0.00    -0.530 OA
ATOM      4  C   LIG    1       -5.798   2.293  -0.571  0.00  0.00    +0.300 C 
ENDROOT
BRANCH   2   5
ATOM      5  C   LIG    1       -3.277   3.556  -0.496  0.00  0.00    -0.160 A 
ATOM      6  C   LIG    1       -3.343   2.515   0.435  0.00  0.00    +0.070 A 
ATOM      7  C   LIG    1       -2.212   1.792   0.738  0.00  0.00    -0.030 A 
ATOM      8  C   LIG    1       -1.003   2.097   0.120  0.00  0.00    +0.180 A 
ATOM      9  C   LIG    1       -0.933   3.135  -0.803  0.00  0.00    +0.020 A 
ATOM     10  C   LIG    1       -2.062   3.859  -1.115  0.00  0.00    +0.100 A 
BRANCH   8  11
ATOM     11  N   LIG    1        0.141   1.363   0.430  0.00  0.00    -0.670 N 
ATOM     12  H   LIG    1        0.241   0.970   1.311  0.00  0.00    +0.420 HD
ATOM     13  C   LIG    1        1.112   1.206  -0.492  0.00  0.00    +0.540 C 
ATOM     14  O   LIG    1        0.949   1.620  -1.620  0.00  0.00    -0.510 OA
BRANCH  13  15
ATOM     15  C   LIG    1        2.398   0.514  -0.122  0.00  0.00    -0.070 C 
ATOM     16  C   LIG    1        3.668   1.366  -0.070  0.00  0.00    +0.060 C 
ATOM     17  C   LIG    1        3.461   0.368  -1.212  0.00  0.00    +0.080 C 
ENDBRANCH  13  15
ENDBRANCH   8  11
ENDBRANCH   2   5
BRANCH   1  19
ATOM     18  C   LIG    1       -7.779   4.491   0.229  0.00  0.00    +0.050 C 
ATOM     19  C   LIG    1       -6.908   4.529  -1.029  0.00  0.00    +0.300 C 
BRANCH  19  20
ATOM     20  C   LIG    1       -7.679   3.956  -2.190  0.00  0.00    -0.090 A 
ATOM     21  C   LIG    1       -7.008   3.339  -3.229  0.00  0.00    +0.090 A 
ATOM     22  C   LIG    1       -7.715   2.809  -4.292  0.00  0.00    +0.040 A 
ATOM     23  C   LIG    1       -9.094   2.905  -4.321  0.00  0.00    +0.110 A 
ATOM     24  C   LIG    1       -9.765   3.527  -3.285  0.00  0.00    -0.040 A 
ATOM     25  C   LIG    1       -9.058   4.053  -2.220  0.00  0.00    +0.110 A 
BRANCH  24  26
ATOM     26  N   LIG    1      -11.241   3.631  -3.317  0.00  0.00    +0.030 N 
ATOM     27  O   LIG    1      -11.864   3.169  -4.256  0.00  0.00    -0.160 OA
ATOM     28  O   LIG    1      -11.833   4.180  -2.404  0.00  0.00    -0.160 OA
ENDBRANCH  24  26
ENDBRANCH  19  20
ENDBRANCH   1  19
TORSDOF 6
