REMARK  Name = ZINCnE000001PK0w.0
REMARK                            x       y       z     vdW  Elec       q    Type
REMARK                         _______ _______ _______ _____ _____    ______ ____
ROOT
ATOM      1  N   LIG    1       -1.523  -0.986   0.148  0.00  0.00    -0.750 N 
ATOM      2  H   LIG    1       -1.658  -1.946   0.111  0.00  0.00    +0.400 HD
ENDROOT
BRANCH   1   7
ATOM      3  C   LIG    1        3.721   1.159   0.574  0.00  0.00    +0.070 C 
ATOM      4  C   LIG    1        2.332   0.587   0.460  0.00  0.00    -0.110 A 
ATOM      5  C   LIG    1        1.240   1.429   0.409  0.00  0.00    +0.020 A 
ATOM      6  C   LIG    1       -0.037   0.909   0.305  0.00  0.00    -0.090 A 
ATOM      7  C   LIG    1       -0.230  -0.467   0.252  0.00  0.00    +0.190 A 
ATOM      8  C   LIG    1        0.859  -1.323   0.302  0.00  0.00    -0.050 A 
ATOM      9  C   LIG    1        2.148  -0.798   0.407  0.00  0.00    -0.070 A 
BRANCH   9  10
ATOM     10  C   LIG    1        3.314  -1.701   0.461  0.00  0.00    +0.520 C 
ATOM     11  O   LIG    1        3.329  -2.633   1.253  0.00  0.00    -0.690 OA
ATOM     12  O   LIG    1        4.264  -1.519  -0.287  0.00  0.00    -0.680 OA
ENDBRANCH   9  10
ENDBRANCH   1   7
BRANCH   1  13
ATOM     13  C   LIG    1       -2.674  -0.082   0.094  0.00  0.00    +0.280 C 
BRANCH  13  14
ATOM     14  C   LIG    1       -3.950  -0.893  -0.142  0.00  0.00    -0.060 C 
ATOM     15  C   LIG    1       -5.159   0.046  -0.346  0.00  0.00    +0.020 C 
ATOM     16  C   LIG    1       -5.652  -0.281  -1.773  0.00  0.00    +0.190 C 
ATOM     17  O   LIG    1       -4.497  -0.828  -2.446  0.00  0.00    -0.370 OA
ATOM     18  C   LIG    1       -3.855  -1.677  -1.470  0.00  0.00    +0.220 C 
BRANCH  14  19
ATOM     19  C   LIG    1       -4.198  -1.831   1.012  0.00  0.00    -0.080 A 
ATOM     20  C   LIG    1       -5.240  -2.738   0.953  0.00  0.00    +0.000 A 
ATOM     21  C   LIG    1       -5.465  -3.600   2.009  0.00  0.00    +0.000 A 
ATOM     22  C   LIG    1       -4.655  -3.550   3.128  0.00  0.00    +0.000 A 
ATOM     23  C   LIG    1       -3.616  -2.640   3.189  0.00  0.00    +0.000 A 
ATOM     24  C   LIG    1       -3.388  -1.780   2.131  0.00  0.00    +0.030 A 
ENDBRANCH  14  19
ENDBRANCH  13  14
ENDBRANCH   1  13
TORSDOF 5
