REMARK  Name = ZINCrD000000fDIg.0
REMARK                            x       y       z     vdW  Elec       q    Type
REMARK                         _______ _______ _______ _____ _____    ______ ____
ROOT
ATOM      1  C   LIG    1       -2.228   1.174  -1.143  0.00  0.00    -0.020 C 
ATOM      2  C   LIG    1       -0.759   1.596  -1.228  0.00  0.00    +0.020 C 
ATOM      3  C   LIG    1       -0.013   1.086   0.008  0.00  0.00    +0.280 C 
ATOM      4  N   LIG    1       -0.706   1.562   1.213  0.00  0.00    -0.610 N 
ATOM      5  C   LIG    1       -2.146   1.289   1.351  0.00  0.00    +0.260 C 
ATOM      6  C   LIG    1       -0.037   2.238   2.168  0.00  0.00    +0.590 C 
ATOM      7  O   LIG    1        1.153   2.458   2.037  0.00  0.00    -0.520 OA
ATOM      8  C   LIG    1       -2.868   1.797   0.099  0.00  0.00    +0.020 C 
ENDROOT
BRANCH   6   9
ATOM      9  C   LIG    1       -0.743   2.707   3.365  0.00  0.00    -0.180 A 
ATOM     10  C   LIG    1       -0.866   1.961   4.496  0.00  0.00    +0.050 A 
ATOM     11  S   LIG    1       -1.738   2.811   5.682  0.00  0.00    +0.220 S 
ATOM     12  C   LIG    1       -1.965   4.211   4.635  0.00  0.00    -0.200 A 
ATOM     13  C   LIG    1       -2.734   5.442   5.088  0.00  0.00    +0.210 C 
ATOM     14  S   LIG    1       -2.318   6.832   3.996  0.00  0.00    -0.220 S 
ATOM     15  C   LIG    1       -2.418   6.039   2.361  0.00  0.00    +0.130 C 
ATOM     16  C   LIG    1       -1.329   4.977   2.276  0.00  0.00    +0.130 C 
ATOM     17  C   LIG    1       -1.385   4.018   3.451  0.00  0.00    -0.040 A 
BRANCH  10  18
ATOM     18  N   LIG    1       -0.347   0.681   4.660  0.00  0.00    -0.380 N 
ATOM     19  C   LIG    1        0.354  -0.022   3.720  0.00  0.00    +0.160 A 
ATOM     20  C   LIG    1        0.689  -1.216   4.249  0.00  0.00    -0.030 A 
ATOM     21  C   LIG    1        0.170  -1.258   5.560  0.00  0.00    -0.020 A 
ATOM     22  C   LIG    1       -0.458  -0.087   5.785  0.00  0.00    +0.150 A 
ENDBRANCH  10  18
ENDBRANCH   6   9
BRANCH   1  23
ATOM     23  C   LIG    1       -2.969   1.652  -2.393  0.00  0.00    +0.260 C 
BRANCH  23  26
ATOM     24  C   LIG    1       -6.603   0.922  -3.352  0.00  0.00    +0.090 C 
ATOM     25  C   LIG    1       -5.189   1.443  -3.377  0.00  0.00    +0.510 C 
ATOM     26  N   LIG    1       -4.344   1.146  -2.369  0.00  0.00    -0.730 N 
ATOM     27  H   LIG    1       -4.646   0.598  -1.629  0.00  0.00    +0.400 HD
ATOM     28  O   LIG    1       -4.811   2.128  -4.303  0.00  0.00    -0.540 OA
ENDBRANCH  23  26
ENDBRANCH   1  23
TORSDOF 4
