REMARK  Name = ZINCAx0000000f4F.0
REMARK                            x       y       z     vdW  Elec       q    Type
REMARK                         _______ _______ _______ _____ _____    ______ ____
ROOT
ATOM      1  C   LIG    1        2.445   1.593  -0.013  0.00  0.00    +0.370 C 
ENDROOT
BRANCH   1   2
ATOM      2  N   LIG    1        1.050   2.039   0.003  0.00  0.00    -0.560 N 
ATOM      3  C   LIG    1        0.671   3.323   0.005  0.00  0.00    +0.710 C 
ATOM      4  N   LIG    1       -0.667   3.464   0.020  0.00  0.00    -0.710 N 
ATOM      5  H   LIG    1       -1.162   4.298   0.024  0.00  0.00    +0.440 HD
ATOM      6  C   LIG    1       -1.234   2.104   0.024  0.00  0.00    +0.170 C 
ATOM      7  C   LIG    1       -2.064   1.872   1.288  0.00  0.00    +0.100 C 
ATOM      8  O   LIG    1        1.449   4.257  -0.005  0.00  0.00    -0.530 OA
ATOM      9  C   LIG    1       -0.011   1.208   0.017  0.00  0.00    +0.540 C 
ATOM     10  O   LIG    1        0.009  -0.004   0.018  0.00  0.00    -0.450 OA
BRANCH   6  11
ATOM     11  C   LIG    1       -2.068   1.872  -1.210  0.00  0.00    -0.120 A 
ATOM     12  C   LIG    1       -2.076   0.628  -1.813  0.00  0.00    +0.070 A 
ATOM     13  C   LIG    1       -2.844   0.411  -2.941  0.00  0.00    -0.040 A 
ATOM     14  C   LIG    1       -3.599   1.446  -3.475  0.00  0.00    +0.120 A 
ATOM     15  C   LIG    1       -3.584   2.695  -2.871  0.00  0.00    +0.010 A 
ATOM     16  C   LIG    1       -2.819   2.905  -1.740  0.00  0.00    +0.070 A 
BRANCH  14  17
ATOM     17  O   LIG    1       -4.350   1.237  -4.588  0.00  0.00    -0.320 OA
BRANCH  17  18
ATOM     18  C   LIG    1       -4.317  -0.074  -5.156  0.00  0.00    +0.600 C 
ATOM     19  F   LIG    1       -4.773  -1.002  -4.214  0.00  0.00    -0.200 F 
ATOM     20  F   LIG    1       -3.004  -0.390  -5.524  0.00  0.00    -0.200 F 
ENDBRANCH  17  18
ENDBRANCH  14  17
ENDBRANCH   6  11
ENDBRANCH   1   2
BRANCH   1  23
ATOM     21  N   LIG    1        4.166   1.034  -1.699  0.00  0.00    -0.670 N 
ATOM     22  H   LIG    1        4.795   0.908  -0.972  0.00  0.00    +0.420 HD
ATOM     23  C   LIG    1        2.907   1.438  -1.439  0.00  0.00    +0.500 C 
ATOM     24  O   LIG    1        2.145   1.677  -2.352  0.00  0.00    -0.500 OA
BRANCH  21  28
ATOM     25  C   LIG    1        5.355   0.329  -5.629  0.00  0.00    -0.690 A 
ATOM     26  C   LIG    1        4.461   1.346  -5.351  0.00  0.00    +0.140 A 
ATOM     27  C   LIG    1        4.065   1.583  -4.049  0.00  0.00    +0.010 A 
ATOM     28  C   LIG    1        4.565   0.798  -3.019  0.00  0.00    +0.200 A 
ATOM     29  C   LIG    1        5.468  -0.220  -3.301  0.00  0.00    -0.020 A 
ATOM     30  C   LIG    1        5.856  -0.455  -4.606  0.00  0.00    +0.140 A 
BRANCH  25  31
ATOM     31  S   LIG    1        5.858   0.030  -7.291  0.00  0.00    +2.690 S 
ATOM     32  O   LIG    1        4.831   0.554  -8.122  0.00  0.00    -0.950 OA
ATOM     33  O   LIG    1        6.285  -1.325  -7.344  0.00  0.00    -0.950 OA
BRANCH  31  34
ATOM     34  N   LIG    1        7.203   0.955  -7.571  0.00  0.00    -1.000 NA
BRANCH  34  36
ATOM     35  C   LIG    1        9.119  -0.174  -8.587  0.00  0.00    +0.010 C 
ATOM     36  C   LIG    1        8.536   0.411  -7.299  0.00  0.00    +0.280 C 
ENDBRANCH  34  36
BRANCH  34  37
ATOM     37  C   LIG    1        7.059   2.318  -8.089  0.00  0.00    +0.290 C 
ATOM     38  C   LIG    1        7.067   3.310  -6.924  0.00  0.00    +0.010 C 
ENDBRANCH  34  37
ENDBRANCH  31  34
ENDBRANCH  25  31
ENDBRANCH  21  28
ENDBRANCH   1  23
TORSDOF 10
