REMARK  Name = ZINCpe00000bQoUy.0
REMARK                            x       y       z     vdW  Elec       q    Type
REMARK                         _______ _______ _______ _____ _____    ______ ____
ROOT
ATOM      1  C   LIG    1       -3.168   2.521  -1.411  0.00  0.00    +0.050 C 
ATOM      2  C   LIG    1       -2.269   1.504  -0.705  0.00  0.00    -0.020 C 
ATOM      3  C   LIG    1       -2.143   1.837   0.797  0.00  0.00    +0.260 C 
ATOM      4  N   LIG    1       -0.746   1.583   1.187  0.00  0.00    -0.620 N 
ATOM      5  C   LIG    1       -0.013   1.086   0.008  0.00  0.00    +0.250 C 
ATOM      6  C   LIG    1       -0.223   1.771   2.415  0.00  0.00    +0.530 C 
ATOM      7  O   LIG    1       -0.922   2.186   3.314  0.00  0.00    -0.530 OA
ATOM      8  C   LIG    1       -0.806   1.621  -1.210  0.00  0.00    +0.250 C 
ENDROOT
BRANCH   8   9
ATOM      9  N   LIG    1       -0.589   0.779  -2.389  0.00  0.00    -0.720 N 
ATOM     10  H   LIG    1       -1.205   0.056  -2.589  0.00  0.00    +0.400 HD
ATOM     11  C   LIG    1        0.465   1.009  -3.196  0.00  0.00    +0.520 C 
ATOM     12  O   LIG    1        1.234   1.913  -2.947  0.00  0.00    -0.510 OA
BRANCH  11  13
ATOM     13  C   LIG    1        0.688   0.143  -4.409  0.00  0.00    +0.200 C 
BRANCH  13  14
ATOM     14  O   LIG    1        1.861   0.581  -5.099  0.00  0.00    -0.350 OA
BRANCH  14  15
ATOM     15  C   LIG    1        2.164  -0.178  -6.271  0.00  0.00    +0.110 C 
ATOM     16  C   LIG    1        2.387  -1.642  -5.887  0.00  0.00    +0.020 C 
ATOM     17  C   LIG    1        3.431   0.377  -6.924  0.00  0.00    +0.070 C 
ATOM     18  C   LIG    1        0.998  -0.081  -7.257  0.00  0.00    +0.020 C 
ENDBRANCH  14  15
ENDBRANCH  13  14
ENDBRANCH  11  13
ENDBRANCH   8   9
BRANCH   6  19
ATOM     19  C   LIG    1        1.231   1.468   2.669  0.00  0.00    +0.050 C 
BRANCH  19  20
ATOM     20  C   LIG    1        1.566   1.766   4.132  0.00  0.00    +0.060 C 
BRANCH  20  21
ATOM     21  C   LIG    1        3.042   1.458   4.391  0.00  0.00    +0.220 C 
ATOM     22  C   LIG    1        3.422   1.842   5.838  0.00  0.00    +0.050 C 
ATOM     23  C   LIG    1        4.437   0.731   6.201  0.00  0.00    +0.050 C 
ATOM     24  C   LIG    1        4.069  -0.420   5.291  0.00  0.00    +0.520 C 
ATOM     25  O   LIG    1        4.431  -1.568   5.443  0.00  0.00    -0.530 OA
ATOM     26  N   LIG    1        3.284   0.014   4.291  0.00  0.00    -0.730 N 
ATOM     27  H   LIG    1        2.924  -0.554   3.592  0.00  0.00    +0.410 HD
ENDBRANCH  20  21
ENDBRANCH  19  20
ENDBRANCH   6  19
TORSDOF 7
