REMARK  Name = ZINCvU00000009oo.0
REMARK                            x       y       z     vdW  Elec       q    Type
REMARK                         _______ _______ _______ _____ _____    ______ ____
ROOT
ATOM      1  C   LIG    1        4.986  -0.190  -0.615  0.00  0.00    -0.280 A 
ATOM      2  C   LIG    1        5.874  -1.236  -0.480  0.00  0.00    +0.300 A 
ATOM      3  N   LIG    1        5.315  -2.150   0.332  0.00  0.00    -0.300 N 
ATOM      4  N   LIG    1        4.055  -1.705   0.742  0.00  0.00    -0.270 NA
ATOM      5  C   LIG    1        3.812  -0.536   0.194  0.00  0.00    +0.190 A 
ENDROOT
BRANCH   3   6
ATOM      6  C   LIG    1        5.907  -3.361   0.715  0.00  0.00    +0.140 A 
ATOM      7  C   LIG    1        7.169  -3.697   0.242  0.00  0.00    -0.010 A 
ATOM      8  C   LIG    1        7.753  -4.889   0.625  0.00  0.00    +0.050 A 
ATOM      9  C   LIG    1        7.077  -5.752   1.469  0.00  0.00    +0.010 A 
ATOM     10  C   LIG    1        5.818  -5.422   1.937  0.00  0.00    +0.050 A 
ATOM     11  C   LIG    1        5.232  -4.229   1.562  0.00  0.00    +0.030 A 
ENDBRANCH   3   6
BRANCH   5  12
ATOM     12  C   LIG    1        2.588   0.282   0.366  0.00  0.00    -0.040 A 
ATOM     13  C   LIG    1        1.345  -0.338   0.493  0.00  0.00    +0.040 A 
ATOM     14  C   LIG    1        0.208   0.428   0.653  0.00  0.00    +0.000 A 
ATOM     15  C   LIG    1        0.300   1.808   0.688  0.00  0.00    +0.020 A 
ATOM     16  C   LIG    1        1.530   2.428   0.563  0.00  0.00    +0.000 A 
ATOM     17  C   LIG    1        2.674   1.672   0.402  0.00  0.00    +0.090 A 
ENDBRANCH   5  12
BRANCH   1  20
ATOM     18  N   LIG    1        6.318   1.212  -2.108  0.00  0.00    -0.670 N 
ATOM     19  H   LIG    1        7.042   0.572  -2.026  0.00  0.00    +0.410 HD
ATOM     20  C   LIG    1        5.178   1.034  -1.412  0.00  0.00    +0.600 C 
ATOM     21  O   LIG    1        4.307   1.883  -1.442  0.00  0.00    -0.510 OA
BRANCH  18  26
ATOM     22  C   LIG    1        5.496   3.930  -4.451  0.00  0.00    +0.160 A 
ATOM     23  C   LIG    1        6.743   4.519  -4.612  0.00  0.00    +0.010 A 
ATOM     24  C   LIG    1        7.841   4.011  -3.945  0.00  0.00    +0.050 A 
ATOM     25  C   LIG    1        7.702   2.916  -3.114  0.00  0.00    -0.030 A 
ATOM     26  C   LIG    1        6.457   2.321  -2.949  0.00  0.00    +0.170 A 
ATOM     27  C   LIG    1        5.354   2.825  -3.622  0.00  0.00    +0.000 A 
BRANCH  22  29
ATOM     28  C   LIG    1        4.526   4.948  -6.369  0.00  0.00    +0.510 C 
ATOM     29  N   LIG    1        4.384   4.445  -5.127  0.00  0.00    -0.680 N 
ATOM     30  H   LIG    1        3.512   4.439  -4.702  0.00  0.00    +0.410 HD
ATOM     31  O   LIG    1        5.628   5.032  -6.868  0.00  0.00    -0.520 OA
BRANCH  28  33
ATOM     32  C   LIG    1        3.748   5.932  -8.509  0.00  0.00    +0.040 C 
ATOM     33  C   LIG    1        3.314   5.408  -7.138  0.00  0.00    +0.060 C 
ENDBRANCH  28  33
ENDBRANCH  22  29
ENDBRANCH  18  26
ENDBRANCH   1  20
TORSDOF 6
