REMARK  Name = ZINCrH00000No4Xz.0
REMARK                            x       y       z     vdW  Elec       q    Type
REMARK                         _______ _______ _______ _____ _____    ______ ____
ROOT
ATOM      1  C   LIG    1       -4.418   1.014  -1.994  0.00  0.00    -0.290 A 
ATOM      2  C   LIG    1       -5.555   1.547  -2.634  0.00  0.00    +0.330 A 
ATOM      3  N   LIG    1       -5.752   2.666  -3.329  0.00  0.00    -0.430 NA
ATOM      4  C   LIG    1       -6.940   2.946  -3.840  0.00  0.00    +0.260 A 
ATOM      5  C   LIG    1       -8.015   2.053  -3.649  0.00  0.00    +0.010 A 
ATOM      6  C   LIG    1       -7.811   0.911  -2.949  0.00  0.00    +0.120 A 
ATOM      7  N   LIG    1       -6.573   0.657  -2.433  0.00  0.00    -0.300 N 
ATOM      8  N   LIG    1       -6.076  -0.406  -1.671  0.00  0.00    -0.290 NA
ATOM      9  C   LIG    1       -4.811  -0.204  -1.410  0.00  0.00    +0.340 A 
ENDROOT
BRANCH   4  10
ATOM     10  C   LIG    1       -7.141   4.195  -4.611  0.00  0.00    -0.080 A 
ATOM     11  C   LIG    1       -8.392   4.488  -5.154  0.00  0.00    +0.050 A 
ATOM     12  C   LIG    1       -8.574   5.655  -5.867  0.00  0.00    +0.000 A 
ATOM     13  C   LIG    1       -7.517   6.529  -6.052  0.00  0.00    +0.040 A 
ATOM     14  C   LIG    1       -6.273   6.240  -5.520  0.00  0.00    +0.000 A 
ATOM     15  C   LIG    1       -6.080   5.079  -4.800  0.00  0.00    +0.080 A 
ENDBRANCH   4  10
BRANCH   1  18
ATOM     16  N   LIG    1       -2.087   0.991  -1.284  0.00  0.00    -0.720 N 
ATOM     17  H   LIG    1       -2.254   0.142  -0.845  0.00  0.00    +0.410 HD
ATOM     18  C   LIG    1       -3.083   1.616  -1.942  0.00  0.00    +0.600 C 
ATOM     19  O   LIG    1       -2.874   2.681  -2.492  0.00  0.00    -0.520 OA
BRANCH  16  20
ATOM     20  C   LIG    1       -0.753   1.593  -1.232  0.00  0.00    +0.380 C 
BRANCH  20  21
ATOM     21  C   LIG    1        0.001   1.220  -2.440  0.00  0.00    +0.190 C 
ATOM     22  N   LIG    1        0.583   0.932  -3.372  0.00  0.00    -0.410 NA
ENDBRANCH  20  21
BRANCH  20  23
ATOM     23  C   LIG    1       -0.013   1.086   0.008  0.00  0.00    +0.050 C 
BRANCH  23  25
ATOM     24  C   LIG    1        0.011   1.072   2.506  0.00  0.00    +0.030 C 
ATOM     25  C   LIG    1       -0.729   1.579   1.267  0.00  0.00    +0.020 C 
ENDBRANCH  23  25
ENDBRANCH  20  23
ENDBRANCH  16  20
ENDBRANCH   1  18
BRANCH   6  26
ATOM     26  C   LIG    1       -8.942  -0.060  -2.728  0.00  0.00    +0.480 C 
ATOM     27  F   LIG    1       -9.175  -0.200  -1.356  0.00  0.00    -0.180 F 
ATOM     28  F   LIG    1       -8.602  -1.303  -3.273  0.00  0.00    -0.180 F 
ENDBRANCH   6  26
TORSDOF 7
