REMARK  Name = ZINCpe000000Zzqj.0
REMARK                            x       y       z     vdW  Elec       q    Type
REMARK                         _______ _______ _______ _____ _____    ______ ____
ROOT
ATOM      1  N   LIG    1        4.782  -0.254  -0.383  0.00  0.00    -0.530 NA
ATOM      2  C   LIG    1        4.830   1.043   0.312  0.00  0.00    +0.190 C 
ATOM      3  C   LIG    1        3.632   1.884  -0.141  0.00  0.00    +0.280 C 
ATOM      4  N   LIG    1        2.402   1.106  -0.015  0.00  0.00    -0.570 N 
ATOM      5  C   LIG    1        2.392  -0.227   0.079  0.00  0.00    +0.530 C 
ATOM      6  O   LIG    1        1.323  -0.797   0.144  0.00  0.00    -0.530 OA
ATOM      7  C   LIG    1        3.649  -1.050   0.109  0.00  0.00    +0.240 C 
ENDROOT
BRANCH   4   8
ATOM      8  C   LIG    1        1.180   1.787   0.000  0.00  0.00    +0.130 A 
ATOM      9  C   LIG    1        0.629   2.199   1.206  0.00  0.00    +0.010 A 
ATOM     10  C   LIG    1       -0.581   2.866   1.219  0.00  0.00    +0.020 A 
ATOM     11  C   LIG    1       -1.237   3.133   0.032  0.00  0.00    +0.020 A 
ATOM     12  C   LIG    1       -0.691   2.724  -1.171  0.00  0.00    +0.020 A 
ATOM     13  C   LIG    1        0.515   2.052  -1.190  0.00  0.00    +0.010 A 
ENDBRANCH   4   8
BRANCH   1  14
ATOM     14  C   LIG    1        6.046  -0.984  -0.224  0.00  0.00    +0.180 C 
BRANCH  14  15
ATOM     15  C   LIG    1        6.044  -2.213  -1.135  0.00  0.00    +0.370 C 
BRANCH  15  18
ATOM     16  O   LIG    1        6.762  -4.367   0.730  0.00  0.00    -0.540 OA
ATOM     17  C   LIG    1        7.551  -3.925  -0.086  0.00  0.00    +0.640 A 
ATOM     18  N   LIG    1        7.305  -2.941  -0.976  0.00  0.00    -0.430 N 
ATOM     19  N   LIG    1        8.477  -2.738  -1.718  0.00  0.00    -0.280 NA
ATOM     20  C   LIG    1        9.383  -3.581  -1.279  0.00  0.00    +0.300 A 
ATOM     21  C   LIG    1       10.729  -3.811  -1.661  0.00  0.00    +0.040 A 
ATOM     22  C   LIG    1       11.446  -4.767  -1.022  0.00  0.00    +0.110 A 
ATOM     23  C   LIG    1       10.850  -5.519   0.011  0.00  0.00    -0.020 A 
ATOM     24  C   LIG    1        9.573  -5.297   0.370  0.00  0.00    +0.300 A 
ATOM     25  N   LIG    1        8.824  -4.333  -0.263  0.00  0.00    -0.480 N 
ENDBRANCH  15  18
ENDBRANCH  14  15
ENDBRANCH   1  14
TORSDOF 4
