REMARK  Name = ZINCvU0000000JZX.0
REMARK                            x       y       z     vdW  Elec       q    Type
REMARK                         _______ _______ _______ _____ _____    ______ ____
ROOT
ATOM      1  O   LIG    1        4.129  -1.620   1.363  0.00  0.00    -0.520 OA
ATOM      2  C   LIG    1        4.299  -0.578   1.965  0.00  0.00    +0.580 C 
ATOM      3  C   LIG    1        4.724  -0.592   3.376  0.00  0.00    -0.200 A 
ATOM      4  C   LIG    1        5.213  -1.745   3.982  0.00  0.00    +0.110 A 
ATOM      5  C   LIG    1        5.594  -1.707   5.309  0.00  0.00    -0.050 A 
ATOM      6  C   LIG    1        5.490  -0.533   6.037  0.00  0.00    +0.080 A 
ATOM      7  C   LIG    1        5.008   0.620   5.447  0.00  0.00    -0.050 A 
ATOM      8  C   LIG    1        4.625   0.599   4.117  0.00  0.00    +0.250 A 
ATOM      9  N   LIG    1        4.142   1.733   3.473  0.00  0.00    -0.730 N 
ATOM     10  H   LIG    1        3.663   2.417   3.966  0.00  0.00    +0.420 HD
ATOM     11  C   LIG    1        4.380   1.871   2.028  0.00  0.00    +0.550 C 
ATOM     12  N   LIG    1        4.100   0.606   1.349  0.00  0.00    -0.620 N 
ENDROOT
BRANCH  11  13
ATOM     13  C   LIG    1        5.817   2.258   1.788  0.00  0.00    -0.160 A 
ATOM     14  C   LIG    1        6.480   1.794   0.669  0.00  0.00    +0.070 A 
ATOM     15  C   LIG    1        7.799   2.148   0.449  0.00  0.00    -0.030 A 
ATOM     16  C   LIG    1        8.456   2.968   1.347  0.00  0.00    +0.060 A 
ATOM     17  C   LIG    1        7.796   3.435   2.468  0.00  0.00    -0.080 A 
ATOM     18  C   LIG    1        6.472   3.086   2.688  0.00  0.00    +0.160 A 
BRANCH  18  19
ATOM     19  O   LIG    1        5.820   3.548   3.787  0.00  0.00    -0.300 OA
BRANCH  19  20
ATOM     20  C   LIG    1        6.557   4.396   4.670  0.00  0.00    +0.240 C 
BRANCH  20  21
ATOM     21  C   LIG    1        5.677   4.808   5.822  0.00  0.00    -0.100 A 
ATOM     22  C   LIG    1        4.917   5.958   5.734  0.00  0.00    +0.020 A 
ATOM     23  C   LIG    1        4.106   6.334   6.790  0.00  0.00    +0.010 A 
ATOM     24  C   LIG    1        4.063   5.563   7.936  0.00  0.00    +0.010 A 
ATOM     25  C   LIG    1        4.828   4.415   8.026  0.00  0.00    +0.010 A 
ATOM     26  C   LIG    1        5.635   4.037   6.970  0.00  0.00    +0.020 A 
ENDBRANCH  20  21
ENDBRANCH  19  20
ENDBRANCH  18  19
ENDBRANCH  11  13
BRANCH  12  27
ATOM     27  C   LIG    1        3.599   0.625  -0.028  0.00  0.00    +0.410 C 
BRANCH  27  28
ATOM     28  C   LIG    1        2.092   0.660  -0.014  0.00  0.00    -0.030 A 
ATOM     29  C   LIG    1        1.331   1.769  -0.001  0.00  0.00    -0.050 A 
ATOM     30  C   LIG    1       -0.016   1.341   0.009  0.00  0.00    -0.070 A 
ATOM     31  C   LIG    1        0.002  -0.004   0.002  0.00  0.00    +0.170 A 
ATOM     32  O   LIG    1        1.282  -0.411  -0.012  0.00  0.00    -0.160 OA
ENDBRANCH  27  28
ENDBRANCH  12  27
TORSDOF 6
