REMARK  Name = ZINCrD0000072MvO.0
REMARK                            x       y       z     vdW  Elec       q    Type
REMARK                         _______ _______ _______ _____ _____    ______ ____
ROOT
ATOM      1  O   LIG    1        2.271   1.209   0.939  0.00  0.00    -0.320 OA
ENDROOT
BRANCH   1   2
ATOM      2  C   LIG    1        1.401   1.607  -0.003  0.00  0.00    +0.440 C 
ATOM      3  O   LIG    1        1.752   2.384  -0.859  0.00  0.00    -0.490 OA
BRANCH   2   4
ATOM      4  C   LIG    1       -0.013   1.086   0.008  0.00  0.00    +0.270 C 
BRANCH   4   5
ATOM      5  O   LIG    1       -0.704   1.559  -1.150  0.00  0.00    -0.520 OA
ATOM      6  H   LIG    1       -0.756   2.523  -1.210  0.00  0.00    +0.380 HD
ENDBRANCH   4   5
BRANCH   4   7
ATOM      7  C   LIG    1       -0.729   1.579   1.267  0.00  0.00    +0.080 C 
BRANCH   7   8
ATOM      8  C   LIG    1       -2.100   0.959   1.340  0.00  0.00    -0.120 A 
ATOM      9  C   LIG    1       -3.180   1.601   0.761  0.00  0.00    +0.060 A 
ATOM     10  C   LIG    1       -4.437   1.032   0.822  0.00  0.00    -0.080 A 
ATOM     11  C   LIG    1       -4.618  -0.179   1.474  0.00  0.00    +0.130 A 
ATOM     12  C   LIG    1       -3.535  -0.818   2.060  0.00  0.00    -0.020 A 
ATOM     13  C   LIG    1       -2.279  -0.247   1.991  0.00  0.00    +0.060 A 
BRANCH  11  14
ATOM     14  O   LIG    1       -5.855  -0.738   1.540  0.00  0.00    -0.320 OA
ATOM     15  C   LIG    1       -6.924  -0.024   0.915  0.00  0.00    +0.250 C 
ENDBRANCH  11  14
ENDBRANCH   7   8
ENDBRANCH   4   7
ENDBRANCH   2   4
ENDBRANCH   1   2
BRANCH   1  16
ATOM     16  C   LIG    1        3.615   1.752   0.867  0.00  0.00    +0.290 C 
BRANCH  16  17
ATOM     17  C   LIG    1        4.197   1.839   2.255  0.00  0.00    -0.090 A 
ATOM     18  C   LIG    1        4.956   2.936   2.618  0.00  0.00    +0.080 A 
ATOM     19  C   LIG    1        5.489   3.018   3.890  0.00  0.00    +0.050 A 
ATOM     20  C   LIG    1        5.264   2.002   4.801  0.00  0.00    -0.020 A 
ATOM     21  C   LIG    1        4.504   0.903   4.437  0.00  0.00    -0.030 A 
ATOM     22 CL   LIG    1        4.220  -0.373   5.579  0.00  0.00    -0.040 Cl
ATOM     23 CL   LIG    1        5.934   2.104   6.399  0.00  0.00    -0.040 Cl
ATOM     24  C   LIG    1        3.966   0.825   3.165  0.00  0.00    +0.080 A 
ENDBRANCH  16  17
BRANCH  16  25
ATOM     25  C   LIG    1        4.475   0.853   0.017  0.00  0.00    +0.450 C 
ATOM     26  O   LIG    1        4.004  -0.144  -0.477  0.00  0.00    -0.480 OA
BRANCH  25  28
ATOM     27  C   LIG    1        6.534   0.247  -1.019  0.00  0.00    +0.280 C 
ATOM     28  O   LIG    1        5.766   1.159  -0.191  0.00  0.00    -0.350 OA
ENDBRANCH  25  28
ENDBRANCH  16  25
ENDBRANCH   1  16
TORSDOF 10
