REMARK  Name = ZINCtV000002swP5.0
REMARK                            x       y       z     vdW  Elec       q    Type
REMARK                         _______ _______ _______ _____ _____    ______ ____
ROOT
ATOM      1  C   LIG    1       -5.564   3.263  -2.228  0.00  0.00    -0.010 A 
ATOM      2  C   LIG    1       -5.144   4.400  -1.564  0.00  0.00    -0.010 A 
ATOM      3  C   LIG    1       -3.797   4.702  -1.493  0.00  0.00    +0.040 A 
ATOM      4  C   LIG    1       -2.869   3.866  -2.086  0.00  0.00    -0.710 A 
ATOM      5  C   LIG    1       -3.289   2.731  -2.754  0.00  0.00    +0.030 A 
ATOM      6  C   LIG    1       -4.636   2.427  -2.821  0.00  0.00    -0.010 A 
ENDROOT
BRANCH   1   8
ATOM      7  C   LIG    1       -7.468   2.881  -3.769  0.00  0.00    +0.030 C 
ATOM      8  C   LIG    1       -7.032   2.934  -2.304  0.00  0.00    +0.020 C 
ATOM      9  C   LIG    1       -7.285   1.575  -1.647  0.00  0.00    +0.030 C 
ENDBRANCH   1   8
BRANCH   5  10
ATOM     10  C   LIG    1       -2.279   1.823  -3.406  0.00  0.00    -0.010 C 
ATOM     11  C   LIG    1       -2.596   1.693  -4.897  0.00  0.00    +0.040 C 
ATOM     12  C   LIG    1       -2.337   0.441  -2.750  0.00  0.00    +0.060 C 
ENDBRANCH   5  10
BRANCH   4  13
ATOM     13  S   LIG    1       -1.152   4.250  -1.996  0.00  0.00    +2.670 S 
ATOM     14  O   LIG    1       -1.066   5.613  -1.604  0.00  0.00    -0.940 OA
ATOM     15  O   LIG    1       -0.542   3.192  -1.268  0.00  0.00    -0.930 OA
BRANCH  13  16
ATOM     16  O   LIG    1       -0.598   4.173  -3.411  0.00  0.00    -0.650 OA
BRANCH  16  17
ATOM     17  C   LIG    1       -0.921   5.239  -4.189  0.00  0.00    +0.100 A 
ATOM     18  C   LIG    1       -2.123   5.279  -4.836  0.00  0.00    +0.050 A 
ATOM     19  C   LIG    1       -2.470   6.363  -5.638  0.00  0.00    +0.030 A 
ATOM     20  C   LIG    1       -1.623   7.417  -5.796  0.00  0.00    +0.070 A 
ATOM     21  C   LIG    1       -0.380   7.416  -5.143  0.00  0.00    -0.090 A 
ATOM     22  C   LIG    1        0.522   8.487  -5.282  0.00  0.00    +0.100 A 
ATOM     23  C   LIG    1        1.714   8.416  -4.618  0.00  0.00    -0.020 A 
ATOM     24  C   LIG    1        2.006   7.305  -3.830  0.00  0.00    +0.320 A 
ATOM     25  N   LIG    1        1.162   6.309  -3.703  0.00  0.00    -0.470 NA
ATOM     26  C   LIG    1       -0.019   6.316  -4.325  0.00  0.00    +0.140 A 
ENDBRANCH  16  17
ENDBRANCH  13  16
ENDBRANCH   4  13
BRANCH   3  27
ATOM     27  C   LIG    1       -3.339   5.942  -0.769  0.00  0.00    +0.020 C 
ATOM     28  C   LIG    1       -4.276   6.220   0.408  0.00  0.00    +0.030 C 
ATOM     29  C   LIG    1       -3.362   7.131  -1.731  0.00  0.00    +0.050 C 
ENDBRANCH   3  27
TORSDOF 6
