REMARK  Name = ZINCrD000000ADfz.0
REMARK                            x       y       z     vdW  Elec       q    Type
REMARK                         _______ _______ _______ _____ _____    ______ ____
ROOT
ATOM      1  O   LIG    1       -2.153  -0.691  -1.844  0.00  0.00    -0.520 OA
ATOM      2  C   LIG    1       -3.053  -0.665  -1.031  0.00  0.00    +0.500 C 
ATOM      3  N   LIG    1       -4.318  -0.434  -1.434  0.00  0.00    -0.610 N 
ATOM      4  C   LIG    1       -5.420  -0.405  -0.462  0.00  0.00    +0.280 C 
ATOM      5  C   LIG    1       -6.183   0.918  -0.627  0.00  0.00    +0.010 C 
ATOM      6  C   LIG    1       -6.627   1.066  -2.084  0.00  0.00    +0.170 C 
ATOM      7  C   LIG    1       -5.396   1.103  -2.993  0.00  0.00    +0.040 C 
ATOM      8  C   LIG    1       -4.623  -0.212  -2.854  0.00  0.00    +0.300 C 
ENDROOT
BRANCH   6   9
ATOM      9  O   LIG    1       -7.367   2.279  -2.236  0.00  0.00    -0.300 OA
BRANCH   9  10
ATOM     10  C   LIG    1       -8.694   2.232  -1.944  0.00  0.00    +0.140 A 
ATOM     11  C   LIG    1       -9.248   1.077  -1.415  0.00  0.00    -0.060 A 
ATOM     12  C   LIG    1      -10.598   1.032  -1.120  0.00  0.00    +0.060 A 
ATOM     13  C   LIG    1      -11.395   2.137  -1.352  0.00  0.00    -0.020 A 
ATOM     14  C   LIG    1      -10.845   3.291  -1.879  0.00  0.00    +0.070 A 
ATOM     15  C   LIG    1       -9.495   3.344  -2.170  0.00  0.00    -0.070 A 
ATOM     16 CL   LIG    1       -8.803   4.795  -2.825  0.00  0.00    -0.060 Cl
ENDBRANCH   9  10
ENDBRANCH   6   9
BRANCH   2  17
ATOM     17  C   LIG    1       -2.757  -0.890   0.429  0.00  0.00    +0.370 C 
BRANCH  17  18
ATOM     18  N   LIG    1       -1.320  -1.117   0.606  0.00  0.00    -0.530 N 
ATOM     19  C   LIG    1       -0.691  -2.308   0.568  0.00  0.00    +0.640 A 
ATOM     20  O   LIG    1        0.624  -2.126   0.771  0.00  0.00    -0.230 OA
ATOM     21  C   LIG    1        0.868  -0.805   0.946  0.00  0.00    +0.040 A 
ATOM     22  C   LIG    1        2.026  -0.081   1.184  0.00  0.00    +0.060 A 
ATOM     23  C   LIG    1        1.964   1.292   1.321  0.00  0.00    +0.030 A 
ATOM     24  C   LIG    1        0.751   1.950   1.222  0.00  0.00    +0.040 A 
ATOM     25  C   LIG    1       -0.408   1.238   0.984  0.00  0.00    +0.030 A 
ATOM     26  O   LIG    1       -1.230  -3.382   0.379  0.00  0.00    -0.480 OA
ATOM     27  C   LIG    1       -0.354  -0.140   0.845  0.00  0.00    +0.080 A 
ENDBRANCH  17  18
ENDBRANCH   2  17
TORSDOF 4
