REMARK  Name = ZINCrH000004qY7H.0
REMARK                            x       y       z     vdW  Elec       q    Type
REMARK                         _______ _______ _______ _____ _____    ______ ____
ROOT
ATOM      1  C   LIG    1        7.701  -0.799  -0.006  0.00  0.00    +0.590 C 
ATOM      2  N   LIG    1        6.370  -1.007  -0.033  0.00  0.00    -0.590 N 
ATOM      3  C   LIG    1        5.661  -1.198  -1.308  0.00  0.00    +0.300 C 
ATOM      4  C   LIG    1        4.467  -0.237  -1.349  0.00  0.00    +0.180 C 
ATOM      5  N   LIG    1        3.646  -0.430  -0.146  0.00  0.00    -0.490 N 
ATOM      6  C   LIG    1        4.397  -0.096   1.071  0.00  0.00    +0.180 C 
ATOM      7  C   LIG    1        5.587  -1.050   1.212  0.00  0.00    +0.290 C 
ATOM      8  O   LIG    1        8.335  -0.786  -1.044  0.00  0.00    -0.530 OA
ENDROOT
BRANCH   5   9
ATOM      9  C   LIG    1        2.461   0.310  -0.224  0.00  0.00    +0.060 A 
ATOM     10  C   LIG    1        2.511   1.691  -0.349  0.00  0.00    -0.010 A 
ATOM     11  C   LIG    1        1.339   2.420  -0.426  0.00  0.00    +0.010 A 
ATOM     12  C   LIG    1        0.116   1.777  -0.379  0.00  0.00    +0.030 A 
ATOM     13  C   LIG    1        0.059   0.400  -0.255  0.00  0.00    -0.010 A 
ATOM     14  C   LIG    1        1.228  -0.337  -0.177  0.00  0.00    +0.130 A 
BRANCH  14  15
ATOM     15  O   LIG    1        1.173  -1.691  -0.055  0.00  0.00    -0.480 OA
ATOM     16  H   LIG    1        1.166  -2.162  -0.900  0.00  0.00    +0.390 HD
ENDBRANCH  14  15
ENDBRANCH   5   9
BRANCH   1  19
ATOM     17  C   LIG    1        8.506  -0.531   3.499  0.00  0.00    +0.100 A 
ATOM     18  N   LIG    1        7.778  -0.748   2.446  0.00  0.00    -0.430 NA
ATOM     19  C   LIG    1        8.388  -0.587   1.280  0.00  0.00    +0.020 A 
ATOM     20  C   LIG    1        9.684  -0.209   1.356  0.00  0.00    -0.030 A 
ATOM     21  S   LIG    1       10.128  -0.064   3.001  0.00  0.00    +0.200 S 
BRANCH  17  26
ATOM     22  C   LIG    1        6.705  -1.003   8.945  0.00  0.00    +0.100 C 
ATOM     23  C   LIG    1        7.176  -0.879   7.519  0.00  0.00    -0.060 A 
ATOM     24  C   LIG    1        8.481  -0.502   7.255  0.00  0.00    +0.010 A 
ATOM     25  C   LIG    1        8.919  -0.387   5.952  0.00  0.00    +0.040 A 
ATOM     26  C   LIG    1        8.043  -0.652   4.899  0.00  0.00    -0.040 A 
ATOM     27  C   LIG    1        6.727  -1.026   5.171  0.00  0.00    +0.070 A 
ATOM     28  C   LIG    1        6.303  -1.143   6.479  0.00  0.00    +0.010 A 
ENDBRANCH  17  26
ENDBRANCH   1  19
TORSDOF 4
