REMARK  Name = ZINCpk000005U6pH.0
REMARK                            x       y       z     vdW  Elec       q    Type
REMARK                         _______ _______ _______ _____ _____    ______ ____
ROOT
ATOM      1  C   LIG    1       -4.609   0.568   1.281  0.00  0.00    +0.190 A 
ATOM      2  N   LIG    1       -4.843  -0.396   2.139  0.00  0.00    -0.460 NA
ATOM      3  C   LIG    1       -6.061  -0.871   1.826  0.00  0.00    +0.170 A 
ATOM      4  N   LIG    1       -6.499  -0.185   0.813  0.00  0.00    -0.380 NA
ATOM      5  O   LIG    1       -5.682   0.651   0.488  0.00  0.00    +0.090 OA
ENDROOT
BRANCH   1   6
ATOM      6  C   LIG    1       -3.371   1.423   1.207  0.00  0.00    +0.320 C 
BRANCH   6   7
ATOM      7  N   LIG    1       -3.756   2.830   1.035  0.00  0.00    -0.830 NA
ATOM      8  H   LIG    1       -4.289   2.958   0.187  0.00  0.00    +0.350 HD
ATOM      9  H   LIG    1       -2.946   3.432   1.047  0.00  0.00    +0.370 HD
ENDBRANCH   6   7
BRANCH   6  10
ATOM     10  C   LIG    1       -2.515   0.980   0.019  0.00  0.00    +0.100 C 
BRANCH  10  11
ATOM     11  C   LIG    1       -1.220   1.751   0.017  0.00  0.00    +0.080 A 
ATOM     12  C   LIG    1       -0.013   1.076   0.008  0.00  0.00    +0.230 A 
ATOM     13  N   LIG    1        1.123   1.752   0.001  0.00  0.00    -0.430 NA
ATOM     14  C   LIG    1        1.105   3.073   0.008  0.00  0.00    +0.220 A 
ATOM     15  C   LIG    1       -0.103   3.749   0.022  0.00  0.00    +0.240 A 
ATOM     16  N   LIG    1       -1.238   3.072   0.029  0.00  0.00    -0.440 NA
ENDBRANCH  10  11
ENDBRANCH   6  10
ENDBRANCH   1   6
BRANCH   3  17
ATOM     17  C   LIG    1       -6.787  -1.993   2.523  0.00  0.00    +0.210 C 
BRANCH  17  18
ATOM     18  C   LIG    1       -7.634  -1.423   3.662  0.00  0.00    +0.150 C 
ATOM     19  C   LIG    1       -8.471  -2.543   4.296  0.00  0.00    +0.240 C 
ATOM     20  O   LIG    1       -9.240  -1.978   5.364  0.00  0.00    -0.300 OA
ATOM     21  C   LIG    1       -8.581  -1.153   6.222  0.00  0.00    +0.050 A 
ATOM     22  C   LIG    1       -9.144  -0.864   7.456  0.00  0.00    +0.030 A 
ATOM     23  C   LIG    1       -8.488  -0.025   8.337  0.00  0.00    +0.010 A 
ATOM     24  C   LIG    1       -7.269   0.528   7.991  0.00  0.00    +0.020 A 
ATOM     25  C   LIG    1       -6.702   0.242   6.763  0.00  0.00    +0.020 A 
ATOM     26  C   LIG    1       -7.354  -0.599   5.875  0.00  0.00    +0.050 A 
ATOM     27  O   LIG    1       -6.780  -0.875   4.672  0.00  0.00    -0.290 OA
ENDBRANCH  17  18
ENDBRANCH   3  17
TORSDOF 6
