REMARK  Name = ZINCb70000003YRn.0
REMARK                            x       y       z     vdW  Elec       q    Type
REMARK                         _______ _______ _______ _____ _____    ______ ____
ROOT
ATOM      1  C   LIG    1       -1.599   1.309  -4.349  0.00  0.00    +0.110 C 
ATOM      2  C   LIG    1       -0.299   1.768  -3.679  0.00  0.00    +0.020 C 
ATOM      3  C   LIG    1       -0.319   3.286  -3.517  0.00  0.00    +0.270 C 
ATOM      4  O   LIG    1       -1.204   3.641  -2.451  0.00  0.00    -0.350 OA
ATOM      5  C   LIG    1       -0.757   3.123  -1.195  0.00  0.00    +0.280 C 
ATOM      6  C   LIG    1       -0.759   1.597  -1.242  0.00  0.00    +0.020 C 
ATOM      7  C   LIG    1       -2.202   1.086  -1.158  0.00  0.00    +0.120 C 
ATOM      8  C   LIG    1        0.863   1.411  -4.630  0.00  0.00    +0.100 C 
ATOM      9  N   LIG    1       -0.085   1.070  -2.420  0.00  0.00    -0.490 N 
ATOM     10  H   LIG    1       -0.360   0.092  -2.540  0.00  0.00    +0.430 HD
ATOM     11  H   LIG    1        0.921   1.044  -2.232  0.00  0.00    +0.420 HD
ENDROOT
BRANCH   6  12
ATOM     12  C   LIG    1       -0.013   1.086   0.008  0.00  0.00    +0.210 C 
BRANCH  12  13
ATOM     13  O   LIG    1       -0.682   1.547   1.184  0.00  0.00    -0.550 OA
ATOM     14  H   LIG    1       -0.266   1.262   2.009  0.00  0.00    +0.410 HD
ENDBRANCH  12  13
ENDBRANCH   6  12
TORSDOF 2
