REMARK  Name = ZINCrH000004rOJw.0
REMARK                            x       y       z     vdW  Elec       q    Type
REMARK                         _______ _______ _______ _____ _____    ______ ____
ROOT
ATOM      1  C   LIG    1       -0.294   0.486  -0.068  0.00  0.00    -0.020 C 
ATOM      2  C   LIG    1        1.212   0.661  -0.277  0.00  0.00    +0.050 C 
ATOM      3  C   LIG    1        1.964   0.136   0.948  0.00  0.00    +0.010 C 
ATOM      4  C   LIG    1        1.550   0.946   2.181  0.00  0.00    +0.260 C 
ATOM      5  N   LIG    1        0.087   0.902   2.306  0.00  0.00    -0.600 N 
ATOM      6  C   LIG    1       -0.493   0.505   3.457  0.00  0.00    +0.560 C 
ATOM      7  O   LIG    1       -1.702   0.538   3.571  0.00  0.00    -0.530 OA
ATOM      8  C   LIG    1       -0.733   1.299   1.154  0.00  0.00    +0.300 C 
ENDROOT
BRANCH   6   9
ATOM      9  C   LIG    1        0.343   0.028   4.579  0.00  0.00    -0.120 A 
ATOM     10  C   LIG    1        1.424   0.792   5.022  0.00  0.00    +0.030 A 
ATOM     11  C   LIG    1        2.197   0.344   6.073  0.00  0.00    -0.080 A 
ATOM     12  C   LIG    1        1.910  -0.865   6.681  0.00  0.00    +0.030 A 
ATOM     13  C   LIG    1        0.843  -1.630   6.243  0.00  0.00    -0.080 A 
ATOM     14  C   LIG    1        0.537  -2.946   6.911  0.00  0.00    +0.090 C 
ATOM     15  C   LIG    1        3.361   1.171   6.556  0.00  0.00    +0.090 C 
ATOM     16  C   LIG    1        0.059  -1.191   5.197  0.00  0.00    +0.050 A 
ENDBRANCH   6   9
BRANCH   1  19
ATOM     17  N   LIG    1       -2.377   0.916  -1.330  0.00  0.00    -0.730 N 
ATOM     18  H   LIG    1       -2.871   0.563  -0.573  0.00  0.00    +0.400 HD
ATOM     19  C   LIG    1       -1.031   0.973  -1.289  0.00  0.00    +0.520 C 
ATOM     20  O   LIG    1       -0.414   1.415  -2.234  0.00  0.00    -0.530 OA
BRANCH  17  21
ATOM     21  C   LIG    1       -3.094   1.389  -2.516  0.00  0.00    +0.320 C 
BRANCH  21  27
ATOM     22  C   LIG    1       -7.233  -1.396  -2.911  0.00  0.00    +0.090 C 
ATOM     23  C   LIG    1       -6.558  -0.114  -2.498  0.00  0.00    -0.090 A 
ATOM     24  C   LIG    1       -7.298   0.905  -1.929  0.00  0.00    +0.010 A 
ATOM     25  C   LIG    1       -6.678   2.081  -1.549  0.00  0.00    +0.010 A 
ATOM     26  C   LIG    1       -5.318   2.238  -1.740  0.00  0.00    +0.010 A 
ATOM     27  C   LIG    1       -4.577   1.218  -2.309  0.00  0.00    -0.110 A 
ATOM     28  C   LIG    1       -5.198   0.045  -2.692  0.00  0.00    +0.020 A 
ENDBRANCH  21  27
ENDBRANCH  17  21
ENDBRANCH   1  19
TORSDOF 4
