REMARK  Name = ZINCpk00000dGXUB.0
REMARK                            x       y       z     vdW  Elec       q    Type
REMARK                         _______ _______ _______ _____ _____    ______ ____
ROOT
ATOM      1  C   LIG    1        0.002  -0.004   0.002  0.00  0.00    +0.620 C 
ATOM      2  N   LIG    1       -1.150  -0.694   0.111  0.00  0.00    -0.640 N 
ATOM      3  C   LIG    1       -2.587  -0.374   0.170  0.00  0.00    +0.270 C 
ATOM      4  C   LIG    1       -2.852  -1.756  -0.464  0.00  0.00    -0.010 C 
ATOM      5  C   LIG    1       -2.771  -1.700  -1.992  0.00  0.00    +0.030 C 
ATOM      6  C   LIG    1       -2.117  -2.984  -2.510  0.00  0.00    +0.280 C 
ATOM      7  N   LIG    1       -0.787  -3.098  -1.904  0.00  0.00    -0.590 N 
ATOM      8  C   LIG    1       -0.630  -3.093  -0.456  0.00  0.00    +0.310 C 
ATOM      9  C   LIG    1        0.299  -3.210  -2.694  0.00  0.00    +0.650 C 
ATOM     10  O   LIG    1        1.404  -3.305  -2.197  0.00  0.00    -0.550 OA
ATOM     11  C   LIG    1       -1.540  -2.101   0.231  0.00  0.00    +0.230 C 
ATOM     12  O   LIG    1        1.059  -0.598  -0.100  0.00  0.00    -0.510 OA
ENDROOT
BRANCH   1  18
ATOM     13  C   LIG    1        0.330   4.286  -2.423  0.00  0.00    +0.310 C 
ATOM     14  N   LIG    1        0.142   3.541  -1.175  0.00  0.00    -0.500 N 
ATOM     15  C   LIG    1       -0.051   4.218  -0.018  0.00  0.00    +0.320 A 
ATOM     16  C   LIG    1       -0.229   3.563   1.159  0.00  0.00    -0.090 A 
ATOM     17  C   LIG    1       -0.216   2.169   1.193  0.00  0.00    +0.170 A 
ATOM     18  C   LIG    1       -0.018   1.467   0.006  0.00  0.00    -0.260 A 
ATOM     19  C   LIG    1        0.169   2.195  -1.197  0.00  0.00    +0.530 A 
ATOM     20  O   LIG    1        0.348   1.604  -2.248  0.00  0.00    -0.530 OA
ENDBRANCH   1  18
BRANCH   9  21
ATOM     21  O   LIG    1        0.161  -3.216  -4.033  0.00  0.00    -0.360 OA
BRANCH  21  22
ATOM     22  C   LIG    1        1.374  -3.339  -4.821  0.00  0.00    +0.140 C 
ATOM     23  C   LIG    1        2.306  -2.166  -4.510  0.00  0.00    +0.040 C 
ATOM     24  C   LIG    1        1.019  -3.327  -6.309  0.00  0.00    +0.080 C 
ATOM     25  C   LIG    1        2.076  -4.654  -4.475  0.00  0.00    +0.040 C 
ENDBRANCH  21  22
ENDBRANCH   9  21
TORSDOF 3
