REMARK  Name = ZINCpe00000gMLfZ.0
REMARK                            x       y       z     vdW  Elec       q    Type
REMARK                         _______ _______ _______ _____ _____    ______ ____
ROOT
ATOM      1  C   LIG    1       -2.744   0.207  -1.095  0.00  0.00    +0.070 C 
ATOM      2  C   LIG    1       -2.479   1.070   0.141  0.00  0.00    +0.190 C 
ENDROOT
BRANCH   2   3
ATOM      3  C   LIG    1       -1.126   1.723   0.016  0.00  0.00    +0.520 C 
ATOM      4  N   LIG    1       -0.011   0.966   0.007  0.00  0.00    -0.670 N 
ATOM      5  H   LIG    1       -0.081  -0.002   0.015  0.00  0.00    +0.410 HD
ATOM      6  O   LIG    1       -1.041   2.929  -0.076  0.00  0.00    -0.490 OA
BRANCH   4   7
ATOM      7  C   LIG    1        1.243   1.573  -0.019  0.00  0.00    +0.190 A 
ATOM      8  C   LIG    1        1.430   2.757  -0.719  0.00  0.00    +0.030 A 
ATOM      9  C   LIG    1        2.674   3.357  -0.744  0.00  0.00    +0.070 A 
ATOM     10  C   LIG    1        3.742   2.785  -0.073  0.00  0.00    +0.010 A 
ATOM     11  C   LIG    1        3.575   1.609   0.627  0.00  0.00    +0.090 A 
ATOM     12  C   LIG    1        2.322   0.994   0.666  0.00  0.00    -0.060 A 
BRANCH  12  13
ATOM     13  C   LIG    1        2.140  -0.225   1.397  0.00  0.00    +0.250 C 
ATOM     14  N   LIG    1        1.996  -1.191   1.976  0.00  0.00    -0.410 NA
ENDBRANCH  12  13
ENDBRANCH   4   7
ENDBRANCH   2   3
BRANCH   2  15
ATOM     15  O   LIG    1       -3.503   2.094   0.245  0.00  0.00    -0.330 OA
BRANCH  15  16
ATOM     16  C   LIG    1       -4.604   1.786   0.948  0.00  0.00    +0.440 C 
ATOM     17  O   LIG    1       -4.708   0.696   1.460  0.00  0.00    -0.470 OA
BRANCH  16  18
ATOM     18  C   LIG    1       -5.709   2.799   1.100  0.00  0.00    +0.290 C 
ATOM     19  C   LIG    1       -6.284   3.160  -0.286  0.00  0.00    +0.060 C 
ATOM     20  C   LIG    1       -7.804   3.293  -0.008  0.00  0.00    +0.040 C 
ATOM     21  C   LIG    1       -8.023   2.191   1.058  0.00  0.00    +0.280 C 
ATOM     22  N   LIG    1       -6.807   2.226   1.892  0.00  0.00    -1.000 NA
BRANCH  22  23
ATOM     23  S   LIG    1       -6.697   1.705   3.460  0.00  0.00    +2.620 S 
ATOM     24  O   LIG    1       -5.329   1.355   3.618  0.00  0.00    -0.930 OA
ATOM     25  O   LIG    1       -7.721   0.727   3.577  0.00  0.00    -0.940 OA
ATOM     26  C   LIG    1       -7.099   3.169   4.452  0.00  0.00    -0.290 C 
ENDBRANCH  22  23
ENDBRANCH  16  18
ENDBRANCH  15  16
ENDBRANCH   2  15
TORSDOF 7
