REMARK  Name = ZINCrg00000c0NnR.0
REMARK                            x       y       z     vdW  Elec       q    Type
REMARK                         _______ _______ _______ _____ _____    ______ ____
ROOT
ATOM      1  C   LIG    1        1.424   3.388   0.474  0.00  0.00    +0.600 C 
ATOM      2  N   LIG    1        2.721   3.645   0.214  0.00  0.00    -0.700 N 
ATOM      3  H   LIG    1        3.324   2.918  -0.010  0.00  0.00    +0.410 HD
ATOM      4  O   LIG    1        0.668   4.298   0.756  0.00  0.00    -0.510 OA
ENDROOT
BRANCH   2   5
ATOM      5  C   LIG    1        3.221   5.021   0.271  0.00  0.00    +0.270 C 
ATOM      6  C   LIG    1        2.970   5.694  -1.046  0.00  0.00    -0.050 C 
ATOM      7  C   LIG    1        3.807   6.485  -1.638  0.00  0.00    -0.040 C 
ATOM      8  C   LIG    1        5.164   6.824  -1.088  0.00  0.00    +0.330 C 
ATOM      9  N   LIG    1        5.258   6.344   0.298  0.00  0.00    -0.600 N 
ATOM     10  C   LIG    1        5.813   7.099   1.266  0.00  0.00    +0.580 C 
ATOM     11  O   LIG    1        5.764   6.733   2.425  0.00  0.00    -0.520 OA
ATOM     12  C   LIG    1        4.719   5.003   0.585  0.00  0.00    +0.300 C 
BRANCH  10  13
ATOM     13  C   LIG    1        6.479   8.368   0.921  0.00  0.00    +0.020 C 
ATOM     14  C   LIG    1        6.877   9.161   1.904  0.00  0.00    -0.030 C 
ATOM     15  C   LIG    1        7.558  10.478   1.650  0.00  0.00    +0.080 C 
ATOM     16  C   LIG    1        8.081  10.512   0.210  0.00  0.00    +0.010 C 
ATOM     17  C   LIG    1        6.960  10.027  -0.720  0.00  0.00    +0.230 C 
ATOM     18  O   LIG    1        6.661   8.667  -0.388  0.00  0.00    -0.310 OA
ENDBRANCH  10  13
ENDBRANCH   2   5
BRANCH   1  23
ATOM     19  C   LIG    1       -1.571  -0.597   0.659  0.00  0.00    +0.390 C 
ATOM     20  N   LIG    1       -0.401   0.271   0.502  0.00  0.00    -0.320 N 
ATOM     21  N   LIG    1        0.898  -0.132   0.160  0.00  0.00    -0.020 NA
ATOM     22  N   LIG    1        1.650   0.913   0.120  0.00  0.00    -0.200 NA
ATOM     23  C   LIG    1        0.920   2.002   0.417  0.00  0.00    -0.030 A 
ATOM     24  C   LIG    1       -0.365   1.609   0.658  0.00  0.00    +0.010 A 
BRANCH  24  25
ATOM     25  C   LIG    1       -1.524   2.502   1.022  0.00  0.00    +0.550 C 
ATOM     26  F   LIG    1       -2.164   2.934  -0.144  0.00  0.00    -0.160 F 
ATOM     27  F   LIG    1       -1.053   3.610   1.734  0.00  0.00    -0.120 F 
ATOM     28  F   LIG    1       -2.430   1.789   1.815  0.00  0.00    -0.170 F 
ENDBRANCH  24  25
ENDBRANCH   1  23
TORSDOF 4
