REMARK  Name = ZINCrg000000ssY2.0
REMARK                            x       y       z     vdW  Elec       q    Type
REMARK                         _______ _______ _______ _____ _____    ______ ____
ROOT
ATOM      1  C   LIG    1        1.648   8.192   1.420  0.00  0.00    +0.610 C 
ATOM      2  N   LIG    1        1.308   7.365   0.412  0.00  0.00    -0.720 N 
ATOM      3  H   LIG    1        1.230   7.708  -0.492  0.00  0.00    +0.400 HD
ATOM      4  O   LIG    1        1.746   7.762   2.553  0.00  0.00    -0.520 OA
ENDROOT
BRANCH   1  11
ATOM      5  C   LIG    1       -0.520  10.507   1.478  0.00  0.00    +0.170 C 
ATOM      6  C   LIG    1        0.948  10.658   1.171  0.00  0.00    +0.130 A 
ATOM      7  N   LIG    1        1.558  11.773   0.882  0.00  0.00    -0.270 NA
ATOM      8  N   LIG    1        2.913  11.509   0.655  0.00  0.00    -0.370 N 
ATOM      9  C   LIG    1        3.124  10.189   0.818  0.00  0.00    +0.360 A 
ATOM     10  C   LIG    1        3.930  12.502   0.299  0.00  0.00    +0.370 C 
ATOM     11  C   LIG    1        1.902   9.615   1.149  0.00  0.00    -0.270 A 
BRANCH   9  12
ATOM     12  N   LIG    1        4.337   9.524   0.681  0.00  0.00    -0.320 N 
ATOM     13  C   LIG    1        5.394   9.932  -0.071  0.00  0.00    +0.220 A 
ATOM     14  C   LIG    1        6.373   9.009   0.065  0.00  0.00    -0.080 A 
ATOM     15  C   LIG    1        5.906   8.006   0.923  0.00  0.00    +0.260 A 
ATOM     16  N   LIG    1        4.691   8.316   1.296  0.00  0.00    -0.250 NA
ENDBRANCH   9  12
ENDBRANCH   1  11
BRANCH   2  17
ATOM     17  C   LIG    1        1.055   5.947   0.681  0.00  0.00    +0.240 C 
ATOM     18  C   LIG    1        0.126   5.379  -0.395  0.00  0.00    +0.040 C 
ATOM     19  C   LIG    1       -0.085   3.885  -0.143  0.00  0.00    +0.210 C 
ATOM     20  N   LIG    1        1.210   3.194  -0.175  0.00  0.00    -0.470 N 
ATOM     21  C   LIG    1        2.102   3.690   0.880  0.00  0.00    +0.210 C 
ATOM     22  C   LIG    1        2.379   5.178   0.659  0.00  0.00    +0.030 C 
BRANCH  20  23
ATOM     23  C   LIG    1        1.043   1.822  -0.081  0.00  0.00    +0.370 A 
ATOM     24  N   LIG    1        0.519   1.181   0.937  0.00  0.00    -0.500 NA
ATOM     25  C   LIG    1        0.518  -0.138   0.679  0.00  0.00    +0.150 A 
ATOM     26  C   LIG    1        1.057  -0.330  -0.537  0.00  0.00    +0.130 A 
ATOM     27  N   LIG    1        1.394   0.911  -1.028  0.00  0.00    -0.450 N 
ATOM     28  C   LIG    1        2.014   1.196  -2.324  0.00  0.00    +0.330 C 
ENDBRANCH  20  23
ENDBRANCH   2  17
TORSDOF 4
