REMARK  Name = ZINCpe000000UVLV.0
REMARK                            x       y       z     vdW  Elec       q    Type
REMARK                         _______ _______ _______ _____ _____    ______ ____
ROOT
ATOM      1  N   LIG    1        1.333  -2.667   2.182  0.00  0.00    -0.700 N 
ATOM      2  H   LIG    1        0.836  -2.909   2.979  0.00  0.00    +0.410 HD
ATOM      3  C   LIG    1        2.676  -2.778   2.167  0.00  0.00    +0.510 C 
ATOM      4  O   LIG    1        3.299  -2.475   1.171  0.00  0.00    -0.520 OA
ENDROOT
BRANCH   1   5
ATOM      5  C   LIG    1        0.625  -2.182   0.995  0.00  0.00    +0.250 C 
BRANCH   5   9
ATOM      6  C   LIG    1       -0.018   1.461   0.010  0.00  0.00    +0.290 C 
ATOM      7  N   LIG    1        0.002  -0.004   0.002  0.00  0.00    -0.730 N 
ATOM      8  H   LIG    1       -0.418  -0.491  -0.724  0.00  0.00    +0.400 HD
ATOM      9  C   LIG    1        0.604  -0.675   1.004  0.00  0.00    +0.500 C 
ATOM     10  O   LIG    1        1.130  -0.067   1.911  0.00  0.00    -0.520 OA
ENDBRANCH   5   9
BRANCH   5  11
ATOM     11  C   LIG    1       -0.811  -2.712   1.006  0.00  0.00    +0.050 C 
BRANCH  11  12
ATOM     12  C   LIG    1       -0.793  -4.236   0.872  0.00  0.00    -0.020 C 
ATOM     13  C   LIG    1       -0.230  -4.621  -0.497  0.00  0.00    +0.030 C 
ATOM     14  C   LIG    1       -2.218  -4.776   1.008  0.00  0.00    +0.030 C 
ENDBRANCH  11  12
ENDBRANCH   5  11
ENDBRANCH   1   5
BRANCH   3  15
ATOM     15  C   LIG    1        3.405  -3.277   3.388  0.00  0.00    +0.340 C 
BRANCH  15  16
ATOM     16  N   LIG    1        4.845  -3.305   3.119  0.00  0.00    -0.530 N 
ATOM     17  C   LIG    1        5.412  -4.428   2.605  0.00  0.00    +0.590 A 
ATOM     18  N   LIG    1        6.678  -4.530   2.336  0.00  0.00    -0.520 NA
ATOM     19  C   LIG    1        7.538  -3.505   2.564  0.00  0.00    +0.140 A 
ATOM     20  C   LIG    1        8.900  -3.616   2.278  0.00  0.00    +0.070 A 
ATOM     21  C   LIG    1        9.738  -2.552   2.525  0.00  0.00    +0.040 A 
ATOM     22  C   LIG    1        9.245  -1.365   3.055  0.00  0.00    +0.080 A 
ATOM     23  C   LIG    1        7.902  -1.232   3.345  0.00  0.00    +0.070 A 
ATOM     24  F   LIG    1       10.086  -0.334   3.288  0.00  0.00    -0.130 F 
ATOM     25  C   LIG    1        7.039  -2.299   3.102  0.00  0.00    -0.170 A 
ATOM     26  C   LIG    1        5.599  -2.215   3.391  0.00  0.00    +0.550 A 
ATOM     27  O   LIG    1        5.105  -1.204   3.855  0.00  0.00    -0.490 OA
ENDBRANCH  15  16
ENDBRANCH   3  15
TORSDOF 6
