REMARK  Name = ZINCpe000000SXIi.0
REMARK                            x       y       z     vdW  Elec       q    Type
REMARK                         _______ _______ _______ _____ _____    ______ ____
ROOT
ATOM      1  C   LIG    1        0.150  -5.676  -1.655  0.00  0.00    +0.530 C 
ATOM      2  N   LIG    1        0.593  -4.672  -0.873  0.00  0.00    -0.610 N 
ATOM      3  C   LIG    1       -0.269  -4.087   0.165  0.00  0.00    +0.290 C 
ATOM      4  C   LIG    1       -0.275  -2.564  -0.009  0.00  0.00    +0.220 C 
ATOM      5  N   LIG    1        1.108  -2.070  -0.020  0.00  0.00    -0.470 N 
ATOM      6  C   LIG    1        1.857  -2.608  -1.163  0.00  0.00    +0.200 C 
ATOM      7  C   LIG    1        1.952  -4.132  -1.036  0.00  0.00    +0.290 C 
ATOM      8  O   LIG    1       -0.974  -6.109  -1.507  0.00  0.00    -0.520 OA
ENDROOT
BRANCH   1  11
ATOM      9  N   LIG    1       -0.224  -6.522  -4.728  0.00  0.00    -0.610 N 
ATOM     10  C   LIG    1        0.287  -7.285  -3.583  0.00  0.00    +0.290 C 
ATOM     11  C   LIG    1        1.050  -6.261  -2.712  0.00  0.00    +0.000 C 
ATOM     12  C   LIG    1        1.444  -5.192  -3.757  0.00  0.00    +0.070 C 
ATOM     13  C   LIG    1        0.412  -5.345  -4.853  0.00  0.00    +0.520 C 
ATOM     14  O   LIG    1        0.191  -4.525  -5.718  0.00  0.00    -0.520 OA
BRANCH   9  16
ATOM     15  C   LIG    1       -2.458  -5.998  -5.573  0.00  0.00    +0.030 C 
ATOM     16  C   LIG    1       -1.290  -6.985  -5.619  0.00  0.00    +0.240 C 
ATOM     17  C   LIG    1       -0.755  -7.075  -7.050  0.00  0.00    +0.030 C 
ENDBRANCH   9  16
ENDBRANCH   1  11
BRANCH   5  18
ATOM     18  C   LIG    1        1.140  -0.684  -0.013  0.00  0.00    +0.340 A 
ATOM     19  C   LIG    1        2.368  -0.026  -0.020  0.00  0.00    -0.040 A 
ATOM     20  C   LIG    1        2.396   1.343  -0.013  0.00  0.00    +0.150 A 
ATOM     21  C   LIG    1        1.177   2.038   0.002  0.00  0.00    -0.110 A 
ATOM     22  C   LIG    1       -0.016   1.313   0.009  0.00  0.00    +0.360 A 
ATOM     23  N   LIG    1        0.002  -0.004   0.002  0.00  0.00    -0.520 NA
BRANCH  21  24
ATOM     24  C   LIG    1        1.157   3.470   0.009  0.00  0.00    +0.260 C 
ATOM     25  N   LIG    1        1.141   4.606   0.015  0.00  0.00    -0.410 NA
ENDBRANCH  21  24
ENDBRANCH   5  18
TORSDOF 4
