REMARK  Name = ZINCnE000001RVOc.1
REMARK                            x       y       z     vdW  Elec       q    Type
REMARK                         _______ _______ _______ _____ _____    ______ ____
ROOT
ATOM      1  C   LIG    1       -0.006  -0.036  -0.424  0.00  0.00    +0.200 A 
ATOM      2  C   LIG    1       -1.103  -0.786  -0.623  0.00  0.00    -0.140 A 
ATOM      3  S   LIG    1       -0.634  -2.483  -0.534  0.00  0.00    +0.040 S 
ATOM      4  C   LIG    1        1.034  -2.007  -0.230  0.00  0.00    +0.320 A 
ATOM      5  N   LIG    1        1.117  -0.712  -0.223  0.00  0.00    -0.510 NA
ENDROOT
BRANCH   1   8
ATOM      6  C   LIG    1        1.074   3.570  -0.235  0.00  0.00    -0.310 A 
ATOM      7  C   LIG    1        1.118   2.176  -0.224  0.00  0.00    +0.130 A 
ATOM      8  C   LIG    1       -0.047   1.447  -0.435  0.00  0.00    -0.200 A 
ATOM      9  C   LIG    1       -1.254   2.110  -0.664  0.00  0.00    +0.070 A 
ATOM     10  C   LIG    1       -1.300   3.487  -0.669  0.00  0.00    -0.150 A 
ATOM     11  C   LIG    1       -0.145   4.226  -0.460  0.00  0.00    +0.320 A 
ATOM     12  O   LIG    1       -0.194   5.582  -0.471  0.00  0.00    -0.660 OA
BRANCH   6  16
ATOM     13  N   LIG    1        3.476   3.718   0.203  0.00  0.00    -0.880 N 
ATOM     14  H   LIG    1        4.285   4.232   0.349  0.00  0.00    +0.390 HD
ATOM     15  H   LIG    1        3.508   2.749   0.211  0.00  0.00    +0.390 HD
ATOM     16  C   LIG    1        2.306   4.351  -0.012  0.00  0.00    +0.570 C 
ATOM     17  O   LIG    1        2.265   5.566  -0.023  0.00  0.00    -0.530 OA
ENDBRANCH   6  16
ENDBRANCH   1   8
BRANCH   4  18
ATOM     18  N   LIG    1        2.093  -2.880  -0.035  0.00  0.00    -0.630 N 
ATOM     19  H   LIG    1        2.998  -2.537   0.032  0.00  0.00    +0.430 HD
BRANCH  18  20
ATOM     20  C   LIG    1        1.857  -4.254   0.066  0.00  0.00    +0.130 A 
ATOM     21  C   LIG    1        0.704  -4.730   0.686  0.00  0.00    +0.050 A 
ATOM     22  C   LIG    1        0.513  -6.100   0.758  0.00  0.00    +0.040 A 
ATOM     23  C   LIG    1        1.470  -6.945   0.224  0.00  0.00    +0.150 A 
ATOM     24  N   LIG    1        2.554  -6.462  -0.353  0.00  0.00    -0.450 NA
ATOM     25 CL   LIG    1        1.241  -8.663   0.314  0.00  0.00    -0.030 Cl
ATOM     26  C   LIG    1        2.772  -5.165  -0.446  0.00  0.00    +0.270 A 
ENDBRANCH  18  20
ENDBRANCH   4  18
TORSDOF 4
