REMARK  Name = ZINCpe000000YdTR.0
REMARK                            x       y       z     vdW  Elec       q    Type
REMARK                         _______ _______ _______ _____ _____    ______ ____
ROOT
ATOM      1  C   LIG    1       -1.174  -2.213   4.996  0.00  0.00    +0.340 C 
ATOM      2  N   LIG    1        0.199  -2.682   5.202  0.00  0.00    -0.510 N 
ATOM      3  C   LIG    1        0.619  -3.010   6.439  0.00  0.00    +0.710 A 
ATOM      4  N   LIG    1        1.871  -3.442   6.666  0.00  0.00    -0.650 N 
ATOM      5  H   LIG    1        2.142  -3.670   7.570  0.00  0.00    +0.440 HD
ATOM      6  C   LIG    1        2.758  -3.564   5.657  0.00  0.00    +0.600 A 
ATOM      7  C   LIG    1        2.362  -3.233   4.349  0.00  0.00    -0.180 A 
ATOM      8  N   LIG    1        2.991  -3.243   3.111  0.00  0.00    -0.450 N 
ATOM      9  C   LIG    1        4.373  -3.645   2.836  0.00  0.00    +0.340 C 
ATOM     10  C   LIG    1        2.078  -2.805   2.205  0.00  0.00    +0.560 A 
ATOM     11  N   LIG    1        0.943  -2.542   2.820  0.00  0.00    -0.530 NA
ATOM     12  O   LIG    1        3.890  -3.958   5.876  0.00  0.00    -0.520 OA
ATOM     13  O   LIG    1       -0.153  -2.912   7.373  0.00  0.00    -0.540 OA
ATOM     14  C   LIG    1        1.064  -2.786   4.125  0.00  0.00    +0.360 A 
ENDROOT
BRANCH  10  15
ATOM     15  N   LIG    1        2.302  -2.664   0.855  0.00  0.00    -0.690 N 
ATOM     16  H   LIG    1        3.171  -2.881   0.482  0.00  0.00    +0.410 HD
BRANCH  15  17
ATOM     17  C   LIG    1        1.229  -2.186  -0.021  0.00  0.00    +0.320 C 
BRANCH  17  18
ATOM     18  C   LIG    1        1.208  -0.679  -0.013  0.00  0.00    -0.100 A 
ATOM     19  C   LIG    1        0.002  -0.004   0.002  0.00  0.00    +0.020 A 
ATOM     20  C   LIG    1       -0.017   1.378   0.010  0.00  0.00    +0.000 A 
ATOM     21  C   LIG    1        1.171   2.086   0.002  0.00  0.00    +0.000 A 
ATOM     22  C   LIG    1        2.377   1.411  -0.015  0.00  0.00    +0.000 A 
ATOM     23  C   LIG    1        2.396   0.029  -0.021  0.00  0.00    +0.010 A 
ENDBRANCH  17  18
BRANCH  17  24
ATOM     24  C   LIG    1        1.472  -2.686  -1.446  0.00  0.00    +0.040 C 
BRANCH  24  25
ATOM     25  C   LIG    1        1.369  -4.212  -1.476  0.00  0.00    +0.020 C 
BRANCH  25  26
ATOM     26  C   LIG    1        1.612  -4.712  -2.901  0.00  0.00    +0.170 C 
BRANCH  26  27
ATOM     27  O   LIG    1        1.516  -6.137  -2.929  0.00  0.00    -0.580 OA
ATOM     28  H   LIG    1        1.660  -6.524  -3.804  0.00  0.00    +0.380 HD
ENDBRANCH  26  27
ENDBRANCH  25  26
ENDBRANCH  24  25
ENDBRANCH  17  24
ENDBRANCH  15  17
ENDBRANCH  10  15
TORSDOF 7
