REMARK  Name = ZINCpk00000e9dLU.0
REMARK                            x       y       z     vdW  Elec       q    Type
REMARK                         _______ _______ _______ _____ _____    ______ ____
ROOT
ATOM      1  N   LIG    1        6.465   0.204  -4.323  0.00  0.00    -0.510 N 
ATOM      2  C   LIG    1        7.430  -0.731  -4.411  0.00  0.00    +0.710 A 
ATOM      3  N   LIG    1        7.818  -1.447  -3.341  0.00  0.00    -0.650 N 
ATOM      4  H   LIG    1        8.516  -2.113  -3.440  0.00  0.00    +0.440 HD
ATOM      5  C   LIG    1        7.249  -1.254  -2.133  0.00  0.00    +0.600 A 
ATOM      6  C   LIG    1        6.233  -0.284  -1.996  0.00  0.00    -0.140 A 
ATOM      7  N   LIG    1        5.461   0.170  -0.946  0.00  0.00    -0.390 N 
ATOM      8  C   LIG    1        4.649   1.125  -1.438  0.00  0.00    +0.280 A 
ATOM      9  N   LIG    1        4.881   1.287  -2.715  0.00  0.00    -0.470 NA
ATOM     10  O   LIG    1        7.608  -1.910  -1.171  0.00  0.00    -0.510 OA
ATOM     11  O   LIG    1        7.965  -0.932  -5.484  0.00  0.00    -0.530 OA
ATOM     12  C   LIG    1        5.843   0.449  -3.110  0.00  0.00    +0.320 A 
ENDROOT
BRANCH   7  13
ATOM     13  C   LIG    1        5.513  -0.301   0.441  0.00  0.00    +0.300 C 
ATOM     14  C   LIG    1        4.538  -1.466   0.621  0.00  0.00    +0.060 C 
ENDBRANCH   7  13
BRANCH   1  15
ATOM     15  C   LIG    1        6.073   0.964  -5.513  0.00  0.00    +0.320 C 
BRANCH  15  16
ATOM     16  C   LIG    1        6.932   2.226  -5.619  0.00  0.00    +0.010 C 
BRANCH  16  18
ATOM     17  C   LIG    1        7.381   4.281  -6.967  0.00  0.00    +0.010 C 
ATOM     18  C   LIG    1        6.522   3.019  -6.861  0.00  0.00    +0.020 C 
ENDBRANCH  16  18
ENDBRANCH  15  16
ENDBRANCH   1  15
BRANCH   8  19
ATOM     19  C   LIG    1        3.631   1.895  -0.636  0.00  0.00    +0.370 C 
BRANCH  19  20
ATOM     20  O   LIG    1        2.358   1.196  -0.671  0.00  0.00    -0.350 OA
BRANCH  20  21
ATOM     21  C   LIG    1        1.338   1.754  -0.001  0.00  0.00    +0.500 C 
ATOM     22  O   LIG    1        1.502   2.793   0.594  0.00  0.00    -0.500 OA
BRANCH  21  23
ATOM     23  C   LIG    1       -0.013   1.086   0.008  0.00  0.00    -0.030 C 
ATOM     24  C   LIG    1       -1.150   1.781  -0.743  0.00  0.00    +0.070 C 
ATOM     25  C   LIG    1       -1.136   1.773   0.788  0.00  0.00    +0.000 C 
ATOM     26  C   LIG    1       -2.152   0.877   1.500  0.00  0.00    +0.070 C 
ENDBRANCH  21  23
ENDBRANCH  20  21
ENDBRANCH  19  20
ENDBRANCH   8  19
TORSDOF 8
