REMARK  Name = ZINCkj00000kIYQH.1
REMARK                            x       y       z     vdW  Elec       q    Type
REMARK                         _______ _______ _______ _____ _____    ______ ____
ROOT
ATOM      1  N   LIG    1       -0.691   8.504   1.155  0.00  0.00    -0.390 N 
ATOM      2  C   LIG    1       -1.435   7.985  -0.000  0.00  0.00    +0.290 C 
ATOM      3  C   LIG    1       -1.458   6.456   0.051  0.00  0.00    +0.260 C 
ATOM      4  N   LIG    1       -0.079   5.948   0.035  0.00  0.00    -0.460 N 
ATOM      5  C   LIG    1        0.686   6.479   1.173  0.00  0.00    +0.250 C 
ATOM      6  C   LIG    1        0.691   8.008   1.112  0.00  0.00    +0.290 C 
ATOM      7  H   LIG    1       -1.133   8.193   2.007  0.00  0.00    +0.420 HD
ENDROOT
BRANCH   4   8
ATOM      8  C   LIG    1       -0.060   4.564   0.027  0.00  0.00    +0.490 A 
ATOM      9  N   LIG    1        1.105   3.933   0.013  0.00  0.00    -0.510 NA
ATOM     10  C   LIG    1        1.159   2.611   0.005  0.00  0.00    +0.400 A 
ATOM     11  C   LIG    1       -0.024   1.887   0.012  0.00  0.00    -0.220 A 
ATOM     12  C   LIG    1       -1.225   2.579   0.022  0.00  0.00    +0.400 A 
ATOM     13 BR   LIG    1        0.002  -0.004   0.002  0.00  0.00    +0.010 Br
ATOM     14  N   LIG    1       -1.207   3.902   0.035  0.00  0.00    -0.540 NA
ENDBRANCH   4   8
BRANCH   1  15
ATOM     15  C   LIG    1       -0.685   9.972   1.115  0.00  0.00    +0.270 C 
BRANCH  15  16
ATOM     16  C   LIG    1       -0.019  10.514   2.381  0.00  0.00    +0.060 C 
BRANCH  16  17
ATOM     17  C   LIG    1       -0.013  12.044   2.339  0.00  0.00    +0.130 C 
BRANCH  17  18
ATOM     18  C   LIG    1        0.643  12.578   3.586  0.00  0.00    +0.460 C 
ATOM     19  O   LIG    1        1.062  11.814   4.422  0.00  0.00    -0.510 OA
BRANCH  18  21
ATOM     20  C   LIG    1        1.403  14.346   4.992  0.00  0.00    +0.280 C 
ATOM     21  O   LIG    1        0.761  13.903   3.767  0.00  0.00    -0.360 OA
ENDBRANCH  18  21
ENDBRANCH  17  18
ENDBRANCH  16  17
ENDBRANCH  15  16
ENDBRANCH   1  15
TORSDOF 6
