REMARK  Name = ZINCvU0000000Jxy.0
REMARK                            x       y       z     vdW  Elec       q    Type
REMARK                         _______ _______ _______ _____ _____    ______ ____
ROOT
ATOM      1  C   LIG    1        3.111   3.672   1.469  0.00  0.00    +0.130 C 
ENDROOT
BRANCH   1   2
ATOM      2  C   LIG    1        2.019   4.173   0.560  0.00  0.00    -0.140 A 
ATOM      3  C   LIG    1        1.565   5.448   0.471  0.00  0.00    +0.120 A 
ATOM      4  N   LIG    1        0.558   5.514  -0.464  0.00  0.00    -0.590 N 
ATOM      5  H   LIG    1        0.071   6.319  -0.704  0.00  0.00    +0.420 HD
ATOM      6  C   LIG    1        0.346   4.268  -1.011  0.00  0.00    +0.110 A 
ATOM      7  C   LIG    1       -0.530   3.787  -1.978  0.00  0.00    -0.010 A 
ATOM      8  C   LIG    1       -0.509   2.452  -2.319  0.00  0.00    +0.040 A 
ATOM      9  C   LIG    1        0.379   1.578  -1.706  0.00  0.00    -0.020 A 
ATOM     10  C   LIG    1        1.249   2.028  -0.754  0.00  0.00    +0.050 A 
ATOM     11  C   LIG    1        1.246   3.378  -0.393  0.00  0.00    -0.100 A 
BRANCH   3  12
ATOM     12  C   LIG    1        2.070   6.590   1.262  0.00  0.00    -0.050 A 
ATOM     13  C   LIG    1        2.364   7.801   0.634  0.00  0.00    +0.050 A 
ATOM     14  C   LIG    1        2.835   8.864   1.377  0.00  0.00    -0.010 A 
ATOM     15  C   LIG    1        3.015   8.731   2.745  0.00  0.00    +0.110 A 
ATOM     16  C   LIG    1        2.724   7.530   3.373  0.00  0.00    -0.010 A 
ATOM     17  F   LIG    1        3.476   9.775   3.468  0.00  0.00    -0.140 F 
ATOM     18  C   LIG    1        2.254   6.461   2.640  0.00  0.00    +0.080 A 
ENDBRANCH   3  12
ENDBRANCH   1   2
BRANCH   1  19
ATOM     19  C   LIG    1        4.471   3.895   0.803  0.00  0.00    +0.070 C 
BRANCH  19  22
ATOM     20  N   LIG    1        6.841   3.362   1.266  0.00  0.00    -0.670 N 
ATOM     21  H   LIG    1        7.065   3.742   0.402  0.00  0.00    +0.410 HD
ATOM     22  C   LIG    1        5.554   3.287   1.657  0.00  0.00    +0.510 C 
ATOM     23  O   LIG    1        5.266   2.730   2.695  0.00  0.00    -0.520 OA
BRANCH  20  28
ATOM     24  C   LIG    1       10.013   1.881   2.404  0.00  0.00    +0.160 A 
ATOM     25  C   LIG    1        9.862   1.968   3.782  0.00  0.00    -0.030 A 
ATOM     26  C   LIG    1        8.712   2.516   4.319  0.00  0.00    +0.050 A 
ATOM     27  C   LIG    1        7.710   2.978   3.487  0.00  0.00    +0.000 A 
ATOM     28  C   LIG    1        7.856   2.894   2.108  0.00  0.00    +0.170 A 
ATOM     29  C   LIG    1        9.007   2.340   1.566  0.00  0.00    -0.010 A 
BRANCH  24  32
ATOM     30  C   LIG    1       12.849   1.115   0.051  0.00  0.00    +0.110 C 
ATOM     31  C   LIG    1       11.664   1.789   0.694  0.00  0.00    +0.510 C 
ATOM     32  N   LIG    1       11.178   1.325   1.862  0.00  0.00    -0.670 N 
ATOM     33  H   LIG    1       11.634   0.607   2.326  0.00  0.00    +0.410 HD
ATOM     34  O   LIG    1       11.149   2.749   0.160  0.00  0.00    -0.530 OA
ENDBRANCH  24  32
ENDBRANCH  20  28
ENDBRANCH  19  22
ENDBRANCH   1  19
TORSDOF 6
