REMARK  Name = ZINCpk00001AZipk.0
REMARK                            x       y       z     vdW  Elec       q    Type
REMARK                         _______ _______ _______ _____ _____    ______ ____
ROOT
ATOM      1  C   LIG    1        0.271   0.807  -1.688  0.00  0.00    +0.300 C 
ENDROOT
BRANCH   1   3
ATOM      2  C   LIG    1        0.827   0.021  -3.926  0.00  0.00    +0.530 C 
ATOM      3  N   LIG    1       -0.015   0.699  -3.120  0.00  0.00    -0.730 N 
ATOM      4  H   LIG    1       -0.809   1.116  -3.490  0.00  0.00    +0.410 HD
ATOM      5  O   LIG    1        1.820  -0.500  -3.465  0.00  0.00    -0.520 OA
BRANCH   2   9
ATOM      6  C   LIG    1        0.227  -2.098  -8.084  0.00  0.00    +0.570 C 
ATOM      7  N   LIG    1        0.404  -1.512  -6.883  0.00  0.00    -0.650 N 
ATOM      8  C   LIG    1        1.562  -0.933  -6.175  0.00  0.00    +0.320 C 
ATOM      9  C   LIG    1        0.533  -0.090  -5.400  0.00  0.00    -0.020 C 
ATOM     10  C   LIG    1       -0.486  -1.189  -5.748  0.00  0.00    +0.310 C 
ATOM     11  O   LIG    1        1.171  -2.234  -8.839  0.00  0.00    -0.540 OA
BRANCH   6  13
ATOM     12  C   LIG    1       -1.281  -3.153  -9.666  0.00  0.00    +0.150 C 
ATOM     13  C   LIG    1       -1.107  -2.574  -8.481  0.00  0.00    -0.080 C 
ENDBRANCH   6  13
ENDBRANCH   2   9
ENDBRANCH   1   3
BRANCH   1  14
ATOM     14  C   LIG    1       -0.832   1.621  -1.008  0.00  0.00    +0.030 C 
BRANCH  14  15
ATOM     15  C   LIG    1       -2.137   0.874  -1.099  0.00  0.00    +0.460 C 
ATOM     16  O   LIG    1       -2.396   0.009  -0.296  0.00  0.00    -0.490 OA
BRANCH  15  17
ATOM     17  O   LIG    1       -3.013   1.169  -2.073  0.00  0.00    -0.360 OA
ATOM     18  C   LIG    1       -4.250   0.408  -2.101  0.00  0.00    +0.270 C 
ENDBRANCH  15  17
ENDBRANCH  14  15
BRANCH  14  19
ATOM     19  C   LIG    1       -0.471   1.839   0.463  0.00  0.00    +0.130 C 
BRANCH  19  20
ATOM     20  C   LIG    1        0.756   2.708   0.556  0.00  0.00    -0.090 A 
ATOM     21  C   LIG    1        2.008   2.128   0.651  0.00  0.00    +0.040 A 
ATOM     22  C   LIG    1        3.134   2.924   0.731  0.00  0.00    +0.030 A 
ATOM     23  C   LIG    1        3.009   4.302   0.727  0.00  0.00    -0.030 A 
ATOM     24  C   LIG    1        1.756   4.882   0.637  0.00  0.00    +0.030 A 
ATOM     25 CL   LIG    1        4.423   5.303   0.836  0.00  0.00    -0.070 Cl
ATOM     26  C   LIG    1        0.630   4.085   0.551  0.00  0.00    +0.030 A 
ENDBRANCH  19  20
ENDBRANCH  14  19
ENDBRANCH   1  14
TORSDOF 8
