REMARK  Name = ZINCrg00001JduYK.0
REMARK                            x       y       z     vdW  Elec       q    Type
REMARK                         _______ _______ _______ _____ _____    ______ ____
ROOT
ATOM      1  C   LIG    1       -2.388   1.169   0.020  0.00  0.00    +0.260 C 
ENDROOT
BRANCH   1   2
ATOM      2  C   LIG    1       -3.595   2.071   0.030  0.00  0.00    +0.520 C 
ATOM      3  N   LIG    1       -4.834   1.540   0.033  0.00  0.00    -0.610 N 
ATOM      4  C   LIG    1       -5.030   0.083   0.020  0.00  0.00    +0.300 C 
ATOM      5  C   LIG    1       -5.992  -0.284   1.161  0.00  0.00    +0.190 C 
ATOM      6  N   LIG    1       -7.222   0.508   1.032  0.00  0.00    -0.480 N 
ATOM      7  C   LIG    1       -6.948   1.944   1.178  0.00  0.00    +0.210 C 
ATOM      8  C   LIG    1       -6.025   2.403   0.044  0.00  0.00    +0.290 C 
ATOM      9  O   LIG    1       -3.452   3.276   0.036  0.00  0.00    -0.510 OA
BRANCH   6  10
ATOM     10  C   LIG    1       -8.183   0.089   1.944  0.00  0.00    +0.310 A 
ATOM     11  C   LIG    1       -8.580  -1.243   1.964  0.00  0.00    -0.050 A 
ATOM     12  C   LIG    1       -9.537  -1.647   2.878  0.00  0.00    +0.090 A 
ATOM     13  C   LIG    1      -10.067  -0.700   3.744  0.00  0.00    -0.060 A 
ATOM     14  C   LIG    1       -9.626   0.606   3.670  0.00  0.00    +0.290 A 
ATOM     15  N   LIG    1       -8.708   0.962   2.791  0.00  0.00    -0.520 NA
ENDBRANCH   6  10
ENDBRANCH   1   2
BRANCH   1  16
ATOM     16  O   LIG    1       -1.200   1.963   0.018  0.00  0.00    -0.260 OA
BRANCH  16  22
ATOM     17  O   LIG    1        3.417  -0.806  -0.034  0.00  0.00    -0.520 OA
ATOM     18  C   LIG    1        2.396  -0.141  -0.021  0.00  0.00    +0.530 A 
ATOM     19  N   LIG    1        1.187  -0.740  -0.013  0.00  0.00    -0.510 N 
ATOM     20  H   LIG    1        1.141  -1.709  -0.018  0.00  0.00    +0.440 HD
ATOM     21  N   LIG    1        0.002  -0.004   0.002  0.00  0.00    -0.320 NA
ATOM     22  C   LIG    1       -0.016   1.300   0.009  0.00  0.00    +0.340 A 
ATOM     23  C   LIG    1        1.245   2.049   0.001  0.00  0.00    -0.060 A 
ATOM     24  C   LIG    1        1.272   3.443   0.009  0.00  0.00    +0.070 A 
ATOM     25  C   LIG    1        2.483   4.100   0.002  0.00  0.00    +0.050 A 
ATOM     26  C   LIG    1        3.676   3.389  -0.013  0.00  0.00    +0.040 A 
ATOM     27  C   LIG    1        3.674   2.011  -0.021  0.00  0.00    +0.090 A 
ATOM     28  C   LIG    1        2.460   1.326  -0.014  0.00  0.00    -0.110 A 
ENDBRANCH  16  22
ENDBRANCH   1  16
TORSDOF 4
