REMARK  Name = ZINCrD00000hQ4uy.0
REMARK                            x       y       z     vdW  Elec       q    Type
REMARK                         _______ _______ _______ _____ _____    ______ ____
ROOT
ATOM      1  O   LIG    1       -3.210  -0.136   0.514  0.00  0.00    -0.510 OA
ATOM      2  C   LIG    1       -2.865   1.016   0.683  0.00  0.00    +0.620 C 
ATOM      3  N   LIG    1       -3.783   2.003   0.677  0.00  0.00    -0.590 N 
ATOM      4  C   LIG    1       -3.503   3.438   0.867  0.00  0.00    +0.270 C 
ATOM      5  C   LIG    1       -4.834   4.036   1.387  0.00  0.00    +0.040 C 
ATOM      6  C   LIG    1       -5.878   3.223   0.577  0.00  0.00    +0.050 C 
ATOM      7  C   LIG    1       -5.228   1.827   0.473  0.00  0.00    +0.230 C 
ENDROOT
BRANCH   7   8
ATOM      8  C   LIG    1       -5.486   1.239  -0.891  0.00  0.00    +0.530 C 
ATOM      9  N   LIG    1       -6.668   0.650  -1.158  0.00  0.00    -0.610 N 
ATOM     10  C   LIG    1       -7.753   0.421  -0.186  0.00  0.00    +0.240 C 
ATOM     11  C   LIG    1       -9.039   0.323  -1.044  0.00  0.00    +0.040 C 
ATOM     12  C   LIG    1       -8.520  -0.425  -2.300  0.00  0.00    +0.040 C 
ATOM     13  C   LIG    1       -7.092   0.136  -2.468  0.00  0.00    +0.220 C 
ATOM     14  O   LIG    1       -4.629   1.296  -1.747  0.00  0.00    -0.520 OA
BRANCH  13  15
ATOM     15  C   LIG    1       -6.147  -0.980  -2.920  0.00  0.00    -0.020 C 
ATOM     16  C   LIG    1       -6.626  -1.566  -4.264  0.00  0.00    +0.010 C 
ATOM     17  C   LIG    1       -6.326  -3.081  -4.146  0.00  0.00    +0.020 C 
ATOM     18  C   LIG    1       -6.664  -3.382  -2.665  0.00  0.00    +0.000 C 
ATOM     19  C   LIG    1       -6.172  -2.135  -1.903  0.00  0.00    +0.010 C 
ENDBRANCH  13  15
ENDBRANCH   7   8
BRANCH   2  20
ATOM     20  C   LIG    1       -1.432   1.337   0.895  0.00  0.00    -0.010 A 
ATOM     21  N   LIG    1       -0.912   2.523   1.092  0.00  0.00    -0.330 NA
ATOM     22  O   LIG    1        0.288   2.463   1.226  0.00  0.00    +0.120 OA
ATOM     23  C   LIG    1        0.736   1.203   1.142  0.00  0.00    +0.010 A 
ATOM     24  C   LIG    1       -0.346   0.419   0.929  0.00  0.00    +0.000 A 
BRANCH  23  25
ATOM     25  C   LIG    1        2.168   0.747   1.261  0.00  0.00    +0.050 C 
ATOM     26  C   LIG    1        3.204   1.782   1.702  0.00  0.00    +0.060 C 
ATOM     27  C   LIG    1        3.173   1.303   0.249  0.00  0.00    +0.050 C 
ENDBRANCH  23  25
ENDBRANCH   2  20
TORSDOF 4
