REMARK  Name = ZINCrH000004pxWg.0
REMARK                            x       y       z     vdW  Elec       q    Type
REMARK                         _______ _______ _______ _____ _____    ______ ____
ROOT
ATOM      1  C   LIG    1       -3.937   2.845  -6.967  0.00  0.00    +0.060 C 
ATOM      2  C   LIG    1       -2.545   3.478  -6.916  0.00  0.00    +0.180 C 
ENDROOT
BRANCH   2   3
ATOM      3  C   LIG    1       -1.783   2.920  -5.741  0.00  0.00    +0.510 C 
ATOM      4  N   LIG    1       -2.260   3.081  -4.491  0.00  0.00    -0.640 N 
ATOM      5  H   LIG    1       -3.094   3.555  -4.347  0.00  0.00    +0.420 HD
ATOM      6  O   LIG    1       -0.741   2.328  -5.921  0.00  0.00    -0.430 OA
BRANCH   4   7
ATOM      7  C   LIG    1       -1.558   2.567  -3.408  0.00  0.00    +0.540 A 
ATOM      8  N   LIG    1       -0.422   1.922  -3.622  0.00  0.00    -0.500 NA
ATOM      9  C   LIG    1        0.270   1.418  -2.614  0.00  0.00    +0.370 A 
ATOM     10  C   LIG    1       -0.210   1.574  -1.321  0.00  0.00    -0.260 A 
ATOM     11  C   LIG    1        0.565   1.002  -0.167  0.00  0.00    +0.300 C 
ATOM     12  O   LIG    1        0.111   1.576   1.060  0.00  0.00    -0.370 OA
ATOM     13  C   LIG    1       -1.306   1.502   1.230  0.00  0.00    +0.230 C 
ATOM     14  C   LIG    1       -1.966   2.469   0.245  0.00  0.00    +0.090 C 
ATOM     15  C   LIG    1       -1.397   2.255  -1.133  0.00  0.00    +0.220 A 
ATOM     16  N   LIG    1       -2.041   2.733  -2.187  0.00  0.00    -0.540 NA
ENDBRANCH   4   7
ENDBRANCH   2   3
BRANCH   2  17
ATOM     17  O   LIG    1       -1.842   3.182  -8.124  0.00  0.00    -0.280 OA
BRANCH  17  18
ATOM     18  C   LIG    1       -2.063   4.002  -9.183  0.00  0.00    +0.160 A 
ATOM     19  C   LIG    1       -3.008   4.986  -9.105  0.00  0.00    -0.080 A 
ATOM     20  C   LIG    1       -3.247   5.836 -10.182  0.00  0.00    +0.080 A 
ATOM     21  C   LIG    1       -2.547   5.711 -11.345  0.00  0.00    -0.060 A 
ATOM     22  C   LIG    1       -1.566   4.710 -11.465  0.00  0.00    -0.010 A 
ATOM     23  C   LIG    1       -0.826   4.553 -12.648  0.00  0.00    +0.020 A 
ATOM     24  C   LIG    1        0.128   3.584 -12.722  0.00  0.00    +0.040 A 
ATOM     25  C   LIG    1        0.370   2.733 -11.646  0.00  0.00    +0.010 A 
ATOM     26  C   LIG    1       -0.333   2.853 -10.486  0.00  0.00    +0.060 A 
ATOM     27 CL   LIG    1       -2.865   6.783 -12.672  0.00  0.00    -0.060 Cl
ATOM     28  C   LIG    1       -1.316   3.848 -10.369  0.00  0.00    -0.060 A 
ENDBRANCH  17  18
ENDBRANCH   2  17
TORSDOF 4
