REMARK  Name = ZINCrH000004laYc.2
REMARK                            x       y       z     vdW  Elec       q    Type
REMARK                         _______ _______ _______ _____ _____    ______ ____
ROOT
ATOM      1  C   LIG    1        0.979   4.633  -4.766  0.00  0.00    -0.030 A 
ATOM      2  C   LIG    1       -0.101   4.798  -5.634  0.00  0.00    +0.080 A 
ATOM      3  C   LIG    1        0.032   5.598  -6.751  0.00  0.00    +0.040 A 
ATOM      4  C   LIG    1        1.236   6.226  -7.016  0.00  0.00    -0.050 A 
ATOM      5  C   LIG    1        2.312   6.062  -6.162  0.00  0.00    +0.010 A 
ATOM      6  C   LIG    1        2.191   5.269  -5.039  0.00  0.00    +0.060 A 
ENDROOT
BRANCH   1  10
ATOM      7  C   LIG    1        0.106   2.496  -2.047  0.00  0.00    +0.160 A 
ATOM      8  N   LIG    1        1.345   2.798  -1.790  0.00  0.00    -0.370 NA
ATOM      9  O   LIG    1        1.790   3.530  -2.649  0.00  0.00    +0.090 OA
ATOM     10  C   LIG    1        0.842   3.782  -3.565  0.00  0.00    +0.230 A 
ATOM     11  N   LIG    1       -0.237   3.123  -3.183  0.00  0.00    -0.470 NA
BRANCH   7  12
ATOM     12  C   LIG    1       -0.784   1.609  -1.216  0.00  0.00    +0.210 C 
ATOM     13  C   LIG    1       -0.013   1.086   0.008  0.00  0.00    +0.060 C 
ATOM     14  C   LIG    1       -0.763   1.597   1.255  0.00  0.00    +0.030 C 
ATOM     15  C   LIG    1       -2.207   1.850   0.751  0.00  0.00    +0.030 C 
ATOM     16  C   LIG    1       -1.978   2.421  -0.670  0.00  0.00    +0.020 C 
BRANCH  12  18
ATOM     17  C   LIG    1       -1.988   0.905  -3.166  0.00  0.00    +0.220 C 
ATOM     18  O   LIG    1       -1.256   0.513  -2.002  0.00  0.00    -0.360 OA
ENDBRANCH  12  18
ENDBRANCH   7  12
ENDBRANCH   1  10
BRANCH   4  19
ATOM     19  C   LIG    1        1.375   7.093  -8.241  0.00  0.00    +0.230 C 
BRANCH  19  20
ATOM     20  N   LIG    1        1.834   6.274  -9.371  0.00  0.00    -0.530 NA
ATOM     21  C   LIG    1        3.199   5.780  -9.143  0.00  0.00    +0.150 C 
ATOM     22  C   LIG    1        3.614   4.885 -10.314  0.00  0.00    +0.160 C 
ATOM     23  O   LIG    1        3.502   5.623 -11.534  0.00  0.00    -0.380 OA
ATOM     24  C   LIG    1        2.185   6.119 -11.788  0.00  0.00    +0.160 C 
ATOM     25  C   LIG    1        2.182   6.918 -13.093  0.00  0.00    +0.050 C 
ATOM     26  C   LIG    1        5.063   4.432 -10.123  0.00  0.00    +0.050 C 
ATOM     27  C   LIG    1        1.755   7.026 -10.632  0.00  0.00    +0.160 C 
ENDBRANCH  19  20
ENDBRANCH   4  19
TORSDOF 5
