REMARK  Name = ZINCrg000000mSyL.0
REMARK                            x       y       z     vdW  Elec       q    Type
REMARK                         _______ _______ _______ _____ _____    ______ ____
ROOT
ATOM      1  C   LIG    1        2.482   6.790   0.514  0.00  0.00    -0.150 A 
ATOM      2  C   LIG    1        1.183   7.216   0.796  0.00  0.00    +0.130 A 
ATOM      3  C   LIG    1        0.112   6.399   0.499  0.00  0.00    +0.020 A 
ATOM      4  C   LIG    1        0.323   5.160  -0.083  0.00  0.00    +0.080 A 
ATOM      5  C   LIG    1        1.611   4.730  -0.360  0.00  0.00    -0.680 A 
ATOM      6 CL   LIG    1       -1.030   4.141  -0.462  0.00  0.00    -0.030 Cl
ATOM      7  C   LIG    1        2.689   5.538  -0.068  0.00  0.00    +0.220 A 
ENDROOT
BRANCH   1  10
ATOM      8  N   LIG    1        3.430   8.869   1.392  0.00  0.00    -0.720 N 
ATOM      9  H   LIG    1        2.528   9.167   1.589  0.00  0.00    +0.400 HD
ATOM     10  C   LIG    1        3.633   7.661   0.831  0.00  0.00    +0.560 C 
ATOM     11  O   LIG    1        4.763   7.287   0.584  0.00  0.00    -0.520 OA
BRANCH   8  12
ATOM     12  C   LIG    1        4.572   9.732   1.705  0.00  0.00    +0.270 C 
BRANCH  12  13
ATOM     13  C   LIG    1        4.069  11.035   2.331  0.00  0.00    +0.270 C 
BRANCH  13  16
ATOM     14  C   LIG    1        6.182  13.995   3.528  0.00  0.00    +0.110 C 
ATOM     15  C   LIG    1        5.008  13.107   3.205  0.00  0.00    +0.510 C 
ATOM     16  N   LIG    1        5.211  11.898   2.644  0.00  0.00    -0.730 N 
ATOM     17  H   LIG    1        6.112  11.600   2.447  0.00  0.00    +0.410 HD
ATOM     18  O   LIG    1        3.880  13.479   3.452  0.00  0.00    -0.540 OA
ENDBRANCH  13  16
ENDBRANCH  12  13
ENDBRANCH   8  12
ENDBRANCH   1  10
BRANCH   5  19
ATOM     19  S   LIG    1        1.870   3.150  -1.095  0.00  0.00    +2.690 S 
ATOM     20  O   LIG    1        0.975   3.067  -2.196  0.00  0.00    -0.930 OA
ATOM     21  O   LIG    1        3.276   2.993  -1.224  0.00  0.00    -0.940 OA
BRANCH  19  22
ATOM     22  N   LIG    1        1.371   2.012  -0.000  0.00  0.00    -0.990 NA
ATOM     23  C   LIG    1       -0.019   1.529   0.010  0.00  0.00    +0.260 C 
ATOM     24  C   LIG    1        0.002  -0.004   0.002  0.00  0.00    +0.150 C 
ATOM     25  O   LIG    1        0.844  -0.469   1.060  0.00  0.00    -0.370 OA
ATOM     26  C   LIG    1        2.213  -0.075   0.934  0.00  0.00    +0.150 C 
ATOM     27  C   LIG    1        3.025  -0.679   2.082  0.00  0.00    +0.070 C 
ATOM     28  C   LIG    1       -1.418  -0.536   0.208  0.00  0.00    +0.070 C 
ATOM     29  C   LIG    1        2.305   1.454   0.991  0.00  0.00    +0.280 C 
ENDBRANCH  19  22
ENDBRANCH   5  19
TORSDOF 6
