REMARK  Name = ZINCyk0000000ndw.1
REMARK                            x       y       z     vdW  Elec       q    Type
REMARK                         _______ _______ _______ _____ _____    ______ ____
ROOT
ATOM      1  C   LIG    1        3.404  -6.032  -3.167  0.00  0.00    -0.790 A 
ATOM      2  C   LIG    1        2.879  -4.763  -3.299  0.00  0.00    +0.440 A 
ATOM      3  N   LIG    1        3.028  -3.864  -2.344  0.00  0.00    -0.530 NA
ATOM      4  C   LIG    1        3.693  -4.137  -1.233  0.00  0.00    +0.470 A 
ATOM      5  C   LIG    1        4.250  -5.397  -1.031  0.00  0.00    -0.180 A 
ATOM      6 CL   LIG    1        5.115  -5.754   0.431  0.00  0.00    -0.040 Cl
ATOM      7  C   LIG    1        4.104  -6.361  -2.013  0.00  0.00    +0.240 A 
ENDROOT
BRANCH   1   8
ATOM      8  S   LIG    1        3.189  -7.223  -4.447  0.00  0.00    +2.710 S 
ATOM      9  O   LIG    1        4.243  -8.165  -4.301  0.00  0.00    -0.950 OA
ATOM     10  O   LIG    1        2.962  -6.490  -5.643  0.00  0.00    -0.950 OA
BRANCH   8  11
ATOM     11  N   LIG    1        1.785  -8.040  -4.126  0.00  0.00    -1.120 NA
ATOM     12  H   LIG    1        1.811  -8.986  -3.915  0.00  0.00    +0.420 HD
BRANCH  11  13
ATOM     13  C   LIG    1        0.502  -7.333  -4.161  0.00  0.00    +0.290 C 
BRANCH  13  14
ATOM     14  C   LIG    1       -0.640  -8.350  -4.205  0.00  0.00    +0.040 C 
BRANCH  14  15
ATOM     15  C   LIG    1       -1.980  -7.612  -4.242  0.00  0.00    +0.270 C 
BRANCH  15  16
ATOM     16  N   LIG    1       -3.076  -8.589  -4.283  0.00  0.00    -0.390 N 
ATOM     17  C   LIG    1       -3.013  -9.343  -5.543  0.00  0.00    +0.320 C 
ATOM     18  H   LIG    1       -2.989  -9.226  -3.506  0.00  0.00    +0.430 HD
BRANCH  16  19
ATOM     19  C   LIG    1       -4.362  -7.886  -4.198  0.00  0.00    +0.280 C 
BRANCH  19  20
ATOM     20  C   LIG    1       -5.498  -8.907  -4.116  0.00  0.00    +0.210 C 
BRANCH  20  22
ATOM     21  C   LIG    1       -6.408 -10.631  -2.720  0.00  0.00    +0.240 C 
ATOM     22  O   LIG    1       -5.389  -9.644  -2.896  0.00  0.00    -0.400 OA
ENDBRANCH  20  22
ENDBRANCH  19  20
ENDBRANCH  16  19
ENDBRANCH  15  16
ENDBRANCH  14  15
ENDBRANCH  13  14
ENDBRANCH  11  13
ENDBRANCH   8  11
ENDBRANCH   1   8
BRANCH   4  23
ATOM     23  N   LIG    1        3.832  -3.158  -0.255  0.00  0.00    -0.690 N 
ATOM     24  H   LIG    1        4.315  -3.354   0.563  0.00  0.00    +0.420 HD
BRANCH  23  25
ATOM     25  C   LIG    1        3.248  -1.830  -0.460  0.00  0.00    +0.250 C 
ATOM     26  C   LIG    1        4.016  -0.801   0.374  0.00  0.00    +0.040 C 
ATOM     27  C   LIG    1        3.576   0.613  -0.026  0.00  0.00    +0.120 C 
ATOM     28  C   LIG    1        2.070   0.663  -0.013  0.00  0.00    -0.030 A 
ATOM     29  C   LIG    1        1.270  -0.425  -0.012  0.00  0.00    +0.010 A 
ATOM     30  N   LIG    1        0.002  -0.004   0.002  0.00  0.00    -0.480 NA
ATOM     31  C   LIG    1       -0.016   1.303   0.009  0.00  0.00    +0.210 A 
ATOM     32  C   LIG    1       -1.252   2.164   0.020  0.00  0.00    +0.180 C 
ATOM     33  N   LIG    1        1.259   1.756  -0.001  0.00  0.00    -0.440 N 
ATOM     34  C   LIG    1        1.777  -1.846  -0.028  0.00  0.00    +0.120 C 
BRANCH  33  35
ATOM     35  C   LIG    1        1.687   3.157   0.002  0.00  0.00    +0.300 C 
BRANCH  35  36
ATOM     36  C   LIG    1        1.849   3.638   1.446  0.00  0.00    +0.160 C 
BRANCH  36  37
ATOM     37  O   LIG    1        2.266   5.005   1.448  0.00  0.00    -0.570 OA
ATOM     38  H   LIG    1        2.389   5.377   2.332  0.00  0.00    +0.390 HD
ENDBRANCH  36  37
ENDBRANCH  35  36
ENDBRANCH  33  35
ENDBRANCH  23  25
ENDBRANCH   4  23
TORSDOF 14
