REMARK  Name = ZINCyk0000000ndw.0
REMARK                            x       y       z     vdW  Elec       q    Type
REMARK                         _______ _______ _______ _____ _____    ______ ____
ROOT
ATOM      1  C   LIG    1        2.982  -5.849  -2.312  0.00  0.00    -0.790 A 
ATOM      2  C   LIG    1        2.381  -4.610  -2.402  0.00  0.00    +0.440 A 
ATOM      3  N   LIG    1        2.360  -3.791  -1.367  0.00  0.00    -0.530 NA
ATOM      4  C   LIG    1        2.919  -4.116  -0.212  0.00  0.00    +0.470 A 
ATOM      5  C   LIG    1        3.543  -5.351  -0.051  0.00  0.00    -0.180 A 
ATOM      6 CL   LIG    1        4.269  -5.777   1.467  0.00  0.00    -0.040 Cl
ATOM      7  C   LIG    1        3.575  -6.232  -1.117  0.00  0.00    +0.240 A 
ENDROOT
BRANCH   1   8
ATOM      8  S   LIG    1        2.994  -6.934  -3.700  0.00  0.00    +2.710 S 
ATOM      9  O   LIG    1        4.093  -7.815  -3.511  0.00  0.00    -0.940 OA
ATOM     10  O   LIG    1        2.844  -6.115  -4.851  0.00  0.00    -0.950 OA
BRANCH   8  11
ATOM     11  N   LIG    1        1.628  -7.865  -3.607  0.00  0.00    -1.120 NA
ATOM     12  H   LIG    1        1.702  -8.823  -3.471  0.00  0.00    +0.420 HD
BRANCH  11  13
ATOM     13  C   LIG    1        0.308  -7.242  -3.731  0.00  0.00    +0.290 C 
BRANCH  13  14
ATOM     14  C   LIG    1       -0.744  -8.324  -3.986  0.00  0.00    +0.040 C 
BRANCH  14  15
ATOM     15  C   LIG    1       -2.123  -7.674  -4.115  0.00  0.00    +0.250 C 
BRANCH  15  16
ATOM     16  N   LIG    1       -3.133  -8.712  -4.360  0.00  0.00    -0.390 N 
ATOM     17  C   LIG    1       -3.226  -9.591  -3.186  0.00  0.00    +0.330 C 
ATOM     18  H   LIG    1       -2.868  -9.257  -5.167  0.00  0.00    +0.430 HD
BRANCH  16  19
ATOM     19  C   LIG    1       -4.437  -8.080  -4.603  0.00  0.00    +0.280 C 
BRANCH  19  20
ATOM     20  C   LIG    1       -4.383  -7.288  -5.911  0.00  0.00    +0.200 C 
BRANCH  20  22
ATOM     21  C   LIG    1       -4.090  -7.542  -8.276  0.00  0.00    +0.240 C 
ATOM     22  O   LIG    1       -4.158  -8.184  -7.001  0.00  0.00    -0.400 OA
ENDBRANCH  20  22
ENDBRANCH  19  20
ENDBRANCH  16  19
ENDBRANCH  15  16
ENDBRANCH  14  15
ENDBRANCH  13  14
ENDBRANCH  11  13
ENDBRANCH   8  11
ENDBRANCH   1   8
BRANCH   4  23
ATOM     23  N   LIG    1        2.878  -3.220   0.850  0.00  0.00    -0.690 N 
ATOM     24  H   LIG    1        3.284  -3.456   1.699  0.00  0.00    +0.420 HD
BRANCH  23  25
ATOM     25  C   LIG    1        2.224  -1.919   0.687  0.00  0.00    +0.250 C 
ATOM     26  C   LIG    1        2.819  -0.920   1.683  0.00  0.00    +0.040 C 
ATOM     27  C   LIG    1        2.320   0.491   1.350  0.00  0.00    +0.120 C 
ATOM     28  C   LIG    1        0.823   0.442   1.195  0.00  0.00    -0.030 A 
ATOM     29  C   LIG    1        0.110  -0.691   1.018  0.00  0.00    +0.010 A 
ATOM     30  N   LIG    1       -1.180  -0.355   0.922  0.00  0.00    -0.480 NA
ATOM     31  C   LIG    1       -1.295   0.942   1.032  0.00  0.00    +0.210 A 
ATOM     32  C   LIG    1       -2.586   1.717   0.971  0.00  0.00    +0.180 C 
ATOM     33  N   LIG    1       -0.064   1.476   1.203  0.00  0.00    -0.440 N 
ATOM     34  C   LIG    1        0.720  -2.068   0.947  0.00  0.00    +0.120 C 
BRANCH  33  35
ATOM     35  C   LIG    1        0.256   2.896   1.367  0.00  0.00    +0.300 C 
BRANCH  35  36
ATOM     36  C   LIG    1        0.226   3.258   2.853  0.00  0.00    +0.160 C 
BRANCH  36  37
ATOM     37  O   LIG    1        0.537   4.643   3.013  0.00  0.00    -0.570 OA
ATOM     38  H   LIG    1        0.537   4.943   3.932  0.00  0.00    +0.390 HD
ENDBRANCH  36  37
ENDBRANCH  35  36
ENDBRANCH  33  35
ENDBRANCH  23  25
ENDBRANCH   4  23
TORSDOF 14
