REMARK  Name = ZINCpe00000MNbyd.0
REMARK                            x       y       z     vdW  Elec       q    Type
REMARK                         _______ _______ _______ _____ _____    ______ ____
ROOT
ATOM      1  C   LIG    1        3.722   6.279   0.527  0.00  0.00    +0.230 C 
ATOM      2  C   LIG    1        4.225   6.227  -0.925  0.00  0.00    +0.020 C 
ATOM      3  C   LIG    1        2.751   6.302  -1.356  0.00  0.00    +0.020 C 
ATOM      4  C   LIG    1        2.402   5.684   0.009  0.00  0.00    +0.230 C 
ENDROOT
BRANCH   1   6
ATOM      5  C   LIG    1        4.463   8.101   1.966  0.00  0.00    +0.520 C 
ATOM      6  N   LIG    1        3.586   7.641   1.052  0.00  0.00    -0.710 N 
ATOM      7  H   LIG    1        2.864   8.210   0.742  0.00  0.00    +0.400 HD
ATOM      8  O   LIG    1        5.365   7.390   2.353  0.00  0.00    -0.510 OA
BRANCH   5   9
ATOM      9  C   LIG    1        4.322   9.502   2.505  0.00  0.00    +0.190 C 
BRANCH   9  14
ATOM     10  C   LIG    1        4.335  12.037   3.354  0.00  0.00    +0.030 C 
ATOM     11  C   LIG    1        5.186  11.052   4.159  0.00  0.00    +0.120 C 
ATOM     12  C   LIG    1        6.695  11.299   4.029  0.00  0.00    +0.030 C 
ATOM     13  C   LIG    1        6.570  10.358   2.822  0.00  0.00    +0.160 C 
ATOM     14  N   LIG    1        5.392   9.761   3.478  0.00  0.00    -0.450 NA
ENDBRANCH   9  14
ENDBRANCH   5   9
ENDBRANCH   1   6
BRANCH   4  15
ATOM     15  N   LIG    1        2.382   4.219   0.002  0.00  0.00    -0.700 N 
ATOM     16  H   LIG    1        3.215   3.723  -0.009  0.00  0.00    +0.420 HD
ATOM     17  C   LIG    1        1.206   3.562   0.009  0.00  0.00    +0.580 C 
ATOM     18  O   LIG    1        0.161   4.184   0.022  0.00  0.00    -0.540 OA
BRANCH  17  19
ATOM     19  C   LIG    1        1.185   2.089   0.002  0.00  0.00    -0.110 A 
ATOM     20  C   LIG    1       -0.017   1.393   0.010  0.00  0.00    +0.150 A 
ATOM     21  C   LIG    1        0.002  -0.004   0.002  0.00  0.00    +0.000 A 
ATOM     22  C   LIG    1        1.168  -0.687  -0.013  0.00  0.00    +0.260 A 
ATOM     23  N   LIG    1        2.371  -0.050  -0.021  0.00  0.00    -0.370 N 
ATOM     24  C   LIG    1        3.663  -0.506  -0.036  0.00  0.00    +0.100 A 
ATOM     25  C   LIG    1        4.467   0.578  -0.037  0.00  0.00    +0.230 A 
ATOM     26  N   LIG    1        3.704   1.676  -0.024  0.00  0.00    -0.500 NA
ATOM     27  C   LIG    1        2.433   1.321  -0.014  0.00  0.00    +0.240 A 
ENDBRANCH  17  19
ENDBRANCH   4  15
TORSDOF 5
