REMARK  Name = ZINCpe000000TAHn.0
REMARK                            x       y       z     vdW  Elec       q    Type
REMARK                         _______ _______ _______ _____ _____    ______ ____
ROOT
ATOM      1  N   LIG    1       -0.700   1.560   1.217  0.00  0.00    -0.520 NA
ATOM      2  C   LIG    1       -0.620   3.022   1.329  0.00  0.00    +0.190 C 
ATOM      3  C   LIG    1       -1.466   3.491   2.514  0.00  0.00    +0.040 C 
ATOM      4  C   LIG    1       -0.950   2.833   3.797  0.00  0.00    +0.260 C 
ATOM      5  C   LIG    1       -0.998   1.311   3.635  0.00  0.00    +0.030 C 
ATOM      6  C   LIG    1       -0.165   0.905   2.417  0.00  0.00    +0.190 C 
ENDROOT
BRANCH   4   7
ATOM      7  N   LIG    1       -1.792   3.232   4.926  0.00  0.00    -0.530 N 
ATOM      8  C   LIG    1       -3.115   3.010   5.040  0.00  0.00    +0.680 A 
ATOM      9  N   LIG    1       -3.561   3.513   6.207  0.00  0.00    -0.650 N 
ATOM     10  H   LIG    1       -4.477   3.482   6.525  0.00  0.00    +0.430 HD
ATOM     11  C   LIG    1       -2.483   4.086   6.878  0.00  0.00    +0.090 A 
ATOM     12  C   LIG    1       -2.358   4.736   8.095  0.00  0.00    +0.030 A 
ATOM     13  C   LIG    1       -1.121   5.192   8.508  0.00  0.00    +0.020 A 
ATOM     14  C   LIG    1       -0.008   5.014   7.704  0.00  0.00    +0.020 A 
ATOM     15  C   LIG    1       -0.124   4.371   6.486  0.00  0.00    +0.020 A 
ATOM     16  O   LIG    1       -3.804   2.441   4.214  0.00  0.00    -0.540 OA
ATOM     17  C   LIG    1       -1.360   3.902   6.068  0.00  0.00    +0.090 A 
ENDBRANCH   4   7
BRANCH   1  18
ATOM     18  C   LIG    1       -0.013   1.086   0.008  0.00  0.00    +0.220 C 
BRANCH  18  24
ATOM     19  N   LIG    1       -0.487   1.406  -4.765  0.00  0.00    -0.740 N 
ATOM     20  H   LIG    1        0.308   0.860  -4.865  0.00  0.00    +0.400 HD
ATOM     21  C   LIG    1       -0.940   1.719  -3.535  0.00  0.00    +0.690 C 
ATOM     22  N   LIG    1       -0.288   1.272  -2.443  0.00  0.00    -0.690 N 
ATOM     23  H   LIG    1        0.507   0.726  -2.543  0.00  0.00    +0.410 HD
ATOM     24  C   LIG    1       -0.742   1.585  -1.213  0.00  0.00    +0.510 C 
ATOM     25  O   LIG    1       -1.736   2.268  -1.089  0.00  0.00    -0.440 OA
ATOM     26  O   LIG    1       -1.937   2.403  -3.410  0.00  0.00    -0.530 OA
BRANCH  19  28
ATOM     27  C   LIG    1       -0.480   1.398  -7.211  0.00  0.00    +0.030 C 
ATOM     28  C   LIG    1       -1.196   1.891  -5.952  0.00  0.00    +0.270 C 
ENDBRANCH  19  28
ENDBRANCH  18  24
ENDBRANCH   1  18
TORSDOF 4
