REMARK  Name = ZINCkj00000Oi70q.1
REMARK                            x       y       z     vdW  Elec       q    Type
REMARK                         _______ _______ _______ _____ _____    ______ ____
ROOT
ATOM      1  O   LIG    1       -7.645   5.962   2.565  0.00  0.00    -0.510 OA
ATOM      2  C   LIG    1       -7.280   5.210   1.677  0.00  0.00    +0.520 A 
ATOM      3  C   LIG    1       -5.911   5.164   1.335  0.00  0.00    +0.030 A 
ATOM      4  C   LIG    1       -5.481   4.336   0.351  0.00  0.00    -0.070 A 
ATOM      5  C   LIG    1       -6.466   3.504  -0.343  0.00  0.00    -0.140 A 
ATOM      6  C   LIG    1       -6.084   2.635  -1.370  0.00  0.00    +0.040 A 
ATOM      7  C   LIG    1       -7.027   1.872  -1.999  0.00  0.00    +0.010 A 
ATOM      8  C   LIG    1       -8.362   1.952  -1.627  0.00  0.00    +0.090 A 
ATOM      9  C   LIG    1       -8.760   2.793  -0.609  0.00  0.00    +0.000 A 
ATOM     10  C   LIG    1       -7.818   3.583   0.041  0.00  0.00    +0.200 A 
ATOM     11  N   LIG    1       -8.191   4.446   1.050  0.00  0.00    -0.620 N 
ATOM     12  H   LIG    1       -9.123   4.502   1.310  0.00  0.00    +0.430 HD
ENDROOT
BRANCH   4  13
ATOM     13  C   LIG    1       -4.023   4.278  -0.024  0.00  0.00    +0.340 C 
BRANCH  13  14
ATOM     14  N   LIG    1       -3.375   3.175   0.699  0.00  0.00    -0.500 N 
ATOM     15  H   LIG    1       -3.461   3.328   1.692  0.00  0.00    +0.440 HD
ATOM     16  H   LIG    1       -3.821   2.304   0.453  0.00  0.00    +0.430 HD
BRANCH  14  17
ATOM     17  C   LIG    1       -1.953   3.119   0.333  0.00  0.00    +0.240 C 
ATOM     18  C   LIG    1       -1.825   2.736  -1.107  0.00  0.00    +0.030 C 
ATOM     19  C   LIG    1       -0.899   1.890  -1.460  0.00  0.00    -0.360 C 
ATOM     20  S   LIG    1       -0.017   1.417   0.010  0.00  0.00    +2.460 S 
ATOM     21  O   LIG    1        1.178   2.186   0.003  0.00  0.00    -0.890 OA
ATOM     22  O   LIG    1        0.002  -0.004   0.002  0.00  0.00    -0.890 OA
ATOM     23  C   LIG    1       -1.235   2.070   1.221  0.00  0.00    -0.280 C 
ENDBRANCH  14  17
ENDBRANCH  13  14
ENDBRANCH   4  13
TORSDOF 3
