REMARK  Name = ZINCbw0000000Hj0.0
REMARK                            x       y       z     vdW  Elec       q    Type
REMARK                         _______ _______ _______ _____ _____    ______ ____
ROOT
ATOM      1  C   LIG    1        1.000   5.761   0.024  0.00  0.00    +0.090 C 
ATOM      2  C   LIG    1        1.527   4.349   0.011  0.00  0.00    -0.130 A 
ATOM      3  C   LIG    1        0.644   3.275   0.013  0.00  0.00    +0.120 A 
ATOM      4  N   LIG    1       -0.730   3.177   0.026  0.00  0.00    -0.590 N 
ATOM      5  H   LIG    1       -1.342   3.929   0.036  0.00  0.00    +0.420 HD
ATOM      6  C   LIG    1       -1.102   1.859   0.017  0.00  0.00    +0.220 A 
ATOM      7  C   LIG    1       -0.013   1.076   0.008  0.00  0.00    -0.050 A 
ATOM      8  C   LIG    1        1.153   1.963   0.002  0.00  0.00    -0.120 A 
ATOM      9  C   LIG    1        2.533   1.752  -0.013  0.00  0.00    +0.090 A 
ATOM     10  C   LIG    1        3.384   2.820  -0.015  0.00  0.00    -0.030 A 
ATOM     11  C   LIG    1        2.887   4.118  -0.004  0.00  0.00    +0.110 A 
ATOM     12  F   LIG    1        3.743   5.163  -0.007  0.00  0.00    -0.140 F 
ENDROOT
TORSDOF 0
