REMARK  Name = ZINCrD00000F5Llg.0
REMARK                            x       y       z     vdW  Elec       q    Type
REMARK                         _______ _______ _______ _____ _____    ______ ____
ROOT
ATOM      1  C   LIG    1        1.157   2.074   0.120  0.00  0.00    +0.530 C 
ATOM      2  N   LIG    1       -0.006   1.393   0.105  0.00  0.00    -0.590 N 
ATOM      3  H   LIG    1       -0.848   1.871   0.161  0.00  0.00    +0.400 HD
ATOM      4  O   LIG    1        2.211   1.478   0.044  0.00  0.00    -0.490 OA
ENDROOT
BRANCH   2   5
ATOM      5  N   LIG    1        0.002  -0.004   0.002  0.00  0.00    -0.180 NA
ATOM      6  C   LIG    1       -1.107  -0.668   0.107  0.00  0.00    +0.100 C 
ATOM      7  C   LIG    1       -1.181  -2.064  -0.450  0.00  0.00    +0.200 C 
ATOM      8  C   LIG    1       -2.406  -2.158  -1.370  0.00  0.00    -0.290 C 
ATOM      9  S   LIG    1       -3.895  -1.955  -0.350  0.00  0.00    +2.500 S 
ATOM     10  C   LIG    1       -3.558  -0.527   0.629  0.00  0.00    -0.630 A 
ATOM     11  C   LIG    1       -4.607   0.109   1.267  0.00  0.00    +0.180 A 
ATOM     12  C   LIG    1       -4.374   1.221   2.060  0.00  0.00    +0.010 A 
ATOM     13  C   LIG    1       -3.087   1.713   2.208  0.00  0.00    +0.160 A 
ATOM     14  C   LIG    1       -2.033   1.091   1.570  0.00  0.00    -0.040 A 
ATOM     15  F   LIG    1       -2.864   2.802   2.976  0.00  0.00    -0.120 F 
ATOM     16  O   LIG    1       -4.002  -3.012   0.594  0.00  0.00    -0.920 OA
ATOM     17  O   LIG    1       -5.003  -1.575  -1.154  0.00  0.00    -0.920 OA
ATOM     18  C   LIG    1       -2.260  -0.040   0.773  0.00  0.00    +0.020 A 
ENDBRANCH   2   5
BRANCH   1  19
ATOM     19  C   LIG    1        1.149   3.577   0.230  0.00  0.00    +0.100 C 
BRANCH  19  20
ATOM     20  C   LIG    1        2.588   4.097   0.225  0.00  0.00    +0.100 C 
BRANCH  20  21
ATOM     21  S   LIG    1        2.578   5.906   0.358  0.00  0.00    -0.110 S 
BRANCH  21  26
ATOM     22  C   LIG    1        8.449   7.306   0.284  0.00  0.00    +0.090 C 
ATOM     23  C   LIG    1        6.983   6.957   0.303  0.00  0.00    -0.090 A 
ATOM     24  C   LIG    1        6.036   7.959   0.405  0.00  0.00    +0.030 A 
ATOM     25  C   LIG    1        4.692   7.643   0.422  0.00  0.00    +0.040 A 
ATOM     26  C   LIG    1        4.291   6.315   0.337  0.00  0.00    -0.090 A 
ATOM     27  C   LIG    1        5.246   5.309   0.240  0.00  0.00    +0.000 A 
ATOM     28  C   LIG    1        6.588   5.634   0.217  0.00  0.00    +0.030 A 
ENDBRANCH  21  26
ENDBRANCH  20  21
ENDBRANCH  19  20
ENDBRANCH   1  19
TORSDOF 5
