REMARK  Name = ZINCqH000003626G.0
REMARK                            x       y       z     vdW  Elec       q    Type
REMARK                         _______ _______ _______ _____ _____    ______ ____
ROOT
ATOM      1  N   LIG    1        2.494  -0.278  -0.022  0.00  0.00    -0.670 N 
ATOM      2  H   LIG    1        1.665  -0.775   0.058  0.00  0.00    +0.410 HD
ATOM      3  C   LIG    1        2.476   1.070  -0.017  0.00  0.00    +0.570 C 
ATOM      4  O   LIG    1        3.520   1.692  -0.033  0.00  0.00    -0.510 OA
ENDROOT
BRANCH   3   5
ATOM      5  C   LIG    1        1.188   1.790   0.006  0.00  0.00    -0.130 A 
ATOM      6  C   LIG    1       -0.013   1.075   0.024  0.00  0.00    +0.060 A 
ATOM      7  C   LIG    1       -1.216   1.748   0.041  0.00  0.00    +0.030 A 
ATOM      8  C   LIG    1       -1.234   3.135   0.051  0.00  0.00    +0.100 A 
ATOM      9  O   LIG    1       -2.421   3.804   0.074  0.00  0.00    -0.320 OA
ATOM     10  C   LIG    1       -2.711   4.523   1.274  0.00  0.00    +0.230 C 
ATOM     11  C   LIG    1       -2.066   5.900   1.249  0.00  0.00    -0.010 C 
ATOM     12  C   LIG    1       -0.547   5.827   1.239  0.00  0.00    +0.230 C 
ATOM     13  O   LIG    1       -0.077   5.217   0.036  0.00  0.00    -0.310 OA
ATOM     14  C   LIG    1       -0.043   3.852   0.033  0.00  0.00    +0.060 A 
ATOM     15  C   LIG    1        1.167   3.188   0.011  0.00  0.00    +0.100 A 
ENDBRANCH   3   5
BRANCH   1  19
ATOM     16  C   LIG    1        6.122  -2.308  -0.376  0.00  0.00    +0.110 A 
ATOM     17  C   LIG    1        6.061  -1.115   0.324  0.00  0.00    -0.020 A 
ATOM     18  C   LIG    1        4.859  -0.442   0.442  0.00  0.00    +0.050 A 
ATOM     19  C   LIG    1        3.711  -0.961  -0.142  0.00  0.00    +0.140 A 
ATOM     20  C   LIG    1        3.768  -2.160  -0.840  0.00  0.00    -0.040 A 
ATOM     21  C   LIG    1        4.973  -2.831  -0.963  0.00  0.00    +0.090 A 
BRANCH  16  23
ATOM     22  C   LIG    1        8.444  -2.376   0.136  0.00  0.00    +0.240 C 
ATOM     23  O   LIG    1        7.306  -2.970  -0.491  0.00  0.00    -0.310 OA
ENDBRANCH  16  23
BRANCH  21  24
ATOM     24  O   LIG    1        5.032  -4.003  -1.650  0.00  0.00    -0.310 OA
BRANCH  24  25
ATOM     25  C   LIG    1        3.814  -4.480  -2.226  0.00  0.00    +0.590 C 
ATOM     26  F   LIG    1        3.327  -3.535  -3.135  0.00  0.00    -0.200 F 
ATOM     27  F   LIG    1        2.869  -4.684  -1.215  0.00  0.00    -0.200 F 
ENDBRANCH  24  25
ENDBRANCH  21  24
ENDBRANCH   1  19
TORSDOF 5
