REMARK  Name = ZINCtV00000tPmo5.0
REMARK                            x       y       z     vdW  Elec       q    Type
REMARK                         _______ _______ _______ _____ _____    ______ ____
ROOT
ATOM      1  C   LIG    1       -0.007   1.419  -0.196  0.00  0.00    -0.080 A 
ATOM      2  C   LIG    1       -0.102   0.037  -0.266  0.00  0.00    -0.080 A 
ATOM      3  C   LIG    1        1.066  -0.727  -0.408  0.00  0.00    +0.200 A 
ATOM      4  N   LIG    1        2.260  -0.180  -0.479  0.00  0.00    -0.440 NA
ATOM      5  C   LIG    1        2.445   1.140  -0.421  0.00  0.00    +0.130 A 
ATOM      6  C   LIG    1        3.734   1.698  -0.499  0.00  0.00    +0.060 A 
ATOM      7  C   LIG    1        3.890   3.049  -0.436  0.00  0.00    +0.040 A 
ATOM      8  C   LIG    1        2.792   3.894  -0.294  0.00  0.00    +0.030 A 
ATOM      9  C   LIG    1        1.528   3.389  -0.215  0.00  0.00    +0.030 A 
ATOM     10  C   LIG    1       -1.448  -0.638  -0.189  0.00  0.00    +0.120 C 
ATOM     11  C   LIG    1        1.331   2.006  -0.277  0.00  0.00    -0.070 A 
ENDROOT
BRANCH   3  12
ATOM     12  C   LIG    1        0.950  -2.204  -0.482  0.00  0.00    -0.040 A 
ATOM     13  C   LIG    1        1.824  -3.011   0.245  0.00  0.00    +0.070 A 
ATOM     14  C   LIG    1        1.710  -4.385   0.177  0.00  0.00    +0.030 A 
ATOM     15  C   LIG    1        0.737  -4.962  -0.618  0.00  0.00    +0.040 A 
ATOM     16  C   LIG    1       -0.131  -4.166  -1.347  0.00  0.00    -0.040 A 
ATOM     17 CL   LIG    1       -1.350  -4.898  -2.343  0.00  0.00    -0.060 Cl
ATOM     18  C   LIG    1       -0.029  -2.790  -1.282  0.00  0.00    +0.050 A 
ENDBRANCH   3  12
BRANCH   1  21
ATOM     19  N   LIG    1       -1.853   2.718  -1.148  0.00  0.00    -0.660 N 
ATOM     20  H   LIG    1       -1.563   2.436  -2.030  0.00  0.00    +0.410 HD
ATOM     21  C   LIG    1       -1.211   2.267  -0.052  0.00  0.00    +0.570 C 
ATOM     22  O   LIG    1       -1.621   2.556   1.055  0.00  0.00    -0.500 OA
BRANCH  19  28
ATOM     23  C   LIG    1       -5.806   4.202   1.369  0.00  0.00    +0.100 C 
ATOM     24  C   LIG    1       -4.868   4.335   0.197  0.00  0.00    -0.070 A 
ATOM     25  C   LIG    1       -5.078   5.322  -0.748  0.00  0.00    -0.010 A 
ATOM     26  C   LIG    1       -4.220   5.447  -1.825  0.00  0.00    +0.030 A 
ATOM     27  C   LIG    1       -3.146   4.589  -1.958  0.00  0.00    -0.110 A 
ATOM     28  C   LIG    1       -2.935   3.592  -1.014  0.00  0.00    +0.140 A 
ATOM     29  C   LIG    1       -2.208   4.730  -3.128  0.00  0.00    +0.080 C 
ATOM     30  C   LIG    1       -3.799   3.469   0.067  0.00  0.00    +0.020 A 
ENDBRANCH  19  28
ENDBRANCH   1  21
TORSDOF 3
