REMARK  Name = ZINCtV00000bjmqw.0
REMARK                            x       y       z     vdW  Elec       q    Type
REMARK                         _______ _______ _______ _____ _____    ______ ____
ROOT
ATOM      1  O   LIG    1       -6.015  -2.088  -0.071  0.00  0.00    -0.500 OA
ATOM      2  C   LIG    1       -6.046  -0.873  -0.049  0.00  0.00    +0.570 C 
ATOM      3  N   LIG    1       -4.901  -0.171   0.062  0.00  0.00    -0.670 N 
ATOM      4  H   LIG    1       -4.931   0.794   0.157  0.00  0.00    +0.410 HD
ENDROOT
BRANCH   2   5
ATOM      5  C   LIG    1       -7.337  -0.167  -0.145  0.00  0.00    -0.120 A 
ATOM      6  C   LIG    1       -7.382   1.217  -0.243  0.00  0.00    +0.100 A 
ATOM      7  C   LIG    1       -8.599   1.879  -0.338  0.00  0.00    -0.200 A 
ATOM      8  C   LIG    1       -9.783   1.209  -0.330  0.00  0.00    +0.140 A 
ATOM      9  C   LIG    1       -9.813  -0.192  -0.228  0.00  0.00    -0.070 A 
ATOM     10  C   LIG    1      -11.028  -0.898  -0.216  0.00  0.00    +0.050 A 
ATOM     11  C   LIG    1      -11.017  -2.256  -0.115  0.00  0.00    +0.020 A 
ATOM     12  C   LIG    1       -9.818  -2.958  -0.023  0.00  0.00    +0.040 A 
ATOM     13  C   LIG    1       -8.621  -2.305  -0.031  0.00  0.00    +0.050 A 
ATOM     14  C   LIG    1       -8.596  -0.909  -0.134  0.00  0.00    +0.010 A 
BRANCH   7  15
ATOM     15  C   LIG    1       -8.608   3.382  -0.448  0.00  0.00    +0.510 C 
ATOM     16  F   LIG    1       -7.913   3.770  -1.598  0.00  0.00    -0.170 F 
ATOM     17  F   LIG    1       -7.992   3.936   0.679  0.00  0.00    -0.170 F 
ATOM     18  F   LIG    1       -9.930   3.836  -0.527  0.00  0.00    -0.170 F 
ENDBRANCH   7  15
ENDBRANCH   2   5
BRANCH   3  19
ATOM     19  C   LIG    1       -3.670  -0.834   0.042  0.00  0.00    +0.150 A 
ATOM     20  C   LIG    1       -2.607  -0.349   0.793  0.00  0.00    -0.010 A 
ATOM     21  C   LIG    1       -1.388  -1.002   0.776  0.00  0.00    +0.040 A 
ATOM     22  C   LIG    1       -1.223  -2.143   0.016  0.00  0.00    +0.010 A 
ATOM     23  C   LIG    1       -2.282  -2.633  -0.746  0.00  0.00    -0.020 A 
ATOM     24  C   LIG    1       -3.509  -1.976  -0.729  0.00  0.00    +0.030 A 
BRANCH  23  25
ATOM     25  C   LIG    1       -2.104  -3.855  -1.568  0.00  0.00    -0.100 A 
ATOM     26  C   LIG    1       -0.876  -4.522  -1.592  0.00  0.00    +0.070 A 
ATOM     27  C   LIG    1       -0.761  -5.658  -2.375  0.00  0.00    -0.030 A 
ATOM     28  C   LIG    1       -1.855  -6.093  -3.102  0.00  0.00    +0.260 A 
ATOM     29  N   LIG    1       -3.001  -5.442  -3.059  0.00  0.00    -0.480 NA
ATOM     30  C   LIG    1       -3.158  -4.357  -2.329  0.00  0.00    +0.270 A 
ENDBRANCH  23  25
ENDBRANCH   3  19
TORSDOF 4
