REMARK  Name = ZINCvU00000007p5.0
REMARK                            x       y       z     vdW  Elec       q    Type
REMARK                         _______ _______ _______ _____ _____    ______ ____
ROOT
ATOM      1  C   LIG    1        0.002  -0.004   0.002  0.00  0.00    +0.170 C 
ATOM      2  N   LIG    1       -1.147  -0.534  -0.752  0.00  0.00    -0.720 N 
ATOM      3  H   LIG    1       -2.086  -0.404  -0.544  0.00  0.00    +0.440 HD
ATOM      4  C   LIG    1       -0.642  -1.233  -1.784  0.00  0.00    +0.700 C 
ATOM      5  N   LIG    1        0.696  -1.226  -1.799  0.00  0.00    -0.570 N 
ATOM      6  O   LIG    1       -1.324  -1.807  -2.610  0.00  0.00    -0.520 OA
ATOM      7  C   LIG    1        0.005  -0.549   1.432  0.00  0.00    +0.100 C 
ATOM      8  C   LIG    1        1.204  -0.517  -0.767  0.00  0.00    +0.540 C 
ATOM      9  O   LIG    1        2.373  -0.328  -0.509  0.00  0.00    -0.460 OA
ENDROOT
BRANCH   1  15
ATOM     10  C   LIG    1       -1.230   6.338   0.045  0.00  0.00    +0.140 A 
ATOM     11  C   LIG    1       -0.033   5.681   0.031  0.00  0.00    -0.020 A 
ATOM     12  C   LIG    1       -0.011   4.277   0.024  0.00  0.00    -0.010 A 
ATOM     13  C   LIG    1        1.202   3.567   0.009  0.00  0.00    +0.020 A 
ATOM     14  C   LIG    1        1.185   2.205   0.003  0.00  0.00    +0.040 A 
ATOM     15  C   LIG    1       -0.018   1.503   0.010  0.00  0.00    -0.100 A 
ATOM     16  C   LIG    1       -1.212   2.157   0.020  0.00  0.00    +0.070 A 
ATOM     17  C   LIG    1       -1.235   3.562   0.032  0.00  0.00    -0.080 A 
ATOM     18  C   LIG    1       -2.450   4.270   0.047  0.00  0.00    +0.070 A 
ATOM     19  C   LIG    1       -2.437   5.630   0.053  0.00  0.00    -0.060 A 
BRANCH  10  21
ATOM     20  C   LIG    1       -2.532   8.327   0.066  0.00  0.00    +0.250 C 
ATOM     21  O   LIG    1       -1.250   7.696   0.051  0.00  0.00    -0.320 OA
ENDBRANCH  10  21
ENDBRANCH   1  15
BRANCH   5  22
ATOM     22  C   LIG    1        1.511  -1.906  -2.809  0.00  0.00    +0.430 C 
BRANCH  22  23
ATOM     23  C   LIG    1        1.775  -0.966  -3.957  0.00  0.00    +0.040 A 
ATOM     24  C   LIG    1        2.886  -0.228  -4.027  0.00  0.00    -0.040 A 
ATOM     25  S   LIG    1        2.820   0.728  -5.507  0.00  0.00    +0.110 S 
ATOM     26  C   LIG    1        1.252   0.023  -5.888  0.00  0.00    +0.140 A 
ATOM     27  N   LIG    1        0.923  -0.817  -4.948  0.00  0.00    -0.440 NA
BRANCH  26  28
ATOM     28  C   LIG    1        0.439   0.334  -7.083  0.00  0.00    -0.050 A 
ATOM     29  C   LIG    1       -0.755  -0.244  -7.324  0.00  0.00    +0.030 A 
ATOM     30  S   LIG    1       -1.415   0.380  -8.830  0.00  0.00    +0.140 S 
ATOM     31  C   LIG    1       -0.007   1.405  -9.066  0.00  0.00    -0.040 A 
ATOM     32  C   LIG    1        0.846   1.245  -8.058  0.00  0.00    +0.020 A 
ENDBRANCH  26  28
ENDBRANCH  22  23
ENDBRANCH   5  22
TORSDOF 5
