REMARK  Name = ZINCrH000004tGsT.0
REMARK                            x       y       z     vdW  Elec       q    Type
REMARK                         _______ _______ _______ _____ _____    ______ ____
ROOT
ATOM      1  C   LIG    1        2.003   2.216   1.161  0.00  0.00    +0.520 C 
ATOM      2  N   LIG    1        1.354   2.008  -0.002  0.00  0.00    -0.580 N 
ATOM      3  O   LIG    1        1.476   1.915   2.212  0.00  0.00    -0.530 OA
ENDROOT
BRANCH   2   4
ATOM      4  C   LIG    1        2.030   2.269  -1.274  0.00  0.00    +0.200 C 
ATOM      5  C   LIG    1        1.221   2.073  -2.558  0.00  0.00    +0.030 C 
ATOM      6  C   LIG    1        2.314   1.071  -2.182  0.00  0.00    +0.010 C 
ENDBRANCH   2   4
BRANCH   1   7
ATOM      7  C   LIG    1        3.382   2.823   1.157  0.00  0.00    +0.060 C 
BRANCH   7   8
ATOM      8  C   LIG    1        3.939   2.835   2.582  0.00  0.00    +0.030 C 
BRANCH   8   9
ATOM      9  C   LIG    1        5.340   3.450   2.577  0.00  0.00    +0.330 C 
BRANCH   9  19
ATOM     10  O   LIG    1        6.914   1.437   3.994  0.00  0.00    -0.480 OA
ATOM     11  C   LIG    1        6.595   2.484   4.523  0.00  0.00    +0.640 A 
ATOM     12  O   LIG    1        6.909   2.846   5.777  0.00  0.00    -0.240 OA
ATOM     13  C   LIG    1        6.391   4.073   6.030  0.00  0.00    +0.030 A 
ATOM     14  C   LIG    1        6.415   4.898   7.142  0.00  0.00    +0.060 A 
ATOM     15  C   LIG    1        5.782   6.126   7.104  0.00  0.00    +0.030 A 
ATOM     16  C   LIG    1        5.123   6.536   5.958  0.00  0.00    +0.040 A 
ATOM     17  C   LIG    1        5.093   5.720   4.844  0.00  0.00    +0.030 A 
ATOM     18  C   LIG    1        5.731   4.489   4.874  0.00  0.00    +0.070 A 
ATOM     19  N   LIG    1        5.873   3.462   3.941  0.00  0.00    -0.550 N 
ENDBRANCH   9  19
ENDBRANCH   8   9
ENDBRANCH   7   8
ENDBRANCH   1   7
BRANCH   2  20
ATOM     20  C   LIG    1       -0.028   1.522   0.007  0.00  0.00    +0.340 C 
BRANCH  20  21
ATOM     21  C   LIG    1       -0.029   0.015  -0.013  0.00  0.00    -0.120 A 
ATOM     22  C   LIG    1       -0.050  -0.659  -1.220  0.00  0.00    +0.050 A 
ATOM     23  C   LIG    1       -0.045  -2.041  -1.240  0.00  0.00    -0.020 A 
ATOM     24  C   LIG    1       -0.033  -2.751  -0.051  0.00  0.00    +0.100 A 
ATOM     25  C   LIG    1       -0.019  -2.074   1.157  0.00  0.00    -0.020 A 
ATOM     26  F   LIG    1       -0.036  -4.101  -0.070  0.00  0.00    -0.140 F 
ATOM     27  C   LIG    1       -0.017  -0.692   1.175  0.00  0.00    +0.080 A 
ENDBRANCH  20  21
ENDBRANCH   2  20
TORSDOF 7
