REMARK  Name = ZINCtV00000L6k3V.0
REMARK                            x       y       z     vdW  Elec       q    Type
REMARK                         _______ _______ _______ _____ _____    ______ ____
ROOT
ATOM      1  S   LIG    1       -0.022   1.810   0.012  0.00  0.00    -0.220 S 
ENDROOT
BRANCH   1   2
ATOM      2  C   LIG    1        0.002  -0.004   0.002  0.00  0.00    +0.150 C 
BRANCH   2   8
ATOM      3  C   LIG    1       -5.980  -2.205  -0.948  0.00  0.00    +0.160 A 
ATOM      4  C   LIG    1       -5.386  -1.974  -2.193  0.00  0.00    -0.050 A 
ATOM      5  C   LIG    1       -4.114  -1.503  -2.282  0.00  0.00    +0.090 A 
ATOM      6  C   LIG    1       -3.383  -1.244  -1.110  0.00  0.00    -0.130 A 
ATOM      7  C   LIG    1       -2.064  -0.756  -1.165  0.00  0.00    +0.140 A 
ATOM      8  C   LIG    1       -1.412  -0.526   0.013  0.00  0.00    -0.130 A 
ATOM      9  C   LIG    1       -2.053  -0.779   1.225  0.00  0.00    +0.230 A 
ATOM     10  N   LIG    1       -3.285  -1.229   1.272  0.00  0.00    -0.470 NA
ATOM     11 CL   LIG    1       -1.202  -0.485   2.709  0.00  0.00    -0.020 Cl
ATOM     12  C   LIG    1       -3.978  -1.475   0.155  0.00  0.00    +0.180 A 
ATOM     13  C   LIG    1       -5.294  -1.962   0.214  0.00  0.00    +0.010 A 
BRANCH   3  15
ATOM     14  C   LIG    1       -7.916  -2.911  -2.133  0.00  0.00    +0.250 C 
ATOM     15  O   LIG    1       -7.253  -2.676  -0.889  0.00  0.00    -0.310 OA
ENDBRANCH   3  15
ENDBRANCH   2   8
ENDBRANCH   1   2
BRANCH   1  16
ATOM     16  C   LIG    1        1.739   2.242  -0.003  0.00  0.00    +0.150 C 
BRANCH  16  17
ATOM     17  C   LIG    1        1.889   3.741   0.004  0.00  0.00    -0.130 A 
ATOM     18  C   LIG    1        1.952   4.441  -1.200  0.00  0.00    +0.230 A 
ATOM     19  N   LIG    1        2.078   5.747  -1.232  0.00  0.00    -0.470 NA
ATOM     20  C   LIG    1        2.160   6.466  -0.107  0.00  0.00    +0.180 A 
ATOM     21  C   LIG    1        2.301   7.862  -0.149  0.00  0.00    +0.010 A 
ATOM     22  C   LIG    1        2.383   8.572   1.021  0.00  0.00    +0.160 A 
ATOM     23  C   LIG    1        2.330   7.923   2.259  0.00  0.00    -0.050 A 
ATOM     24  C   LIG    1        2.195   6.571   2.331  0.00  0.00    +0.090 A 
ATOM     25  C   LIG    1        2.107   5.815   1.151  0.00  0.00    -0.130 A 
ATOM     26 CL   LIG    1        1.856   3.564  -2.695  0.00  0.00    -0.020 Cl
ATOM     27  C   LIG    1        1.968   4.415   1.190  0.00  0.00    +0.140 A 
BRANCH  22  28
ATOM     28  O   LIG    1        2.519   9.923   0.978  0.00  0.00    -0.310 OA
ATOM     29  C   LIG    1        2.600  10.607   2.230  0.00  0.00    +0.250 C 
ENDBRANCH  22  28
ENDBRANCH  16  17
ENDBRANCH   1  16
TORSDOF 6
