REMARK  Name = ZINCpk00000e9cww.0
REMARK                            x       y       z     vdW  Elec       q    Type
REMARK                         _______ _______ _______ _____ _____    ______ ____
ROOT
ATOM      1  N   LIG    1       -2.746   0.806  -3.935  0.00  0.00    -0.520 NA
ATOM      2  C   LIG    1       -2.797  -0.070  -2.756  0.00  0.00    +0.170 C 
ATOM      3  C   LIG    1       -3.218   0.750  -1.532  0.00  0.00    +0.310 C 
ATOM      4  N   LIG    1       -2.315   1.905  -1.410  0.00  0.00    -1.000 NA
ATOM      5  C   LIG    1       -2.111   2.756  -2.592  0.00  0.00    +0.310 C 
ATOM      6  C   LIG    1       -1.729   1.854  -3.776  0.00  0.00    +0.180 C 
ENDROOT
BRANCH   4   7
ATOM      7  S   LIG    1       -1.554   2.241   0.022  0.00  0.00    +2.690 S 
ATOM      8  O   LIG    1       -1.239   3.626  -0.007  0.00  0.00    -0.950 OA
ATOM      9  O   LIG    1       -2.340   1.644   1.044  0.00  0.00    -0.940 OA
BRANCH   7  10
ATOM     10  C   LIG    1       -0.017   1.381   0.010  0.00  0.00    -0.720 A 
ATOM     11  C   LIG    1        1.171   2.087   0.002  0.00  0.00    +0.150 A 
ATOM     12  C   LIG    1        2.377   1.412  -0.013  0.00  0.00    -0.010 A 
ATOM     13  C   LIG    1        2.397   0.030  -0.021  0.00  0.00    +0.100 A 
ATOM     14  C   LIG    1        1.211  -0.679  -0.013  0.00  0.00    -0.020 A 
ATOM     15  C   LIG    1        0.002  -0.004   0.002  0.00  0.00    +0.190 A 
ATOM     16  F   LIG    1       -1.158  -0.696   0.009  0.00  0.00    -0.120 F 
ENDBRANCH   7  10
ENDBRANCH   4   7
BRANCH   1  17
ATOM     17  C   LIG    1       -2.515   0.029  -5.159  0.00  0.00    +0.200 C 
BRANCH  17  20
ATOM     18  N   LIG    1       -2.551   0.413  -7.602  0.00  0.00    -0.730 N 
ATOM     19  H   LIG    1       -2.308  -0.518  -7.721  0.00  0.00    +0.400 HD
ATOM     20  C   LIG    1       -2.712   0.915  -6.362  0.00  0.00    +0.520 C 
ATOM     21  O   LIG    1       -3.015   2.080  -6.214  0.00  0.00    -0.510 OA
BRANCH  18  22
ATOM     22  C   LIG    1       -2.742   1.275  -8.772  0.00  0.00    +0.170 C 
ATOM     23  C   LIG    1       -1.753   2.441  -8.713  0.00  0.00    +0.030 C 
ATOM     24  C   LIG    1       -4.172   1.819  -8.776  0.00  0.00    +0.030 C 
BRANCH  22  26
ATOM     25  C   LIG    1       -2.701   1.365 -11.268  0.00  0.00    +0.030 C 
ATOM     26  C   LIG    1       -2.501   0.465 -10.047  0.00  0.00    +0.010 C 
ENDBRANCH  22  26
ENDBRANCH  18  22
ENDBRANCH  17  20
ENDBRANCH   1  17
TORSDOF 6
