REMARK  Name = ZINCvU00000005Jd.0
REMARK                            x       y       z     vdW  Elec       q    Type
REMARK                         _______ _______ _______ _____ _____    ______ ____
ROOT
ATOM      1  N   LIG    1        5.316  -1.471   1.118  0.00  0.00    -0.400 N 
ATOM      2  N   LIG    1        6.278  -0.960   1.995  0.00  0.00    -0.270 NA
ATOM      3  C   LIG    1        5.959   0.283   2.277  0.00  0.00    +0.140 A 
ATOM      4  C   LIG    1        4.771   0.604   1.581  0.00  0.00    -0.260 A 
ATOM      5  C   LIG    1        4.091   1.949   1.652  0.00  0.00    +0.400 C 
ATOM      6  N   LIG    1        3.044   2.063   0.647  0.00  0.00    -0.770 N 
ATOM      7  H   LIG    1        3.129   2.734  -0.049  0.00  0.00    +0.400 HD
ATOM      8  C   LIG    1        1.925   1.235   0.661  0.00  0.00    +0.170 A 
ATOM      9  C   LIG    1        0.673   1.771   0.938  0.00  0.00    +0.010 A 
ATOM     10  C   LIG    1       -0.433   0.944   1.003  0.00  0.00    +0.010 A 
ATOM     11  C   LIG    1       -0.303  -0.417   0.795  0.00  0.00    +0.010 A 
ATOM     12  C   LIG    1        0.938  -0.958   0.504  0.00  0.00    +0.010 A 
ATOM     13  C   LIG    1        2.044  -0.130   0.424  0.00  0.00    +0.130 A 
ATOM     14  N   LIG    1        3.293  -0.642   0.049  0.00  0.00    -0.680 N 
ATOM     15  H   LIG    1        3.388  -1.107  -0.797  0.00  0.00    +0.410 HD
ATOM     16  C   LIG    1        4.399  -0.490   0.878  0.00  0.00    +0.360 A 
ENDROOT
BRANCH   5  17
ATOM     17  C   LIG    1        3.483   2.121   3.021  0.00  0.00    -0.100 A 
ATOM     18  C   LIG    1        3.941   3.121   3.858  0.00  0.00    +0.060 A 
ATOM     19  C   LIG    1        3.381   3.284   5.111  0.00  0.00    -0.020 A 
ATOM     20  C   LIG    1        2.368   2.438   5.531  0.00  0.00    +0.100 A 
ATOM     21  C   LIG    1        1.915   1.433   4.694  0.00  0.00    -0.030 A 
ATOM     22  F   LIG    1        1.824   2.592   6.758  0.00  0.00    -0.140 F 
ATOM     23  C   LIG    1        2.473   1.276   3.439  0.00  0.00    +0.060 A 
ENDBRANCH   5  17
BRANCH   3  24
ATOM     24  C   LIG    1        6.715   1.193   3.173  0.00  0.00    -0.010 A 
ATOM     25  C   LIG    1        6.943   2.515   2.796  0.00  0.00    +0.020 A 
ATOM     26  C   LIG    1        7.643   3.358   3.635  0.00  0.00    +0.010 A 
ATOM     27  C   LIG    1        8.125   2.891   4.845  0.00  0.00    +0.010 A 
ATOM     28  C   LIG    1        7.906   1.578   5.222  0.00  0.00    +0.000 A 
ATOM     29  C   LIG    1        7.203   0.728   4.392  0.00  0.00    +0.030 A 
ENDBRANCH   3  24
BRANCH   1  30
ATOM     30  C   LIG    1        5.296  -2.824   0.555  0.00  0.00    +0.350 C 
BRANCH  30  31
ATOM     31  C   LIG    1        6.071  -2.838  -0.764  0.00  0.00    +0.190 C 
BRANCH  31  33
ATOM     32  N   LIG    1        6.036  -5.246  -1.766  0.00  0.00    -0.410 NA
ATOM     33  C   LIG    1        6.052  -4.197  -1.330  0.00  0.00    +0.200 C 
ENDBRANCH  31  33
ENDBRANCH  30  31
ENDBRANCH   1  30
TORSDOF 5
