REMARK  Name = ZINCrH000004uG92.0
REMARK                            x       y       z     vdW  Elec       q    Type
REMARK                         _______ _______ _______ _____ _____    ______ ____
ROOT
ATOM      1  C   LIG    1       -1.214   3.581   0.027  0.00  0.00    +0.020 C 
ATOM      2  N   LIG    1       -0.168   4.343   0.026  0.00  0.00    -0.180 NA
ATOM      3  N   LIG    1       -0.459   5.706   0.034  0.00  0.00    -0.450 N 
ATOM      4  C   LIG    1       -1.919   5.881   0.042  0.00  0.00    +0.260 C 
ATOM      5  C   LIG    1       -2.460   4.438   0.032  0.00  0.00    +0.120 C 
ENDROOT
BRANCH   4   6
ATOM      6  C   LIG    1       -2.371   6.623  -1.190  0.00  0.00    -0.100 A 
ATOM      7  C   LIG    1       -1.766   6.373  -2.407  0.00  0.00    +0.030 A 
ATOM      8  C   LIG    1       -2.183   7.051  -3.538  0.00  0.00    +0.000 A 
ATOM      9  C   LIG    1       -3.198   7.984  -3.449  0.00  0.00    +0.010 A 
ATOM     10  C   LIG    1       -3.799   8.239  -2.231  0.00  0.00    +0.010 A 
ATOM     11  C   LIG    1       -3.385   7.558  -1.101  0.00  0.00    +0.020 A 
ENDBRANCH   4   6
BRANCH   3  12
ATOM     12  C   LIG    1        0.482   6.737   0.035  0.00  0.00    +0.220 A 
ATOM     13  C   LIG    1        0.064   8.062   0.037  0.00  0.00    -0.040 A 
ATOM     14  C   LIG    1        0.998   9.079   0.044  0.00  0.00    +0.050 A 
ATOM     15  C   LIG    1        2.348   8.781   0.036  0.00  0.00    -0.040 A 
ATOM     16  C   LIG    1        2.768   7.463   0.028  0.00  0.00    +0.050 A 
ATOM     17  C   LIG    1        1.840   6.441   0.027  0.00  0.00    -0.030 A 
ENDBRANCH   3  12
BRANCH   1  19
ATOM     18  O   LIG    1       -2.240   1.496   0.021  0.00  0.00    -0.520 OA
ATOM     19  C   LIG    1       -1.194   2.119   0.019  0.00  0.00    +0.600 C 
ATOM     20  N   LIG    1       -0.018   1.461   0.010  0.00  0.00    -0.710 N 
ATOM     21  H   LIG    1        0.816   1.957   0.005  0.00  0.00    +0.410 HD
BRANCH  20  22
ATOM     22  C   LIG    1        0.002  -0.004   0.002  0.00  0.00    +0.340 C 
BRANCH  22  23
ATOM     23  C   LIG    1        1.429  -0.487  -0.014  0.00  0.00    -0.170 A 
ATOM     24  C   LIG    1        2.106  -0.718   1.174  0.00  0.00    +0.090 A 
ATOM     25  C   LIG    1        3.418  -1.163   1.110  0.00  0.00    -0.030 A 
ATOM     26  C   LIG    1        4.003  -1.359  -0.126  0.00  0.00    +0.270 A 
ATOM     27  N   LIG    1        3.330  -1.128  -1.236  0.00  0.00    -0.480 NA
ATOM     28  C   LIG    1        2.079  -0.710  -1.214  0.00  0.00    +0.280 A 
ENDBRANCH  22  23
ENDBRANCH  20  22
ENDBRANCH   1  19
TORSDOF 5
