REMARK  Name = ZINCpe00000gMLef.0
REMARK                            x       y       z     vdW  Elec       q    Type
REMARK                         _______ _______ _______ _____ _____    ______ ____
ROOT
ATOM      1  C   LIG    1        0.782   1.405  -0.012  0.00  0.00    +0.080 C 
ATOM      2  C   LIG    1       -0.242   1.326   1.123  0.00  0.00    +0.190 C 
ENDROOT
BRANCH   2   3
ATOM      3  C   LIG    1       -1.230   0.226   0.832  0.00  0.00    +0.520 C 
ATOM      4  N   LIG    1       -2.055   0.324  -0.230  0.00  0.00    -0.670 N 
ATOM      5  H   LIG    1       -2.054   1.129  -0.771  0.00  0.00    +0.420 HD
ATOM      6  O   LIG    1       -1.284  -0.747   1.553  0.00  0.00    -0.490 OA
BRANCH   4   7
ATOM      7  C   LIG    1       -2.908  -0.731  -0.549  0.00  0.00    +0.200 A 
ATOM      8  C   LIG    1       -3.368  -1.582   0.445  0.00  0.00    +0.030 A 
ATOM      9  C   LIG    1       -4.218  -2.623   0.127  0.00  0.00    +0.070 A 
ATOM     10  C   LIG    1       -4.607  -2.834  -1.185  0.00  0.00    +0.000 A 
ATOM     11  C   LIG    1       -4.155  -2.003  -2.188  0.00  0.00    +0.090 A 
ATOM     12  C   LIG    1       -3.300  -0.942  -1.880  0.00  0.00    -0.060 A 
BRANCH  12  13
ATOM     13  C   LIG    1       -2.827  -0.074  -2.917  0.00  0.00    +0.250 C 
ATOM     14  N   LIG    1       -2.452   0.614  -3.739  0.00  0.00    -0.410 NA
ENDBRANCH  12  13
ENDBRANCH   4   7
ENDBRANCH   2   3
BRANCH   2  15
ATOM     15  O   LIG    1        0.441   1.045   2.373  0.00  0.00    -0.320 OA
BRANCH  15  16
ATOM     16  C   LIG    1        0.854   2.100   3.092  0.00  0.00    +0.450 C 
ATOM     17  O   LIG    1        0.651   3.222   2.691  0.00  0.00    -0.480 OA
BRANCH  16  18
ATOM     18  C   LIG    1        1.571   1.886   4.401  0.00  0.00    +0.290 C 
ATOM     19  C   LIG    1        0.544   1.741   5.544  0.00  0.00    +0.060 C 
ATOM     20  C   LIG    1        1.221   2.498   6.717  0.00  0.00    +0.040 C 
ATOM     21  C   LIG    1        1.933   3.655   5.971  0.00  0.00    +0.280 C 
ATOM     22  N   LIG    1        2.409   3.054   4.708  0.00  0.00    -1.000 NA
BRANCH  22  23
ATOM     23  S   LIG    1        3.675   3.602   3.792  0.00  0.00    +2.620 S 
ATOM     24  O   LIG    1        3.719   4.997   4.054  0.00  0.00    -0.940 OA
ATOM     25  O   LIG    1        3.401   3.110   2.487  0.00  0.00    -0.940 OA
ATOM     26  C   LIG    1        5.131   2.776   4.491  0.00  0.00    -0.280 C 
ENDBRANCH  22  23
ENDBRANCH  16  18
ENDBRANCH  15  16
ENDBRANCH   2  15
TORSDOF 7
