REMARK  Name = ZINCqH0000002Zmy.0
REMARK                            x       y       z     vdW  Elec       q    Type
REMARK                         _______ _______ _______ _____ _____    ______ ____
ROOT
ATOM      1  N   LIG    1       -3.523   2.871   6.769  0.00  0.00    -0.590 N 
ATOM      2  C   LIG    1       -2.688   3.370   7.703  0.00  0.00    +0.600 C 
ATOM      3  O   LIG    1       -3.137   3.970   8.662  0.00  0.00    -0.520 OA
ENDROOT
BRANCH   2   4
ATOM      4  C   LIG    1       -1.240   3.191   7.562  0.00  0.00    -0.270 A 
ATOM      5  C   LIG    1       -0.308   3.532   8.494  0.00  0.00    +0.110 A 
ATOM      6  C   LIG    1        0.993   3.258   8.117  0.00  0.00    -0.120 A 
ATOM      7  C   LIG    1        1.103   2.700   6.890  0.00  0.00    -0.200 A 
ATOM      8  C   LIG    1        2.418   2.305   6.245  0.00  0.00    +0.110 C 
ATOM      9  C   LIG    1        3.561   3.000   6.989  0.00  0.00    +0.020 C 
ATOM     10  C   LIG    1        3.396   2.758   8.493  0.00  0.00    +0.020 C 
ATOM     11  C   LIG    1        2.196   3.557   9.003  0.00  0.00    +0.100 C 
ATOM     12  S   LIG    1       -0.430   2.494   6.169  0.00  0.00    +0.190 S 
ENDBRANCH   2   4
BRANCH   1  14
ATOM     13  C   LIG    1       -5.669   2.011   7.566  0.00  0.00    +0.020 C 
ATOM     14  C   LIG    1       -4.958   3.156   6.843  0.00  0.00    +0.280 C 
ENDBRANCH   1  14
BRANCH   1  15
ATOM     15  C   LIG    1       -2.995   2.044   5.682  0.00  0.00    +0.320 C 
BRANCH  15  16
ATOM     16  C   LIG    1       -2.506   2.933   4.567  0.00  0.00    +0.490 C 
ATOM     17  N   LIG    1       -1.975   2.388   3.454  0.00  0.00    -0.660 N 
ATOM     18  H   LIG    1       -1.982   1.425   3.335  0.00  0.00    +0.420 HD
ATOM     19  O   LIG    1       -2.591   4.138   4.670  0.00  0.00    -0.500 OA
BRANCH  17  20
ATOM     20  C   LIG    1       -1.412   3.211   2.470  0.00  0.00    +0.120 A 
ATOM     21  C   LIG    1       -0.935   4.470   2.806  0.00  0.00    +0.060 A 
ATOM     22  C   LIG    1       -0.386   5.283   1.833  0.00  0.00    +0.000 A 
ATOM     23  C   LIG    1       -0.305   4.843   0.525  0.00  0.00    +0.030 A 
ATOM     24  C   LIG    1       -0.773   3.587   0.183  0.00  0.00    -0.060 A 
ATOM     25  C   LIG    1       -1.325   2.767   1.153  0.00  0.00    +0.100 A 
BRANCH  25  26
ATOM     26  O   LIG    1       -1.787   1.532   0.819  0.00  0.00    -0.320 OA
ATOM     27  C   LIG    1       -1.670   1.145  -0.552  0.00  0.00    +0.250 C 
ENDBRANCH  25  26
ENDBRANCH  17  20
ENDBRANCH  15  16
ENDBRANCH   1  15
TORSDOF 6
