REMARK  Name = ZINCrD00000l2BhD.0
REMARK                            x       y       z     vdW  Elec       q    Type
REMARK                         _______ _______ _______ _____ _____    ______ ____
ROOT
ATOM      1  O   LIG    1        0.467   3.993  -1.202  0.00  0.00    -0.330 OA
ENDROOT
BRANCH   1   2
ATOM      2  C   LIG    1        0.349   5.329  -1.354  0.00  0.00    +0.550 C 
ATOM      3  O   LIG    1        0.743   6.078  -0.479  0.00  0.00    -0.470 OA
BRANCH   2   4
ATOM      4  C   LIG    1       -0.250   5.877  -2.570  0.00  0.00    -0.070 A 
ATOM      5  C   LIG    1       -0.433   7.222  -2.859  0.00  0.00    -0.020 A 
ATOM      6  C   LIG    1       -1.043   7.272  -4.134  0.00  0.00    -0.050 A 
ATOM      7  C   LIG    1       -1.199   5.999  -4.549  0.00  0.00    +0.240 A 
ATOM      8  O   LIG    1       -0.720   5.166  -3.616  0.00  0.00    -0.140 OA
BRANCH   5   9
ATOM      9  C   LIG    1       -0.063   8.375  -2.005  0.00  0.00    -0.040 A 
ATOM     10  C   LIG    1       -0.454   8.408  -0.666  0.00  0.00    +0.050 A 
ATOM     11  C   LIG    1       -0.101   9.481   0.126  0.00  0.00    +0.000 A 
ATOM     12  C   LIG    1        0.628  10.528  -0.408  0.00  0.00    +0.010 A 
ATOM     13  C   LIG    1        1.013  10.504  -1.736  0.00  0.00    +0.000 A 
ATOM     14  C   LIG    1        0.672   9.434  -2.537  0.00  0.00    +0.020 A 
ENDBRANCH   5   9
ENDBRANCH   2   4
ENDBRANCH   1   2
BRANCH   1  15
ATOM     15  C   LIG    1        1.062   3.528   0.011  0.00  0.00    +0.320 C 
BRANCH  15  21
ATOM     16  C   LIG    1       -0.207  -2.594  -0.011  0.00  0.00    +0.120 A 
ATOM     17  N   LIG    1        0.983  -2.104  -0.019  0.00  0.00    -0.230 NA
ATOM     18  N   LIG    1        1.156  -0.725  -0.013  0.00  0.00    -0.370 N 
ATOM     19  C   LIG    1        2.333  -0.035  -0.020  0.00  0.00    +0.540 A 
ATOM     20  C   LIG    1        2.317   1.360  -0.012  0.00  0.00    -0.080 A 
ATOM     21  C   LIG    1        1.108   2.022   0.002  0.00  0.00    +0.200 A 
ATOM     22  N   LIG    1       -0.016   1.315   0.009  0.00  0.00    -0.480 NA
ATOM     23  O   LIG    1        3.395  -0.637  -0.034  0.00  0.00    -0.490 OA
ATOM     24  C   LIG    1        0.002  -0.004   0.002  0.00  0.00    +0.310 A 
ATOM     25  S   LIG    1       -1.304  -1.202   0.007  0.00  0.00    +0.140 S 
BRANCH  16  27
ATOM     26  C   LIG    1        0.676  -4.911  -0.033  0.00  0.00    +0.070 C 
ATOM     27  C   LIG    1       -0.590  -4.051  -0.016  0.00  0.00    +0.180 C 
ENDBRANCH  16  27
ENDBRANCH  15  21
ENDBRANCH   1  15
TORSDOF 6
