REMARK  Name = ZINCpe00000xRrxf.1
REMARK                            x       y       z     vdW  Elec       q    Type
REMARK                         _______ _______ _______ _____ _____    ______ ____
ROOT
ATOM      1  C   LIG    1        1.753   0.777  -2.473  0.00  0.00    +0.540 C 
ATOM      2  N   LIG    1        2.175   0.797  -1.193  0.00  0.00    -0.590 N 
ATOM      3  C   LIG    1        3.582   0.841  -0.751  0.00  0.00    +0.270 C 
ATOM      4  C   LIG    1        3.568   0.238   0.676  0.00  0.00    +0.040 C 
ATOM      5  C   LIG    1        2.227   0.784   1.234  0.00  0.00    +0.300 C 
ATOM      6  C   LIG    1        1.313   0.779  -0.006  0.00  0.00    +0.070 C 
ATOM      7  C   LIG    1       -0.019   1.526   0.010  0.00  0.00    +0.050 C 
ATOM      8  C   LIG    1        0.002  -0.004   0.002  0.00  0.00    +0.050 C 
ATOM      9  O   LIG    1        0.566   0.741  -2.720  0.00  0.00    -0.520 OA
ENDROOT
BRANCH   5  10
ATOM     10  N   LIG    1        2.395   2.146   1.749  0.00  0.00    -0.710 N 
ATOM     11  H   LIG    1        2.284   2.905   1.156  0.00  0.00    +0.410 HD
ATOM     12  C   LIG    1        2.703   2.342   3.046  0.00  0.00    +0.510 C 
ATOM     13  O   LIG    1        2.841   1.392   3.787  0.00  0.00    -0.530 OA
BRANCH  12  14
ATOM     14  C   LIG    1        2.876   3.742   3.576  0.00  0.00    +0.320 C 
BRANCH  14  15
ATOM     15  N   LIG    1        3.205   3.688   5.002  0.00  0.00    -0.690 N 
ATOM     16  H   LIG    1        3.279   2.831   5.450  0.00  0.00    +0.420 HD
ATOM     17  C   LIG    1        3.406   4.828   5.691  0.00  0.00    +0.490 C 
ATOM     18  O   LIG    1        3.314   5.900   5.131  0.00  0.00    -0.470 OA
BRANCH  17  19
ATOM     19  C   LIG    1        3.745   4.772   7.159  0.00  0.00    +0.460 C 
ATOM     20  F   LIG    1        4.934   4.056   7.336  0.00  0.00    -0.160 F 
ATOM     21  F   LIG    1        2.710   4.136   7.852  0.00  0.00    -0.160 F 
ATOM     22  F   LIG    1        3.905   6.072   7.650  0.00  0.00    -0.150 F 
ENDBRANCH  17  19
ENDBRANCH  14  15
ENDBRANCH  12  14
ENDBRANCH   5  10
BRANCH   1  23
ATOM     23  C   LIG    1        2.756   0.799  -3.598  0.00  0.00    +0.040 C 
ATOM     24  C   LIG    1        3.598   2.074  -3.506  0.00  0.00    +0.060 C 
BRANCH  23  27
ATOM     25  C   LIG    1        2.450  -1.189  -6.597  0.00  0.00    +0.120 C 
ATOM     26  C   LIG    1        2.240  -0.209  -5.758  0.00  0.00    -0.190 C 
ATOM     27  C   LIG    1        2.031   0.770  -4.918  0.00  0.00    +0.050 C 
ENDBRANCH  23  27
ENDBRANCH   1  23
TORSDOF 6
