REMARK  Name = ZINCtV00000L6kmF.0
REMARK                            x       y       z     vdW  Elec       q    Type
REMARK                         _______ _______ _______ _____ _____    ______ ____
ROOT
ATOM      1  C   LIG    1       -4.861   2.312   0.034  0.00  0.00    -0.190 A 
ATOM      2  C   LIG    1       -3.580   2.799   0.035  0.00  0.00    +0.050 A 
ATOM      3  S   LIG    1       -3.573   4.503   0.043  0.00  0.00    +0.340 S 
ATOM      4  C   LIG    1       -5.325   4.593   0.053  0.00  0.00    -0.080 A 
ATOM      5  C   LIG    1       -5.864   3.366   0.050  0.00  0.00    +0.020 A 
ENDROOT
BRANCH   5   6
ATOM      6  C   LIG    1       -7.319   3.111   0.055  0.00  0.00    -0.140 A 
ATOM      7  C   LIG    1       -8.203   3.666   0.909  0.00  0.00    +0.030 A 
ATOM      8  C   LIG    1       -9.514   3.276   0.715  0.00  0.00    +0.010 A 
ATOM      9  C   LIG    1       -9.704   2.404  -0.278  0.00  0.00    -0.040 A 
ATOM     10  S   LIG    1       -8.165   2.032  -1.046  0.00  0.00    +0.130 S 
ENDBRANCH   5   6
BRANCH   2  11
ATOM     11  N   LIG    1       -2.442   2.011   0.026  0.00  0.00    -0.630 N 
ATOM     12  H   LIG    1       -2.522   1.044   0.021  0.00  0.00    +0.410 HD
ATOM     13  C   LIG    1       -1.224   2.587   0.022  0.00  0.00    +0.590 C 
ATOM     14  O   LIG    1       -1.124   3.800   0.028  0.00  0.00    -0.480 OA
BRANCH  13  15
ATOM     15  C   LIG    1       -0.022   1.754   0.012  0.00  0.00    -0.280 A 
ATOM     16  C   LIG    1        1.276   2.221   0.002  0.00  0.00    +0.050 A 
ATOM     17  C   LIG    1        2.214   1.201  -0.013  0.00  0.00    +0.010 A 
ATOM     18  C   LIG    1        1.707  -0.033  -0.014  0.00  0.00    -0.030 A 
ATOM     19  S   LIG    1        0.002  -0.004   0.002  0.00  0.00    +0.210 S 
BRANCH  16  20
ATOM     20  C   LIG    1        1.629   3.659   0.006  0.00  0.00    -0.050 A 
ATOM     21  C   LIG    1        1.039   4.528  -0.911  0.00  0.00    +0.070 A 
ATOM     22  C   LIG    1        1.367   5.868  -0.898  0.00  0.00    +0.000 A 
ATOM     23  C   LIG    1        2.289   6.348   0.015  0.00  0.00    +0.010 A 
ATOM     24  C   LIG    1        2.883   5.490   0.923  0.00  0.00    -0.010 A 
ATOM     25  C   LIG    1        2.558   4.149   0.924  0.00  0.00    +0.030 A 
ENDBRANCH  16  20
ENDBRANCH  13  15
ENDBRANCH   2  11
BRANCH   1  26
ATOM     26  C   LIG    1       -5.185   0.887   0.022  0.00  0.00    +0.530 C 
ATOM     27  O   LIG    1       -5.318   0.285   1.071  0.00  0.00    -0.480 OA
BRANCH  26  28
ATOM     28  O   LIG    1       -5.337   0.239  -1.151  0.00  0.00    -0.340 OA
BRANCH  28  30
ATOM     29  C   LIG    1       -5.786  -1.711  -2.506  0.00  0.00    +0.070 C 
ATOM     30  C   LIG    1       -5.654  -1.153  -1.088  0.00  0.00    +0.200 C 
ENDBRANCH  28  30
ENDBRANCH  26  28
ENDBRANCH   1  26
TORSDOF 7
