REMARK  Name = ZINCrg000000rvdj.0
REMARK                            x       y       z     vdW  Elec       q    Type
REMARK                         _______ _______ _______ _____ _____    ______ ____
ROOT
ATOM      1  N   LIG    1        5.673  -2.067   2.067  0.00  0.00    -0.720 N 
ATOM      2  H   LIG    1        5.601  -1.322   1.451  0.00  0.00    +0.400 HD
ATOM      3  C   LIG    1        4.580  -2.514   2.717  0.00  0.00    +0.530 C 
ATOM      4  O   LIG    1        4.671  -3.446   3.488  0.00  0.00    -0.530 OA
ENDROOT
BRANCH   3   5
ATOM      5  C   LIG    1        3.244  -1.855   2.485  0.00  0.00    +0.000 C 
ATOM      6  C   LIG    1        2.742  -2.115   1.046  0.00  0.00    +0.090 C 
ATOM      7  C   LIG    1        1.247  -2.294   1.201  0.00  0.00    +0.530 C 
ATOM      8  N   LIG    1        0.939  -2.513   2.490  0.00  0.00    -0.580 N 
ATOM      9  O   LIG    1        0.444  -2.244   0.293  0.00  0.00    -0.510 OA
ATOM     10  C   LIG    1        2.142  -2.530   3.331  0.00  0.00    +0.310 C 
BRANCH   8  11
ATOM     11  C   LIG    1       -0.362  -2.708   2.969  0.00  0.00    +0.170 A 
ATOM     12  C   LIG    1       -1.119  -1.621   3.388  0.00  0.00    +0.030 A 
ATOM     13  C   LIG    1       -2.402  -1.816   3.860  0.00  0.00    +0.040 A 
ATOM     14  C   LIG    1       -2.934  -3.091   3.917  0.00  0.00    +0.030 A 
ATOM     15  C   LIG    1       -2.185  -4.175   3.495  0.00  0.00    +0.050 A 
ATOM     16  C   LIG    1       -0.899  -3.988   3.027  0.00  0.00    -0.090 A 
ATOM     17 BR   LIG    1        0.127  -5.471   2.458  0.00  0.00    -0.040 Br
ENDBRANCH   8  11
ENDBRANCH   3   5
BRANCH   1  18
ATOM     18  C   LIG    1        6.972  -2.708   2.293  0.00  0.00    +0.270 C 
BRANCH  18  20
ATOM     19  C   LIG    1        7.600  -2.021  -0.026  0.00  0.00    +0.060 C 
ATOM     20  C   LIG    1        8.037  -2.015   1.440  0.00  0.00    +0.130 C 
BRANCH  20  21
ATOM     21  O   LIG    1        8.198  -0.666   1.884  0.00  0.00    -0.560 OA
ATOM     22  H   LIG    1        8.194  -0.565   2.845  0.00  0.00    +0.380 HD
ENDBRANCH  20  21
BRANCH  20  23
ATOM     23  C   LIG    1        9.366  -2.760   1.579  0.00  0.00    +0.170 C 
BRANCH  23  24
ATOM     24  N   LIG    1        9.691  -2.919   3.003  0.00  0.00    -0.540 NA
ATOM     25  C   LIG    1       10.440  -1.758   3.505  0.00  0.00    +0.150 C 
ATOM     26  C   LIG    1       10.706  -1.938   5.002  0.00  0.00    +0.220 C 
ATOM     27  O   LIG    1       11.407  -3.167   5.213  0.00  0.00    -0.380 OA
ATOM     28  C   LIG    1       10.705  -4.318   4.736  0.00  0.00    +0.220 C 
ATOM     29  C   LIG    1       10.440  -4.163   3.236  0.00  0.00    +0.160 C 
ENDBRANCH  23  24
ENDBRANCH  20  23
ENDBRANCH  18  20
ENDBRANCH   1  18
TORSDOF 7
