REMARK  Name = ZINCqH0000036t0b.0
REMARK                            x       y       z     vdW  Elec       q    Type
REMARK                         _______ _______ _______ _____ _____    ______ ____
ROOT
ATOM      1  N   LIG    1       -1.942  -0.418   1.344  0.00  0.00    -0.740 N 
ATOM      2  H   LIG    1       -1.487  -0.740   0.550  0.00  0.00    +0.400 HD
ATOM      3  C   LIG    1       -1.613   0.779   1.870  0.00  0.00    +0.710 C 
ATOM      4  N   LIG    1       -0.725   1.573   1.237  0.00  0.00    -0.620 N 
ATOM      5  C   LIG    1       -0.440   2.885   1.739  0.00  0.00    +0.270 C 
ATOM      6  C   LIG    1       -1.020   4.081   0.947  0.00  0.00    +0.000 C 
ATOM      7  C   LIG    1       -1.714   3.607  -0.348  0.00  0.00    +0.010 C 
ATOM      8  C   LIG    1       -0.732   3.080  -1.354  0.00  0.00    -0.040 C 
ATOM      9  C   LIG    1       -0.731   1.569  -1.163  0.00  0.00    -0.010 C 
ATOM     10  C   LIG    1       -1.199   3.425  -2.772  0.00  0.00    +0.010 C 
ATOM     11  C   LIG    1       -0.218   2.878  -3.807  0.00  0.00    +0.000 C 
ATOM     12  C   LIG    1        1.173   3.466  -3.561  0.00  0.00    +0.000 C 
ATOM     13  C   LIG    1        1.641   3.078  -2.156  0.00  0.00    +0.000 C 
ATOM     14  C   LIG    1        0.666   3.650  -1.125  0.00  0.00    +0.020 C 
ATOM     15  C   LIG    1       -0.009   1.088   0.011  0.00  0.00    +0.270 C 
ATOM     16  O   LIG    1       -2.118   1.143   2.915  0.00  0.00    -0.590 OA
ENDROOT
BRANCH   1  17
ATOM     17  C   LIG    1       -2.986  -1.232   1.971  0.00  0.00    +0.330 C 
BRANCH  17  21
ATOM     18  C   LIG    1       -3.478  -4.860  -0.230  0.00  0.00    -0.650 A 
ATOM     19  C   LIG    1       -2.573  -4.802   0.813  0.00  0.00    +0.130 A 
ATOM     20  C   LIG    1       -2.414  -3.628   1.526  0.00  0.00    +0.020 A 
ATOM     21  C   LIG    1       -3.159  -2.512   1.194  0.00  0.00    -0.060 A 
ATOM     22  C   LIG    1       -4.068  -2.571   0.154  0.00  0.00    +0.020 A 
ATOM     23  C   LIG    1       -4.224  -3.744  -0.561  0.00  0.00    +0.120 A 
BRANCH  18  25
ATOM     24  C   LIG    1       -4.990  -7.248  -0.252  0.00  0.00    -0.260 C 
ATOM     25  S   LIG    1       -3.682  -6.356  -1.137  0.00  0.00    +2.500 S 
ATOM     26  O   LIG    1       -2.437  -7.026  -0.993  0.00  0.00    -0.940 OA
ATOM     27  O   LIG    1       -4.142  -5.933  -2.413  0.00  0.00    -0.940 OA
ENDBRANCH  18  25
ENDBRANCH  17  21
ENDBRANCH   1  17
TORSDOF 3
