REMARK  Name = ZINCrD000000Crlj.0
REMARK                            x       y       z     vdW  Elec       q    Type
REMARK                         _______ _______ _______ _____ _____    ______ ____
ROOT
ATOM      1  O   LIG    1       -5.832   4.810   4.362  0.00  0.00    -0.490 OA
ATOM      2  C   LIG    1       -5.272   3.740   4.488  0.00  0.00    +0.520 C 
ENDROOT
BRANCH   2   3
ATOM      3  C   LIG    1       -4.562   3.139   3.341  0.00  0.00    -0.110 A 
ATOM      4  C   LIG    1       -4.532   3.798   2.110  0.00  0.00    +0.090 A 
ATOM      5  C   LIG    1       -3.867   3.231   1.043  0.00  0.00    +0.050 A 
ATOM      6  C   LIG    1       -3.229   2.011   1.190  0.00  0.00    -0.080 A 
ATOM      7  C   LIG    1       -3.259   1.350   2.406  0.00  0.00    +0.020 A 
ATOM      8  C   LIG    1       -3.916   1.909   3.482  0.00  0.00    +0.080 A 
BRANCH   6   9
ATOM      9  C   LIG    1       -2.505   1.398   0.020  0.00  0.00    +0.390 C 
BRANCH   9  10
ATOM     10  N   LIG    1       -1.111   1.850   0.017  0.00  0.00    -0.380 N 
ATOM     11  C   LIG    1       -0.013   1.076   0.008  0.00  0.00    +0.480 A 
ATOM     12  N   LIG    1        1.036   1.858   0.002  0.00  0.00    -0.540 NA
ATOM     13  C   LIG    1        0.648   3.133   0.013  0.00  0.00    +0.420 A 
ATOM     14  N   LIG    1       -0.658   3.180   0.025  0.00  0.00    -0.310 NA
ENDBRANCH   9  10
ENDBRANCH   6   9
ENDBRANCH   2   3
BRANCH   2  15
ATOM     15  O   LIG    1       -5.298   3.102   5.674  0.00  0.00    -0.350 OA
BRANCH  15  16
ATOM     16  C   LIG    1       -6.015   3.751   6.756  0.00  0.00    +0.400 C 
BRANCH  16  17
ATOM     17  C   LIG    1       -5.936   2.897   7.995  0.00  0.00    +0.180 A 
ATOM     18  N   LIG    1       -5.004   2.964   8.903  0.00  0.00    -0.450 NA
ATOM     19  C   LIG    1       -5.261   2.058   9.858  0.00  0.00    +0.170 A 
ATOM     20  C   LIG    1       -6.399   1.405   9.507  0.00  0.00    +0.020 A 
ATOM     21  O   LIG    1       -6.811   1.941   8.337  0.00  0.00    -0.190 OA
BRANCH  20  22
ATOM     22  C   LIG    1       -7.059   0.318  10.260  0.00  0.00    -0.020 A 
ATOM     23  C   LIG    1       -6.510  -0.138  11.459  0.00  0.00    +0.040 A 
ATOM     24  C   LIG    1       -7.135  -1.149  12.160  0.00  0.00    +0.020 A 
ATOM     25  C   LIG    1       -8.297  -1.718  11.671  0.00  0.00    +0.020 A 
ATOM     26  C   LIG    1       -8.843  -1.274  10.479  0.00  0.00    +0.010 A 
ATOM     27  C   LIG    1       -8.232  -0.260   9.772  0.00  0.00    +0.030 A 
ENDBRANCH  20  22
ENDBRANCH  16  17
ENDBRANCH  15  16
ENDBRANCH   2  15
TORSDOF 7
