REMARK  Name = ZINCrD00000lcRLJ.0
REMARK                            x       y       z     vdW  Elec       q    Type
REMARK                         _______ _______ _______ _____ _____    ______ ____
ROOT
ATOM      1  C   LIG    1       -5.913   5.546  -1.314  0.00  0.00    +0.510 C 
ATOM      2  O   LIG    1       -6.741   5.660  -0.432  0.00  0.00    -0.500 OA
ENDROOT
BRANCH   1   3
ATOM      3  C   LIG    1       -6.031   6.353  -2.546  0.00  0.00    -0.120 A 
ATOM      4  C   LIG    1       -5.078   6.229  -3.559  0.00  0.00    +0.080 A 
ATOM      5  C   LIG    1       -5.197   6.981  -4.710  0.00  0.00    +0.030 A 
ATOM      6  C   LIG    1       -6.252   7.864  -4.856  0.00  0.00    -0.070 A 
ATOM      7  C   LIG    1       -7.196   7.996  -3.854  0.00  0.00    +0.030 A 
ATOM      8  C   LIG    1       -7.093   7.246  -2.701  0.00  0.00    +0.090 A 
BRANCH   6   9
ATOM      9  C   LIG    1       -6.372   8.687  -6.113  0.00  0.00    +0.330 C 
BRANCH   9  10
ATOM     10  N   LIG    1       -5.654   9.952  -5.939  0.00  0.00    -0.740 N 
ATOM     11  H   LIG    1       -5.200  10.141  -5.103  0.00  0.00    +0.400 HD
ATOM     12  C   LIG    1       -5.625  10.854  -6.941  0.00  0.00    +0.710 C 
ATOM     13  O   LIG    1       -6.194  10.617  -7.989  0.00  0.00    -0.590 OA
ATOM     14  N   LIG    1       -4.965  12.018  -6.780  0.00  0.00    -0.870 N 
ATOM     15  H   LIG    1       -4.944  12.666  -7.501  0.00  0.00    +0.420 HD
ATOM     16  H   LIG    1       -4.511  12.207  -5.944  0.00  0.00    +0.400 HD
ENDBRANCH   9  10
ENDBRANCH   6   9
ENDBRANCH   1   3
BRANCH   1  17
ATOM     17  O   LIG    1       -4.887   4.685  -1.168  0.00  0.00    -0.350 OA
BRANCH  17  18
ATOM     18  C   LIG    1       -4.835   3.926   0.069  0.00  0.00    +0.260 C 
BRANCH  18  19
ATOM     19  C   LIG    1       -3.611   3.009   0.053  0.00  0.00    +0.230 C 
BRANCH  19  20
ATOM     20  O   LIG    1       -2.422   3.802   0.045  0.00  0.00    -0.310 OA
BRANCH  20  24
ATOM     21  C   LIG    1        1.176   1.783   0.000  0.00  0.00    -0.110 A 
ATOM     22  C   LIG    1       -0.013   1.076   0.008  0.00  0.00    +0.050 A 
ATOM     23  C   LIG    1       -1.218   1.750   0.017  0.00  0.00    -0.080 A 
ATOM     24  C   LIG    1       -1.237   3.137   0.031  0.00  0.00    +0.120 A 
ATOM     25  C   LIG    1       -0.043   3.844   0.023  0.00  0.00    -0.020 A 
ATOM     26  C   LIG    1        1.160   3.165   0.007  0.00  0.00    +0.050 A 
BRANCH  21  28
ATOM     27  C   LIG    1        2.570   0.173  -1.271  0.00  0.00    +0.040 C 
ATOM     28  C   LIG    1        2.490   1.045  -0.016  0.00  0.00    -0.030 C 
ATOM     29  C   LIG    1        2.593   0.160   1.228  0.00  0.00    +0.040 C 
ATOM     30  C   LIG    1        3.640   2.054  -0.022  0.00  0.00    +0.030 C 
ENDBRANCH  21  28
ENDBRANCH  20  24
ENDBRANCH  19  20
ENDBRANCH  18  19
ENDBRANCH  17  18
ENDBRANCH   1  17
TORSDOF 9
