REMARK  Name = ZINCqH0000002IJp.0
REMARK                            x       y       z     vdW  Elec       q    Type
REMARK                         _______ _______ _______ _____ _____    ______ ____
ROOT
ATOM      1  C   LIG    1       -0.014   1.212   0.009  0.00  0.00    +0.580 C 
ATOM      2  N   LIG    1       -1.191   1.870   0.018  0.00  0.00    -0.730 N 
ATOM      3  H   LIG    1       -1.204   2.840   0.023  0.00  0.00    +0.400 HD
ATOM      4  O   LIG    1        0.002  -0.004   0.002  0.00  0.00    -0.500 OA
ENDROOT
BRANCH   1  11
ATOM      5  C   LIG    1        2.485   1.294  -0.015  0.00  0.00    +0.390 A 
ATOM      6  N   LIG    1        3.618   1.975  -0.022  0.00  0.00    -0.550 NA
ATOM      7  C   LIG    1        3.637   3.294  -0.015  0.00  0.00    +0.200 A 
ATOM      8  C   LIG    1        2.464   4.027  -0.000  0.00  0.00    -0.070 A 
ATOM      9  C   LIG    1        1.249   3.366   0.002  0.00  0.00    +0.140 A 
ATOM     10  C   LIG    1        4.960   4.015  -0.024  0.00  0.00    +0.140 C 
ATOM     11  C   LIG    1        1.253   1.967   0.001  0.00  0.00    -0.220 A 
BRANCH   5  12
ATOM     12  O   LIG    1        2.512  -0.059  -0.022  0.00  0.00    -0.270 OA
BRANCH  12  13
ATOM     13  C   LIG    1        3.799  -0.682  -0.037  0.00  0.00    +0.200 C 
BRANCH  13  15
ATOM     14  C   LIG    1        5.006  -2.869  -0.060  0.00  0.00    +0.030 C 
ATOM     15  C   LIG    1        3.629  -2.203  -0.044  0.00  0.00    +0.020 C 
ENDBRANCH  13  15
ENDBRANCH  12  13
ENDBRANCH   5  12
ENDBRANCH   1  11
BRANCH   2  16
ATOM     16  C   LIG    1       -2.449   1.120   0.020  0.00  0.00    +0.390 C 
ATOM     17  C   LIG    1       -2.830   0.759  -1.417  0.00  0.00    +0.080 C 
BRANCH  16  18
ATOM     18  C   LIG    1       -3.537   1.966   0.630  0.00  0.00    +0.170 A 
ATOM     19  N   LIG    1       -4.425   1.578   1.513  0.00  0.00    -0.460 NA
ATOM     20  C   LIG    1       -5.184   2.660   1.763  0.00  0.00    +0.180 A 
ATOM     21  N   LIG    1       -4.727   3.633   1.033  0.00  0.00    -0.370 NA
ATOM     22  O   LIG    1       -3.777   3.256   0.379  0.00  0.00    +0.080 OA
BRANCH  20  23
ATOM     23  C   LIG    1       -6.349   2.732   2.716  0.00  0.00    +0.100 C 
ATOM     24  C   LIG    1       -7.617   3.192   1.967  0.00  0.00    +0.020 C 
ATOM     25  C   LIG    1       -8.351   4.099   2.985  0.00  0.00    +0.020 C 
ATOM     26  C   LIG    1       -7.187   4.847   3.680  0.00  0.00    +0.020 C 
ATOM     27  C   LIG    1       -6.076   3.784   3.805  0.00  0.00    +0.040 C 
ENDBRANCH  20  23
ENDBRANCH  16  18
ENDBRANCH   2  16
TORSDOF 7
