REMARK  Name = ZINCvU00000008fU.0
REMARK                            x       y       z     vdW  Elec       q    Type
REMARK                         _______ _______ _______ _____ _____    ______ ____
ROOT
ATOM      1  C   LIG    1        1.065   1.881   0.002  0.00  0.00    +0.180 A 
ATOM      2  C   LIG    1       -0.013   1.076   0.008  0.00  0.00    -0.140 A 
ATOM      3  S   LIG    1       -1.452   2.091   0.019  0.00  0.00    +0.240 S 
ATOM      4  C   LIG    1       -0.478   3.496   0.025  0.00  0.00    +0.240 A 
ATOM      5  N   LIG    1        0.776   3.176   0.011  0.00  0.00    -0.510 NA
ENDROOT
BRANCH   1   9
ATOM      6  C   LIG    1        5.049  -1.271  -0.053  0.00  0.00    +0.130 C 
ATOM      7  C   LIG    1        4.197  -0.028  -0.038  0.00  0.00    +0.020 A 
ATOM      8  C   LIG    1        2.851   0.003  -0.026  0.00  0.00    -0.030 A 
ATOM      9  C   LIG    1        2.458   1.366  -0.014  0.00  0.00    -0.100 A 
ATOM     10  C   LIG    1        3.595   2.111  -0.026  0.00  0.00    +0.070 A 
ATOM     11  C   LIG    1        3.666   3.617  -0.027  0.00  0.00    +0.150 C 
ATOM     12  N   LIG    1        4.660   1.257  -0.035  0.00  0.00    -0.400 N 
BRANCH  12  13
ATOM     13  C   LIG    1        6.010   1.637  -0.046  0.00  0.00    +0.110 A 
ATOM     14  C   LIG    1        6.551   2.314   1.039  0.00  0.00    +0.060 A 
ATOM     15  C   LIG    1        7.881   2.683   1.028  0.00  0.00    +0.010 A 
ATOM     16  C   LIG    1        8.674   2.388  -0.069  0.00  0.00    +0.110 A 
ATOM     17  C   LIG    1        8.135   1.718  -1.155  0.00  0.00    +0.010 A 
ATOM     18  F   LIG    1        9.974   2.755  -0.080  0.00  0.00    -0.130 F 
ATOM     19  C   LIG    1        6.806   1.343  -1.145  0.00  0.00    +0.060 A 
ENDBRANCH  12  13
ENDBRANCH   1   9
BRANCH   4  20
ATOM     20  N   LIG    1       -0.964   4.798   0.035  0.00  0.00    -0.630 N 
ATOM     21  H   LIG    1       -0.347   5.546   0.033  0.00  0.00    +0.420 HD
ATOM     22  C   LIG    1       -2.293   5.021   0.049  0.00  0.00    +0.510 C 
ATOM     23  O   LIG    1       -3.065   4.085   0.052  0.00  0.00    -0.480 OA
BRANCH  22  24
ATOM     24  C   LIG    1       -2.821   6.433   0.060  0.00  0.00    +0.200 C 
BRANCH  24  25
ATOM     25  C   LIG    1       -4.327   6.406   0.074  0.00  0.00    +0.050 A 
ATOM     26  C   LIG    1       -5.115   7.008   0.980  0.00  0.00    +0.160 A 
ATOM     27  N   LIG    1       -6.434   6.740   0.629  0.00  0.00    -0.420 N 
ATOM     28  C   LIG    1       -7.705   7.021   1.078  0.00  0.00    +0.220 A 
ATOM     29  C   LIG    1       -8.736   6.534   0.411  0.00  0.00    +0.010 A 
ATOM     30  S   LIG    1       -8.042   5.615  -0.936  0.00  0.00    +0.160 S 
ATOM     31  C   LIG    1       -6.366   5.966  -0.488  0.00  0.00    +0.160 A 
ATOM     32  N   LIG    1       -5.109   5.772  -0.812  0.00  0.00    -0.420 NA
ENDBRANCH  24  25
ENDBRANCH  22  24
ENDBRANCH   4  20
TORSDOF 5
