REMARK  Name = ZINCqH0000007Nqn.0
REMARK                            x       y       z     vdW  Elec       q    Type
REMARK                         _______ _______ _______ _____ _____    ______ ____
ROOT
ATOM      1  C   LIG    1        3.696  -0.699  -0.036  0.00  0.00    +0.220 A 
ATOM      2  N   LIG    1        4.888  -0.157  -0.051  0.00  0.00    -0.350 NA
ATOM      3  O   LIG    1        5.742  -1.018  -0.057  0.00  0.00    +0.090 OA
ATOM      4  C   LIG    1        5.169  -2.232  -0.058  0.00  0.00    +0.230 A 
ATOM      5  N   LIG    1        3.862  -2.038  -0.045  0.00  0.00    -0.470 NA
ENDROOT
BRANCH   1  11
ATOM      6  C   LIG    1        2.380   1.424  -0.013  0.00  0.00    +0.160 A 
ATOM      7  C   LIG    1        1.167   2.093   0.002  0.00  0.00    -0.070 A 
ATOM      8  C   LIG    1       -0.017   1.379   0.010  0.00  0.00    +0.070 A 
ATOM      9  C   LIG    1        0.002  -0.004   0.002  0.00  0.00    -0.030 A 
ATOM     10  C   LIG    1        1.204  -0.683  -0.013  0.00  0.00    +0.100 A 
ATOM     11  C   LIG    1        2.402   0.026  -0.021  0.00  0.00    -0.060 A 
BRANCH   6  13
ATOM     12  C   LIG    1        3.444   3.550  -0.012  0.00  0.00    +0.240 C 
ATOM     13  O   LIG    1        3.544   2.124  -0.021  0.00  0.00    -0.300 OA
ENDBRANCH   6  13
ENDBRANCH   1  11
BRANCH   4  14
ATOM     14  C   LIG    1        5.865  -3.533  -0.070  0.00  0.00    -0.030 A 
ATOM     15  C   LIG    1        5.132  -4.721  -0.069  0.00  0.00    +0.080 A 
ATOM     16  C   LIG    1        5.788  -5.934  -0.081  0.00  0.00    +0.020 A 
ATOM     17  C   LIG    1        7.172  -5.980  -0.094  0.00  0.00    +0.060 A 
ATOM     18  C   LIG    1        7.910  -4.813  -0.096  0.00  0.00    +0.030 A 
ATOM     19  C   LIG    1        7.266  -3.583  -0.090  0.00  0.00    +0.180 A 
BRANCH  19  20
ATOM     20  N   LIG    1        8.010  -2.403  -0.097  0.00  0.00    -0.580 N 
ATOM     21  C   LIG    1        8.385  -1.836   1.067  0.00  0.00    +0.550 C 
ATOM     22  O   LIG    1        8.076  -2.352   2.120  0.00  0.00    -0.520 OA
ATOM     23  C   LIG    1        8.383  -1.781  -1.369  0.00  0.00    +0.310 C 
BRANCH  21  24
ATOM     24  C   LIG    1        9.188  -0.561   1.059  0.00  0.00    -0.060 C 
ATOM     25  C   LIG    1       10.641  -0.639   1.531  0.00  0.00    +0.060 C 
ATOM     26  C   LIG    1        9.585   0.032   2.412  0.00  0.00    +0.070 C 
ENDBRANCH  21  24
ENDBRANCH  19  20
ENDBRANCH   4  14
TORSDOF 5
