REMARK  Name = ZINCpe000000VLyb.0
REMARK                            x       y       z     vdW  Elec       q    Type
REMARK                         _______ _______ _______ _____ _____    ______ ____
ROOT
ATOM      1  C   LIG    1       -3.535  -2.713  -1.141  0.00  0.00    -0.160 A 
ATOM      2  C   LIG    1       -3.190  -3.624  -2.118  0.00  0.00    +0.490 A 
ATOM      3  N   LIG    1       -3.985  -3.746  -3.234  0.00  0.00    -0.540 N 
ATOM      4  C   LIG    1       -5.087  -2.986  -3.371  0.00  0.00    +0.710 A 
ATOM      5  N   LIG    1       -5.439  -2.093  -2.429  0.00  0.00    -0.660 N 
ATOM      6  H   LIG    1       -6.238  -1.556  -2.552  0.00  0.00    +0.430 HD
ATOM      7  O   LIG    1       -5.776  -3.108  -4.365  0.00  0.00    -0.530 OA
ATOM      8  C   LIG    1       -4.698  -1.938  -1.315  0.00  0.00    +0.560 A 
ATOM      9  O   LIG    1       -5.029  -1.129  -0.464  0.00  0.00    -0.500 OA
ENDROOT
BRANCH   1  10
ATOM     10  N   LIG    1       -2.740  -2.564   0.015  0.00  0.00    -0.520 N 
ATOM     11  C   LIG    1       -3.229  -2.922   1.221  0.00  0.00    +0.560 C 
ATOM     12  O   LIG    1       -2.587  -2.699   2.226  0.00  0.00    -0.520 OA
BRANCH  11  13
ATOM     13  C   LIG    1       -4.573  -3.597   1.319  0.00  0.00    -0.080 C 
ATOM     14  C   LIG    1       -5.742  -2.770   1.856  0.00  0.00    +0.070 C 
ATOM     15  C   LIG    1       -5.124  -3.873   2.719  0.00  0.00    -0.020 C 
ATOM     16  C   LIG    1       -4.270  -3.441   3.913  0.00  0.00    +0.070 C 
ENDBRANCH  11  13
BRANCH  10  17
ATOM     17  C   LIG    1       -1.383  -2.022  -0.094  0.00  0.00    +0.270 C 
BRANCH  17  18
ATOM     18  C   LIG    1       -1.442  -0.494  -0.067  0.00  0.00    +0.020 C 
BRANCH  18  19
ATOM     19  C   LIG    1       -0.025   0.073  -0.180  0.00  0.00    +0.160 C 
BRANCH  19  21
ATOM     20  C   LIG    1        1.199   2.132  -0.255  0.00  0.00    +0.200 C 
ATOM     21  O   LIG    1       -0.079   1.500  -0.155  0.00  0.00    -0.390 OA
ENDBRANCH  19  21
ENDBRANCH  18  19
ENDBRANCH  17  18
ENDBRANCH  10  17
ENDBRANCH   1  10
BRANCH   2  22
ATOM     22  N   LIG    1       -2.065  -4.401  -1.978  0.00  0.00    -0.830 N 
ATOM     23  H   LIG    1       -1.863  -5.085  -2.635  0.00  0.00    +0.410 HD
ATOM     24  H   LIG    1       -1.473  -4.265  -1.222  0.00  0.00    +0.420 HD
ENDBRANCH   2  22
BRANCH   3  25
ATOM     25  C   LIG    1       -3.630  -4.709  -4.279  0.00  0.00    +0.310 C 
BRANCH  25  26
ATOM     26  C   LIG    1       -4.288  -6.057  -3.975  0.00  0.00    -0.030 C 
ATOM     27  C   LIG    1       -3.704  -6.629  -2.682  0.00  0.00    +0.030 C 
ATOM     28  C   LIG    1       -4.021  -7.026  -5.129  0.00  0.00    +0.040 C 
ENDBRANCH  25  26
ENDBRANCH   3  25
TORSDOF 9
