REMARK  Name = ZINCqH0000009Br1.0
REMARK                            x       y       z     vdW  Elec       q    Type
REMARK                         _______ _______ _______ _____ _____    ______ ____
ROOT
ATOM      1  C   LIG    1       -1.168  -2.286  -0.535  0.00  0.00    -0.330 A 
ATOM      2  C   LIG    1       -2.355  -2.960  -0.641  0.00  0.00    +0.340 A 
ATOM      3  N   LIG    1       -3.396  -2.185  -0.789  0.00  0.00    -0.480 NA
ATOM      4  C   LIG    1       -3.184  -0.898  -0.816  0.00  0.00    +0.090 A 
ATOM      5  S   LIG    1       -1.518  -0.562  -0.635  0.00  0.00    +0.220 S 
ENDROOT
BRANCH   1  16
ATOM      6  C   LIG    1        0.344  -0.376   1.387  0.00  0.00    +0.050 C 
ATOM      7  C   LIG    1        1.173  -0.665   0.134  0.00  0.00    +0.220 C 
ATOM      8  C   LIG    1        2.635  -0.239   0.351  0.00  0.00    +0.130 C 
ATOM      9  C   LIG    1        3.428  -1.516   0.200  0.00  0.00    -0.190 A 
ATOM     10  C   LIG    1        4.778  -1.776   0.284  0.00  0.00    +0.300 A 
ATOM     11  N   LIG    1        5.241  -3.000   0.111  0.00  0.00    -0.490 NA
ATOM     12  C   LIG    1        4.438  -4.014  -0.148  0.00  0.00    +0.280 A 
ATOM     13  C   LIG    1        3.075  -3.834  -0.248  0.00  0.00    -0.030 A 
ATOM     14  C   LIG    1        2.542  -2.553  -0.070  0.00  0.00    +0.190 A 
ATOM     15  N   LIG    1        1.226  -2.108  -0.118  0.00  0.00    -0.550 N 
ATOM     16  C   LIG    1        0.156  -2.890  -0.362  0.00  0.00    +0.610 C 
ATOM     17  O   LIG    1        0.288  -4.097  -0.438  0.00  0.00    -0.500 OA
ENDBRANCH   1  16
BRANCH   4  18
ATOM     18  C   LIG    1       -4.237   0.125  -0.974  0.00  0.00    -0.070 A 
ATOM     19  C   LIG    1       -3.904   1.481  -0.990  0.00  0.00    +0.070 A 
ATOM     20  C   LIG    1       -4.886   2.433  -1.135  0.00  0.00    +0.000 A 
ATOM     21  C   LIG    1       -6.222   2.055  -1.268  0.00  0.00    +0.130 A 
ATOM     22  O   LIG    1       -7.335   2.827  -1.403  0.00  0.00    -0.300 OA
ATOM     23  C   LIG    1       -8.406   2.027  -1.931  0.00  0.00    +0.240 C 
ATOM     24  C   LIG    1       -8.051   0.606  -1.433  0.00  0.00    +0.090 C 
ATOM     25  C   LIG    1       -6.547   0.702  -1.257  0.00  0.00    -0.180 A 
ATOM     26  C   LIG    1       -5.574  -0.257  -1.115  0.00  0.00    +0.130 A 
ENDBRANCH   4  18
TORSDOF 2
