REMARK  Name = ZINCqH00000518mn.0
REMARK                            x       y       z     vdW  Elec       q    Type
REMARK                         _______ _______ _______ _____ _____    ______ ____
ROOT
ATOM      1  O   LIG    1        4.754  -0.219  -0.750  0.00  0.00    -0.540 OA
ATOM      2  C   LIG    1        4.057   0.171  -1.663  0.00  0.00    +0.520 C 
ATOM      3  N   LIG    1        2.903   0.817  -1.403  0.00  0.00    -0.730 N 
ATOM      4  H   LIG    1        2.346   1.128  -2.133  0.00  0.00    +0.400 HD
ENDROOT
BRANCH   3   5
ATOM      5  C   LIG    1        2.490   1.048  -0.016  0.00  0.00    +0.320 C 
BRANCH   5   6
ATOM      6  C   LIG    1        1.175   1.783   0.000  0.00  0.00    -0.100 A 
ATOM      7  C   LIG    1       -0.013   1.076   0.008  0.00  0.00    +0.030 A 
ATOM      8  C   LIG    1       -1.219   1.751   0.017  0.00  0.00    +0.030 A 
ATOM      9  C   LIG    1       -1.238   3.133   0.030  0.00  0.00    -0.110 A 
ATOM     10  C   LIG    1       -0.050   3.840   0.022  0.00  0.00    +0.030 A 
ATOM     11  C   LIG    1        1.156   3.165   0.008  0.00  0.00    +0.030 A 
BRANCH   9  12
ATOM     12  C   LIG    1       -2.553   3.869   0.045  0.00  0.00    +0.340 C 
BRANCH  12  13
ATOM     13  N   LIG    1       -2.992   4.113  -1.331  0.00  0.00    -0.460 N 
ATOM     14  C   LIG    1       -3.773   3.288  -2.093  0.00  0.00    +0.110 A 
ATOM     15  C   LIG    1       -3.933   3.894  -3.285  0.00  0.00    +0.140 A 
ATOM     16  N   LIG    1       -3.267   5.058  -3.251  0.00  0.00    -0.490 NA
ATOM     17  C   LIG    1       -2.706   5.199  -2.082  0.00  0.00    +0.380 A 
ENDBRANCH  12  13
ENDBRANCH   9  12
ENDBRANCH   5   6
ENDBRANCH   3   5
BRANCH   2  18
ATOM     18  C   LIG    1        4.482  -0.066  -3.090  0.00  0.00    +0.080 C 
BRANCH  18  19
ATOM     19  C   LIG    1        5.817  -0.813  -3.107  0.00  0.00    +0.210 C 
BRANCH  19  20
ATOM     20  O   LIG    1        6.220  -1.038  -4.459  0.00  0.00    -0.310 OA
BRANCH  20  21
ATOM     21  C   LIG    1        7.394  -1.695  -4.652  0.00  0.00    +0.140 A 
ATOM     22  C   LIG    1        8.146  -2.109  -3.562  0.00  0.00    -0.050 A 
ATOM     23  C   LIG    1        9.336  -2.783  -3.760  0.00  0.00    +0.070 A 
ATOM     24  C   LIG    1        9.784  -3.033  -5.043  0.00  0.00    +0.010 A 
ATOM     25  C   LIG    1        9.040  -2.616  -6.133  0.00  0.00    -0.050 A 
ATOM     26 BR   LIG    1        9.656  -2.961  -7.886  0.00  0.00    -0.040 Br
ATOM     27  C   LIG    1        7.846  -1.948  -5.939  0.00  0.00    +0.010 A 
ENDBRANCH  20  21
ENDBRANCH  19  20
ENDBRANCH  18  19
ENDBRANCH   2  18
TORSDOF 8
