REMARK  Name = ZINCrD000000C5m1.0
REMARK                            x       y       z     vdW  Elec       q    Type
REMARK                         _______ _______ _______ _____ _____    ______ ____
ROOT
ATOM      1  O   LIG    1       -0.527   3.674   1.460  0.00  0.00    -0.490 OA
ATOM      2  C   LIG    1        0.279   4.181   0.703  0.00  0.00    +0.570 C 
ATOM      3  N   LIG    1        1.134   3.402   0.010  0.00  0.00    -0.670 N 
ATOM      4  H   LIG    1        1.829   3.808  -0.531  0.00  0.00    +0.410 HD
ENDROOT
BRANCH   2   5
ATOM      5  C   LIG    1        0.321   5.647   0.543  0.00  0.00    -0.120 A 
ATOM      6  C   LIG    1        1.250   6.231  -0.321  0.00  0.00    +0.080 A 
ATOM      7  C   LIG    1        1.285   7.601  -0.472  0.00  0.00    -0.030 A 
ATOM      8  C   LIG    1        0.405   8.405   0.241  0.00  0.00    +0.070 A 
ATOM      9  O   LIG    1        0.244   9.759   0.271  0.00  0.00    -0.290 OA
ATOM     10  C   LIG    1       -1.055   9.980   0.850  0.00  0.00    +0.440 C 
ATOM     11  O   LIG    1       -1.261   8.823   1.682  0.00  0.00    -0.300 OA
ATOM     12  C   LIG    1       -0.522   7.828   1.110  0.00  0.00    +0.040 A 
ATOM     13 CL   LIG    1        2.436   8.324  -1.552  0.00  0.00    -0.040 Cl
ATOM     14  C   LIG    1       -0.564   6.455   1.261  0.00  0.00    +0.130 A 
ENDBRANCH   2   5
BRANCH   3  15
ATOM     15  C   LIG    1        1.019   2.010   0.071  0.00  0.00    +0.150 A 
ATOM     16  C   LIG    1        2.158   1.216   0.025  0.00  0.00    +0.020 A 
ATOM     17  C   LIG    1        2.049  -0.161   0.086  0.00  0.00    +0.050 A 
ATOM     18  C   LIG    1        0.808  -0.755   0.192  0.00  0.00    +0.030 A 
ATOM     19  C   LIG    1       -0.342   0.034   0.238  0.00  0.00    -0.020 A 
ATOM     20  C   LIG    1       -0.232   1.421   0.178  0.00  0.00    +0.080 A 
BRANCH  19  21
ATOM     21  C   LIG    1       -1.674  -0.602   0.352  0.00  0.00    +0.290 A 
ATOM     22  N   LIG    1       -2.784  -0.024   0.757  0.00  0.00    -0.320 NA
ATOM     23  N   LIG    1       -3.760  -0.859   0.737  0.00  0.00    -0.040 NA
ATOM     24  N   LIG    1       -3.355  -2.012   0.326  0.00  0.00    -0.080 NA
ATOM     25  N   LIG    1       -1.981  -1.888   0.054  0.00  0.00    -0.350 N 
BRANCH  25  26
ATOM     26  C   LIG    1       -1.076  -2.928  -0.443  0.00  0.00    +0.210 C 
ATOM     27  C   LIG    1       -1.683  -4.291  -0.781  0.00  0.00    +0.090 C 
ATOM     28  C   LIG    1       -0.813  -4.129   0.467  0.00  0.00    +0.060 C 
ENDBRANCH  25  26
ENDBRANCH  19  21
ENDBRANCH   3  15
TORSDOF 4
