REMARK  Name = ZINCkj000005mh2P.1
REMARK                            x       y       z     vdW  Elec       q    Type
REMARK                         _______ _______ _______ _____ _____    ______ ____
ROOT
ATOM      1  O   LIG    1       -2.403   4.546   1.236  0.00  0.00    -0.940 OA
ATOM      2  S   LIG    1       -3.691   4.117   0.818  0.00  0.00    +2.600 S 
ATOM      3  C   LIG    1       -4.077   2.485   1.508  0.00  0.00    -0.350 C 
ATOM      4  C   LIG    1       -2.860   1.940   2.255  0.00  0.00    +0.310 C 
ATOM      5  N   LIG    1       -2.074   1.071   1.364  0.00  0.00    -0.390 N 
ATOM      6  C   LIG    1       -0.705   1.591   1.271  0.00  0.00    +0.260 C 
ATOM      7  C   LIG    1       -0.013   1.087   0.008  0.00  0.00    +0.060 C 
ATOM      8  C   LIG    1       -0.725   1.593  -1.244  0.00  0.00    +0.010 C 
ATOM      9  C   LIG    1       -0.535   3.103  -1.387  0.00  0.00    +0.020 C 
ATOM     10  C   LIG    1       -1.610   3.665  -2.322  0.00  0.00    +0.020 C 
ATOM     11  C   LIG    1       -2.513   4.625  -1.544  0.00  0.00    +0.290 C 
ATOM     12  H   LIG    1       -2.500   1.044   0.454  0.00  0.00    +0.420 HD
ATOM     13  O   LIG    1       -4.817   4.979   0.914  0.00  0.00    -0.920 OA
ATOM     14  N   LIG    1       -3.527   3.833  -0.817  0.00  0.00    -1.120 NA
ATOM     15  H   LIG    1       -4.077   3.175  -1.272  0.00  0.00    +0.420 HD
ENDROOT
BRANCH   5  16
ATOM     16  C   LIG    1       -2.047  -0.287   1.931  0.00  0.00    +0.340 C 
BRANCH  16  17
ATOM     17  C   LIG    1       -3.441  -0.860   1.932  0.00  0.00    -0.110 A 
ATOM     18  C   LIG    1       -4.279  -0.684   3.023  0.00  0.00    +0.000 A 
ATOM     19  C   LIG    1       -5.553  -1.220   2.986  0.00  0.00    +0.290 A 
ATOM     20  N   LIG    1       -5.969  -1.899   1.935  0.00  0.00    -0.460 NA
ATOM     21  C   LIG    1       -5.197  -2.090   0.883  0.00  0.00    +0.290 A 
ATOM     22  C   LIG    1       -3.913  -1.580   0.846  0.00  0.00    +0.000 A 
ENDBRANCH  16  17
ENDBRANCH   5  16
TORSDOF 2
