REMARK  Name = ZINCkj000005mh2P.2
REMARK                            x       y       z     vdW  Elec       q    Type
REMARK                         _______ _______ _______ _____ _____    ______ ____
ROOT
ATOM      1  O   LIG    1        0.482   0.236  -0.258  0.00  0.00    -0.920 OA
ATOM      2  S   LIG    1        0.460   1.650  -0.380  0.00  0.00    +2.620 S 
ATOM      3  C   LIG    1       -0.898   2.172  -1.470  0.00  0.00    -0.380 C 
ATOM      4  C   LIG    1       -0.716   3.645  -1.820  0.00  0.00    +0.300 C 
ATOM      5  N   LIG    1       -1.958   4.308  -2.200  0.00  0.00    -0.370 N 
ATOM      6  C   LIG    1       -2.572   4.990  -1.063  0.00  0.00    +0.250 C 
ATOM      7  C   LIG    1       -3.345   4.040  -0.156  0.00  0.00    +0.020 C 
ATOM      8  C   LIG    1       -3.087   4.409   1.311  0.00  0.00    +0.040 C 
ATOM      9  C   LIG    1       -3.190   3.148   2.172  0.00  0.00    +0.020 C 
ATOM     10  C   LIG    1       -1.802   2.744   2.665  0.00  0.00    +0.020 C 
ATOM     11  C   LIG    1       -1.212   1.672   1.746  0.00  0.00    +0.260 C 
ATOM     12  H   LIG    1       -1.708   5.040  -2.883  0.00  0.00    +0.430 HD
ATOM     13  O   LIG    1        1.640   2.385  -0.674  0.00  0.00    -0.930 OA
ATOM     14  N   LIG    1        0.007   2.188   1.119  0.00  0.00    -1.110 NA
ATOM     15  H   LIG    1        0.550   2.844   1.584  0.00  0.00    +0.430 HD
ENDROOT
BRANCH   5  16
ATOM     16  C   LIG    1       -2.896   3.412  -2.872  0.00  0.00    +0.330 C 
BRANCH  16  17
ATOM     17  C   LIG    1       -4.074   4.204  -3.377  0.00  0.00    -0.110 A 
ATOM     18  C   LIG    1       -5.251   4.268  -2.648  0.00  0.00    +0.000 A 
ATOM     19  C   LIG    1       -6.309   5.008  -3.141  0.00  0.00    +0.290 A 
ATOM     20  N   LIG    1       -6.212   5.639  -4.294  0.00  0.00    -0.460 NA
ATOM     21  C   LIG    1       -5.109   5.596  -5.017  0.00  0.00    +0.290 A 
ATOM     22  C   LIG    1       -4.009   4.881  -4.586  0.00  0.00    +0.000 A 
ENDBRANCH  16  17
ENDBRANCH   5  16
TORSDOF 2
