REMARK  Name = ZINCtV000002ylys.0
REMARK                            x       y       z     vdW  Elec       q    Type
REMARK                         _______ _______ _______ _____ _____    ______ ____
ROOT
ATOM      1  S   LIG    1        0.768   4.073   0.812  0.00  0.00    +0.160 S 
ENDROOT
BRANCH   1   2
ATOM      2  C   LIG    1        1.252   3.407  -0.746  0.00  0.00    +0.130 A 
ATOM      3  N   LIG    1        0.613   2.485  -1.428  0.00  0.00    -0.280 NA
ATOM      4  N   LIG    1        1.250   2.239  -2.518  0.00  0.00    -0.230 NA
ATOM      5  C   LIG    1        2.322   2.995  -2.576  0.00  0.00    +0.230 A 
ATOM      6  O   LIG    1        2.342   3.754  -1.457  0.00  0.00    -0.190 OA
BRANCH   5   7
ATOM      7  C   LIG    1        3.315   3.017  -3.661  0.00  0.00    -0.120 A 
ATOM      8  C   LIG    1        3.255   2.252  -4.755  0.00  0.00    +0.030 A 
ATOM      9  C   LIG    1        4.347   2.447  -5.689  0.00  0.00    -0.080 A 
ATOM     10  C   LIG    1        4.587   1.810  -6.928  0.00  0.00    +0.080 A 
ATOM     11  C   LIG    1        5.682   2.134  -7.669  0.00  0.00    +0.030 A 
ATOM     12  C   LIG    1        6.580   3.094  -7.221  0.00  0.00    +0.060 A 
ATOM     13  C   LIG    1        6.371   3.730  -6.020  0.00  0.00    +0.060 A 
ATOM     14  C   LIG    1        5.254   3.414  -5.241  0.00  0.00    -0.130 A 
ATOM     15 CL   LIG    1        1.972   1.117  -5.036  0.00  0.00    +0.000 Cl
ATOM     16  S   LIG    1        4.728   4.054  -3.689  0.00  0.00    +0.190 S 
ENDBRANCH   5   7
ENDBRANCH   1   2
BRANCH   1  17
ATOM     17  C   LIG    1       -0.789   3.186   1.063  0.00  0.00    +0.010 C 
BRANCH  17  18
ATOM     18  C   LIG    1       -1.516   3.773   2.245  0.00  0.00    +0.540 C 
ATOM     19  N   LIG    1       -2.841   3.572   2.389  0.00  0.00    -0.660 N 
ATOM     20  H   LIG    1       -3.315   2.996   1.769  0.00  0.00    +0.420 HD
ATOM     21  O   LIG    1       -0.909   4.427   3.067  0.00  0.00    -0.500 OA
BRANCH  19  22
ATOM     22  C   LIG    1       -3.534   4.195   3.435  0.00  0.00    +0.130 A 
ATOM     23  C   LIG    1       -2.922   4.367   4.669  0.00  0.00    +0.060 A 
ATOM     24  C   LIG    1       -3.606   4.986   5.697  0.00  0.00    +0.010 A 
ATOM     25  C   LIG    1       -4.904   5.425   5.501  0.00  0.00    +0.090 A 
ATOM     26  C   LIG    1       -5.519   5.249   4.272  0.00  0.00    +0.010 A 
ATOM     27  F   LIG    1       -5.573   6.025   6.510  0.00  0.00    -0.140 F 
ATOM     28  C   LIG    1       -4.837   4.635   3.240  0.00  0.00    +0.030 A 
ENDBRANCH  19  22
ENDBRANCH  17  18
BRANCH  17  30
ATOM     29  C   LIG    1       -1.816   0.941   1.445  0.00  0.00    +0.030 C 
ATOM     30  C   LIG    1       -0.497   1.708   1.327  0.00  0.00    +0.050 C 
ENDBRANCH  17  30
ENDBRANCH   1  17
TORSDOF 6
