REMARK  Name = ZINCqH0000000poE.0
REMARK                            x       y       z     vdW  Elec       q    Type
REMARK                         _______ _______ _______ _____ _____    ______ ____
ROOT
ATOM      1  C   LIG    1       -5.803   3.580  -0.002  0.00  0.00    +0.100 C 
ATOM      2  C   LIG    1       -4.356   3.891   0.282  0.00  0.00    +0.540 C 
ATOM      3  N   LIG    1       -3.390   3.052  -0.143  0.00  0.00    -0.600 N 
ATOM      4  C   LIG    1       -3.719   1.764  -0.775  0.00  0.00    +0.280 C 
ATOM      5  C   LIG    1       -3.222   1.810  -2.220  0.00  0.00    +0.070 C 
ATOM      6  C   LIG    1       -1.810   2.329  -2.284  0.00  0.00    -0.050 A 
ATOM      7  C   LIG    1       -1.073   2.051  -3.429  0.00  0.00    +0.000 A 
ATOM      8  C   LIG    1        0.223   2.506  -3.558  0.00  0.00    +0.000 A 
ATOM      9  C   LIG    1        0.796   3.245  -2.540  0.00  0.00    +0.000 A 
ATOM     10  C   LIG    1        0.069   3.519  -1.400  0.00  0.00    +0.000 A 
ATOM     11  C   LIG    1       -1.234   3.059  -1.268  0.00  0.00    -0.080 A 
ATOM     12  C   LIG    1       -1.970   3.385   0.007  0.00  0.00    +0.300 C 
ATOM     13  O   LIG    1       -4.060   4.897   0.892  0.00  0.00    -0.550 OA
ENDROOT
BRANCH  12  14
ATOM     14  C   LIG    1       -1.826   4.878   0.309  0.00  0.00    +0.070 C 
BRANCH  14  15
ATOM     15  C   LIG    1       -2.456   5.678  -0.801  0.00  0.00    +0.550 C 
ATOM     16  N   LIG    1       -2.374   7.024  -0.793  0.00  0.00    -0.610 N 
ATOM     17  C   LIG    1       -1.680   7.731   0.293  0.00  0.00    +0.290 C 
ATOM     18  C   LIG    1       -0.452   8.440  -0.299  0.00  0.00    +0.100 C 
ATOM     19  C   LIG    1       -0.858   9.148  -1.575  0.00  0.00    -0.170 A 
ATOM     20  C   LIG    1       -1.971   8.885  -2.285  0.00  0.00    -0.110 A 
ATOM     21  C   LIG    1       -2.108   9.670  -3.425  0.00  0.00    +0.020 A 
ATOM     22  C   LIG    1       -1.136  10.552  -3.637  0.00  0.00    -0.040 A 
ATOM     23  S   LIG    1        0.058  10.432  -2.353  0.00  0.00    +0.100 S 
ATOM     24  C   LIG    1       -2.982   7.823  -1.867  0.00  0.00    +0.320 C 
ATOM     25  C   LIG    1       -4.257   8.495  -1.355  0.00  0.00    +0.040 C 
ATOM     26  O   LIG    1       -3.037   5.112  -1.703  0.00  0.00    -0.540 OA
ENDBRANCH  14  15
ENDBRANCH  12  14
TORSDOF 2
