REMARK  Name = ZINCkj000005hm8X.1
REMARK                            x       y       z     vdW  Elec       q    Type
REMARK                         _______ _______ _______ _____ _____    ______ ____
ROOT
ATOM      1  N   LIG    1        0.649  -2.277   3.713  0.00  0.00    -0.730 N 
ATOM      2  H   LIG    1        0.187  -2.803   3.042  0.00  0.00    +0.400 HD
ATOM      3  C   LIG    1        0.662  -0.932   3.624  0.00  0.00    +0.710 C 
ATOM      4  N   LIG    1        0.033  -0.318   2.603  0.00  0.00    -0.750 N 
ATOM      5  H   LIG    1       -0.429  -0.843   1.931  0.00  0.00    +0.400 HD
ATOM      6  O   LIG    1        1.242  -0.273   4.466  0.00  0.00    -0.580 OA
ENDROOT
BRANCH   1   7
ATOM      7  C   LIG    1        1.332  -2.945   4.823  0.00  0.00    +0.410 C 
BRANCH   7  12
ATOM      8  C   LIG    1       -0.449  -7.621   5.216  0.00  0.00    +0.390 C 
ATOM      9  N   LIG    1        0.406  -6.490   4.849  0.00  0.00    -0.360 N 
ATOM     10  C   LIG    1        1.538  -6.555   4.116  0.00  0.00    +0.290 A 
ATOM     11  C   LIG    1        2.029  -5.299   4.002  0.00  0.00    -0.230 A 
ATOM     12  C   LIG    1        1.168  -4.437   4.690  0.00  0.00    +0.080 A 
ATOM     13 BR   LIG    1        3.601  -4.798   3.079  0.00  0.00    -0.010 Br
ATOM     14  N   LIG    1        0.198  -5.150   5.202  0.00  0.00    -0.260 NA
ENDBRANCH   7  12
ENDBRANCH   1   7
BRANCH   4  15
ATOM     15  C   LIG    1        0.048   1.144   2.507  0.00  0.00    +0.310 C 
BRANCH  15  16
ATOM     16  C   LIG    1       -0.733   1.581   1.266  0.00  0.00    -0.020 C 
ATOM     17  C   LIG    1       -0.013   1.086   0.008  0.00  0.00    +0.050 C 
ATOM     18  C   LIG    1       -0.756   1.595  -1.230  0.00  0.00    +0.050 C 
ATOM     19  C   LIG    1       -0.843   3.121  -1.175  0.00  0.00    +0.250 C 
ATOM     20  N   LIG    1       -1.566   3.531   0.035  0.00  0.00    -0.380 N 
ATOM     21  C   LIG    1       -2.896   2.907   0.043  0.00  0.00    +0.310 C 
ATOM     22  H   LIG    1       -1.668   4.535   0.041  0.00  0.00    +0.430 HD
ATOM     23  C   LIG    1       -0.822   3.108   1.227  0.00  0.00    +0.280 C 
ENDBRANCH  15  16
ENDBRANCH   4  15
TORSDOF 4
