REMARK  Name = ZINCkj000005hm8X.0
REMARK                            x       y       z     vdW  Elec       q    Type
REMARK                         _______ _______ _______ _____ _____    ______ ____
ROOT
ATOM      1  N   LIG    1       -2.345   0.934   0.018  0.00  0.00    -0.730 N 
ATOM      2  H   LIG    1       -2.332  -0.036   0.013  0.00  0.00    +0.400 HD
ATOM      3  C   LIG    1       -1.187   1.624   0.017  0.00  0.00    +0.710 C 
ATOM      4  N   LIG    1       -0.011   0.966   0.007  0.00  0.00    -0.750 N 
ATOM      5  H   LIG    1        0.002  -0.004   0.002  0.00  0.00    +0.400 HD
ATOM      6  O   LIG    1       -1.204   2.840   0.023  0.00  0.00    -0.580 OA
ENDROOT
BRANCH   1   7
ATOM      7  C   LIG    1       -3.624   1.649   0.028  0.00  0.00    +0.410 C 
BRANCH   7  12
ATOM      8  C   LIG    1       -7.230  -1.503  -1.474  0.00  0.00    +0.390 C 
ATOM      9  N   LIG    1       -6.338  -0.729  -0.607  0.00  0.00    -0.360 N 
ATOM     10  C   LIG    1       -6.336  -0.740   0.744  0.00  0.00    +0.290 A 
ATOM     11  C   LIG    1       -5.367   0.107   1.162  0.00  0.00    -0.230 A 
ATOM     12  C   LIG    1       -4.756   0.654   0.028  0.00  0.00    +0.080 A 
ATOM     13 BR   LIG    1       -4.918   0.484   2.959  0.00  0.00    -0.010 Br
ATOM     14  N   LIG    1       -5.341   0.158  -1.032  0.00  0.00    -0.260 NA
ENDBRANCH   7  12
ENDBRANCH   1   7
BRANCH   4  15
ATOM     15  C   LIG    1        1.248   1.716  -0.001  0.00  0.00    +0.310 C 
BRANCH  15  16
ATOM     16  C   LIG    1        2.424   0.737  -0.017  0.00  0.00    -0.020 C 
ATOM     17  C   LIG    1        2.441  -0.064   1.288  0.00  0.00    +0.040 C 
ATOM     18  C   LIG    1        3.665  -0.984   1.295  0.00  0.00    +0.050 C 
ATOM     19  C   LIG    1        4.930  -0.141   1.115  0.00  0.00    +0.250 C 
ATOM     20  N   LIG    1        4.865   0.580  -0.162  0.00  0.00    -0.380 N 
ATOM     21  C   LIG    1        6.113   1.327  -0.364  0.00  0.00    +0.310 C 
ATOM     22  H   LIG    1        4.744  -0.081  -0.914  0.00  0.00    +0.420 HD
ATOM     23  C   LIG    1        3.734   1.516  -0.149  0.00  0.00    +0.270 C 
ENDBRANCH  15  16
ENDBRANCH   4  15
TORSDOF 4
