REMARK  Name = ZINCvU0000000Ekn.0
REMARK                            x       y       z     vdW  Elec       q    Type
REMARK                         _______ _______ _______ _____ _____    ______ ____
ROOT
ATOM      1  C   LIG    1       -1.371  -1.865  -0.795  0.00  0.00    +0.280 A 
ATOM      2  N   LIG    1       -1.365  -0.621  -0.439  0.00  0.00    -0.390 NA
ATOM      3  C   LIG    1       -0.173  -0.039  -0.287  0.00  0.00    +0.070 A 
ATOM      4  C   LIG    1        0.895  -0.856  -0.524  0.00  0.00    -0.010 A 
ATOM      5  S   LIG    1        0.281  -2.446  -0.969  0.00  0.00    +0.110 S 
ENDROOT
BRANCH   3   6
ATOM      6  C   LIG    1       -0.023   1.364   0.108  0.00  0.00    +0.240 C 
ATOM      7  C   LIG    1       -1.119   2.097   0.443  0.00  0.00    -0.210 C 
ATOM      8  S   LIG    1       -1.267   3.864   0.501  0.00  0.00    +0.010 S 
ATOM      9  C   LIG    1       -2.965   3.852   1.009  0.00  0.00    +0.390 C 
ATOM     10  N   LIG    1       -3.331   2.539   1.118  0.00  0.00    -0.640 N 
ATOM     11  H   LIG    1       -4.230   2.298   1.391  0.00  0.00    +0.430 HD
ATOM     12  N   LIG    1       -3.722   4.901   1.242  0.00  0.00    -0.470 NA
ATOM     13  C   LIG    1       -2.437   1.605   0.843  0.00  0.00    +0.550 C 
ATOM     14  O   LIG    1       -2.692   0.416   0.918  0.00  0.00    -0.430 OA
BRANCH  12  15
ATOM     15  C   LIG    1       -3.212   6.161   1.090  0.00  0.00    +0.090 A 
ATOM     16  C   LIG    1       -1.951   6.474   1.604  0.00  0.00    -0.020 A 
ATOM     17  C   LIG    1       -1.440   7.745   1.443  0.00  0.00    +0.030 A 
ATOM     18  C   LIG    1       -2.178   8.712   0.782  0.00  0.00    +0.010 A 
ATOM     19  C   LIG    1       -3.429   8.410   0.275  0.00  0.00    +0.030 A 
ATOM     20  C   LIG    1       -3.950   7.142   0.424  0.00  0.00    +0.030 A 
ENDBRANCH  12  15
ENDBRANCH   3   6
BRANCH   1  23
ATOM     21  C   LIG    1       -2.577  -3.061   1.431  0.00  0.00    +0.110 C 
ATOM     22  C   LIG    1       -3.154  -3.183   0.045  0.00  0.00    +0.540 C 
ATOM     23  N   LIG    1       -2.513  -2.630  -1.004  0.00  0.00    -0.480 N 
ATOM     24  O   LIG    1       -4.197  -3.778  -0.128  0.00  0.00    -0.500 OA
BRANCH  23  25
ATOM     25  C   LIG    1       -2.996  -2.826  -2.304  0.00  0.00    +0.120 A 
ATOM     26  C   LIG    1       -3.920  -1.942  -2.843  0.00  0.00    -0.050 A 
ATOM     27  C   LIG    1       -4.391  -2.135  -4.127  0.00  0.00    +0.010 A 
ATOM     28  C   LIG    1       -3.952  -3.215  -4.871  0.00  0.00    +0.030 A 
ATOM     29  C   LIG    1       -3.035  -4.101  -4.334  0.00  0.00    +0.010 A 
ATOM     30  C   LIG    1       -4.404  -0.768  -2.031  0.00  0.00    +0.100 C 
ATOM     31  C   LIG    1       -2.557  -3.910  -3.053  0.00  0.00    -0.070 A 
ATOM     32  C   LIG    1       -1.559  -4.876  -2.469  0.00  0.00    +0.110 C 
ENDBRANCH  23  25
ENDBRANCH   1  23
TORSDOF 4
