REMARK  Name = ZINCrH000004kfhB.0
REMARK                            x       y       z     vdW  Elec       q    Type
REMARK                         _______ _______ _______ _____ _____    ______ ____
ROOT
ATOM      1  N   LIG    1       -0.744   3.014  -3.132  0.00  0.00    -0.690 N 
ATOM      2  H   LIG    1       -1.568   2.561  -3.370  0.00  0.00    +0.410 HD
ATOM      3  C   LIG    1       -0.281   2.952  -1.868  0.00  0.00    +0.710 C 
ATOM      4  N   LIG    1       -0.880   2.144  -0.971  0.00  0.00    -0.630 N 
ATOM      5  C   LIG    1       -0.325   1.985   0.381  0.00  0.00    +0.300 C 
ATOM      6  C   LIG    1       -1.423   2.284   1.406  0.00  0.00    +0.010 C 
ATOM      7  C   LIG    1       -2.639   1.396   1.114  0.00  0.00    +0.170 C 
ATOM      8  C   LIG    1       -3.180   1.710  -0.282  0.00  0.00    +0.040 C 
ATOM      9  C   LIG    1       -2.100   1.405  -1.325  0.00  0.00    +0.280 C 
ATOM     10  O   LIG    1        0.676   3.624  -1.537  0.00  0.00    -0.570 OA
ENDROOT
BRANCH   1  15
ATOM     11  C   LIG    1       -0.007   5.106  -6.077  0.00  0.00    -0.120 A 
ATOM     12  C   LIG    1        1.387   5.154  -6.017  0.00  0.00    +0.030 A 
ATOM     13  C   LIG    1        2.057   4.495  -5.007  0.00  0.00    +0.030 A 
ATOM     14  C   LIG    1        1.353   3.786  -4.052  0.00  0.00    +0.050 A 
ATOM     15  C   LIG    1       -0.035   3.733  -4.102  0.00  0.00    +0.160 A 
ATOM     16  C   LIG    1       -0.717   4.387  -5.116  0.00  0.00    +0.050 A 
BRANCH  11  20
ATOM     17  C   LIG    1       -0.753   7.202  -9.159  0.00  0.00    +0.290 C 
ATOM     18  N   LIG    1       -0.039   6.503  -8.088  0.00  0.00    -0.730 N 
ATOM     19  H   LIG    1        0.930   6.537  -8.048  0.00  0.00    +0.400 HD
ATOM     20  C   LIG    1       -0.728   5.812  -7.158  0.00  0.00    +0.560 C 
ATOM     21  O   LIG    1       -1.942   5.769  -7.208  0.00  0.00    -0.530 OA
ENDBRANCH  11  20
ENDBRANCH   1  15
BRANCH   7  22
ATOM     22  O   LIG    1       -3.655   1.648   2.087  0.00  0.00    -0.300 OA
BRANCH  22  23
ATOM     23  C   LIG    1       -3.585   0.946   3.249  0.00  0.00    +0.140 A 
ATOM     24  C   LIG    1       -2.494   0.129   3.502  0.00  0.00    -0.060 A 
ATOM     25  C   LIG    1       -2.425  -0.583   4.684  0.00  0.00    +0.060 A 
ATOM     26  C   LIG    1       -3.442  -0.482   5.614  0.00  0.00    -0.020 A 
ATOM     27  C   LIG    1       -4.532   0.332   5.365  0.00  0.00    +0.070 A 
ATOM     28  C   LIG    1       -4.603   1.051   4.187  0.00  0.00    -0.070 A 
ATOM     29 CL   LIG    1       -5.968   2.079   3.878  0.00  0.00    -0.060 Cl
ENDBRANCH  22  23
ENDBRANCH   7  22
TORSDOF 4
