REMARK  Name = ZINCpe00000MJJTa.0
REMARK                            x       y       z     vdW  Elec       q    Type
REMARK                         _______ _______ _______ _____ _____    ______ ____
ROOT
ATOM      1  C   LIG    1       -2.518   1.430   0.021  0.00  0.00    +0.640 C 
ATOM      2  N   LIG    1       -3.521   2.330   0.029  0.00  0.00    -0.640 N 
ATOM      3  C   LIG    1       -3.627   3.797   0.044  0.00  0.00    +0.290 C 
ATOM      4  C   LIG    1       -4.982   3.641   0.743  0.00  0.00    +0.120 C 
ATOM      5  C   LIG    1       -4.991   2.278   0.036  0.00  0.00    +0.310 C 
ATOM      6  O   LIG    1       -2.770   0.239   0.016  0.00  0.00    -0.510 OA
ENDROOT
BRANCH   4   7
ATOM      7  N   LIG    1       -6.017   4.571   0.271  0.00  0.00    -0.520 NA
ATOM      8  C   LIG    1       -7.355   3.973   0.389  0.00  0.00    +0.180 C 
ATOM      9  C   LIG    1       -8.395   4.950  -0.167  0.00  0.00    +0.240 C 
ATOM     10  O   LIG    1       -8.294   6.194   0.531  0.00  0.00    -0.370 OA
ATOM     11  C   LIG    1       -7.004   6.804   0.436  0.00  0.00    +0.250 C 
ATOM     12  C   LIG    1       -5.950   5.846   0.999  0.00  0.00    +0.240 C 
BRANCH  12  13
ATOM     13  C   LIG    1       -4.580   6.450   0.830  0.00  0.00    +0.190 A 
ATOM     14  N   LIG    1       -3.842   6.989   1.771  0.00  0.00    -0.470 NA
ATOM     15  C   LIG    1       -2.712   7.388   1.161  0.00  0.00    +0.170 A 
ATOM     16  N   LIG    1       -2.821   7.084  -0.098  0.00  0.00    -0.380 NA
ATOM     17  C   LIG    1       -1.537   8.067   1.816  0.00  0.00    +0.200 C 
ATOM     18  O   LIG    1       -3.886   6.545  -0.309  0.00  0.00    +0.100 OA
ENDBRANCH  12  13
ENDBRANCH   4   7
BRANCH   1  22
ATOM     19  C   LIG    1        0.627   3.203   0.013  0.00  0.00    +0.220 A 
ATOM     20  C   LIG    1        1.098   1.926   0.002  0.00  0.00    -0.070 A 
ATOM     21  C   LIG    1       -0.013   1.076   0.008  0.00  0.00    +0.100 A 
ATOM     22  C   LIG    1       -1.129   1.884   0.017  0.00  0.00    -0.110 A 
ATOM     23  O   LIG    1       -0.713   3.170   0.025  0.00  0.00    -0.190 OA
BRANCH  19  25
ATOM     24  C   LIG    1        0.698   5.575   0.024  0.00  0.00    +0.260 C 
ATOM     25  O   LIG    1        1.387   4.323   0.011  0.00  0.00    -0.260 OA
ENDBRANCH  19  25
ENDBRANCH   1  22
TORSDOF 4
