REMARK  Name = ZINCbw0000001N53.0
REMARK                            x       y       z     vdW  Elec       q    Type
REMARK                         _______ _______ _______ _____ _____    ______ ____
ROOT
ATOM      1  C   LIG    1        1.007   3.530   0.011  0.00  0.00    +0.160 C 
ATOM      2  C   LIG    1        1.094   2.026   0.003  0.00  0.00    +0.210 A 
ATOM      3  N   LIG    1       -0.016   1.312   0.009  0.00  0.00    -0.480 NA
ATOM      4  C   LIG    1        0.002  -0.004   0.002  0.00  0.00    +0.390 A 
ATOM      5  C   LIG    1        1.216  -0.698  -0.014  0.00  0.00    -0.240 A 
ATOM      6  C   LIG    1        2.414   0.034  -0.021  0.00  0.00    +0.080 A 
ATOM      7 CL   LIG    1        3.951  -0.773  -0.041  0.00  0.00    -0.010 Cl
ATOM      8  C   LIG    1        2.337   1.417  -0.013  0.00  0.00    -0.170 A 
ATOM      9 BR   LIG    1        3.913   2.462  -0.023  0.00  0.00    +0.000 Br
ENDROOT
BRANCH   5  10
ATOM     10  C   LIG    1        1.236  -2.169  -0.023  0.00  0.00    +0.510 C 
ATOM     11  O   LIG    1        0.195  -2.790  -0.017  0.00  0.00    -0.440 OA
ENDBRANCH   5  10
TORSDOF 1
