REMARK  Name = ZINCtV000002K1KJ.0
REMARK                            x       y       z     vdW  Elec       q    Type
REMARK                         _______ _______ _______ _____ _____    ______ ____
ROOT
ATOM      1  C   LIG    1       -1.316  -5.152   2.994  0.00  0.00    +0.270 A 
ATOM      2  N   LIG    1       -0.124  -5.594   3.315  0.00  0.00    -0.480 NA
ATOM      3  C   LIG    1       -0.243  -6.678   4.126  0.00  0.00    +0.060 A 
ATOM      4  C   LIG    1        0.684  -7.516   4.748  0.00  0.00    +0.140 A 
ATOM      5  C   LIG    1        0.244  -8.565   5.526  0.00  0.00    -0.190 A 
ATOM      6  C   LIG    1       -1.112  -8.794   5.696  0.00  0.00    +0.090 A 
ATOM      7  C   LIG    1       -2.041  -7.974   5.088  0.00  0.00    +0.030 A 
ATOM      8  C   LIG    1       -1.617  -6.915   4.301  0.00  0.00    +0.090 A 
ATOM      9  N   LIG    1       -2.273  -5.935   3.574  0.00  0.00    -0.460 N 
ENDROOT
BRANCH   5  10
ATOM     10  C   LIG    1        1.246  -9.469   6.197  0.00  0.00    +0.510 C 
ATOM     11  F   LIG    1        2.409  -9.533   5.423  0.00  0.00    -0.180 F 
ATOM     12  F   LIG    1        0.702 -10.752   6.328  0.00  0.00    -0.180 F 
ATOM     13  F   LIG    1        1.555  -8.963   7.464  0.00  0.00    -0.170 F 
ENDBRANCH   5  10
BRANCH   1  14
ATOM     14  S   LIG    1       -1.635  -3.761   1.960  0.00  0.00    +0.040 S 
BRANCH  14  15
ATOM     15  C   LIG    1        0.061  -3.253   1.584  0.00  0.00    +0.260 C 
BRANCH  15  20
ATOM     16  C   LIG    1       -0.018   1.503   0.010  0.00  0.00    +0.170 C 
ATOM     17  C   LIG    1        0.002  -0.004   0.002  0.00  0.00    -0.020 A 
ATOM     18  C   LIG    1       -0.003  -0.791  -1.087  0.00  0.00    -0.030 A 
ATOM     19  O   LIG    1        0.024  -2.067  -0.654  0.00  0.00    -0.190 OA
ATOM     20  C   LIG    1        0.036  -2.044   0.685  0.00  0.00    +0.180 A 
ATOM     21  C   LIG    1       -0.030  -0.333  -2.522  0.00  0.00    +0.200 C 
ATOM     22  N   LIG    1        0.023  -0.803   1.083  0.00  0.00    -0.450 NA
ENDBRANCH  15  20
ENDBRANCH  14  15
ENDBRANCH   1  14
BRANCH   9  23
ATOM     23  C   LIG    1       -3.723  -5.769   3.451  0.00  0.00    +0.370 C 
BRANCH  23  24
ATOM     24  C   LIG    1       -4.220  -6.559   2.267  0.00  0.00    -0.130 A 
ATOM     25  C   LIG    1       -4.285  -5.968   1.020  0.00  0.00    +0.040 A 
ATOM     26  C   LIG    1       -4.736  -6.693  -0.067  0.00  0.00    +0.010 A 
ATOM     27  C   LIG    1       -5.132  -8.008   0.096  0.00  0.00    +0.030 A 
ATOM     28  C   LIG    1       -5.073  -8.597   1.345  0.00  0.00    +0.010 A 
ATOM     29  C   LIG    1       -4.617  -7.873   2.431  0.00  0.00    +0.020 A 
ENDBRANCH  23  24
ENDBRANCH   9  23
TORSDOF 6
