REMARK  Name = ZINCfA000000baOZ.0
REMARK                            x       y       z     vdW  Elec       q    Type
REMARK                         _______ _______ _______ _____ _____    ______ ____
ROOT
ATOM      1  N   LIG    1        3.661   1.382  -1.000  0.00  0.00    -0.370 N 
ATOM      2  C   LIG    1        3.423   1.616  -2.431  0.00  0.00    +0.320 C 
ATOM      3  H   LIG    1        3.529   2.244  -0.492  0.00  0.00    +0.430 HD
ENDROOT
BRANCH   1   4
ATOM      4  C   LIG    1        2.716   0.373  -0.506  0.00  0.00    +0.240 C 
ATOM      5  C   LIG    1        2.963   0.129   0.984  0.00  0.00    +0.100 C 
BRANCH   4   6
ATOM      6  C   LIG    1        1.305   0.864  -0.707  0.00  0.00    +0.070 A 
ATOM      7  C   LIG    1        0.273  -0.049  -0.817  0.00  0.00    +0.010 A 
ATOM      8  C   LIG    1       -1.020   0.413  -1.007  0.00  0.00    +0.090 A 
ATOM      9  C   LIG    1       -1.229   1.782  -1.069  0.00  0.00    +0.000 A 
ATOM     10  C   LIG    1       -0.148   2.635  -0.950  0.00  0.00    +0.290 A 
ATOM     11  N   LIG    1        1.070   2.160  -0.775  0.00  0.00    -0.500 NA
ENDBRANCH   4   6
ENDBRANCH   1   4
BRANCH   1  12
ATOM     12  C   LIG    1        5.036   0.903  -0.805  0.00  0.00    +0.280 C 
BRANCH  12  15
ATOM     13  C   LIG    1        7.064   1.703   0.984  0.00  0.00    +0.090 C 
ATOM     14  C   LIG    1        6.912   2.397  -0.345  0.00  0.00    -0.030 C 
ATOM     15  C   LIG    1        6.006   1.988  -1.198  0.00  0.00    -0.130 C 
ATOM     16  C   LIG    1        7.801   3.563  -0.692  0.00  0.00    +0.110 C 
ENDBRANCH  12  15
ENDBRANCH   1  12
TORSDOF 4
