REMARK  Name = ZINCfA000000baOZ.1
REMARK                            x       y       z     vdW  Elec       q    Type
REMARK                         _______ _______ _______ _____ _____    ______ ____
ROOT
ATOM      1  N   LIG    1        2.160   5.585   0.066  0.00  0.00    -0.370 N 
ATOM      2  C   LIG    1        2.143   7.053   0.022  0.00  0.00    +0.320 C 
ATOM      3  H   LIG    1        3.076   5.252  -0.196  0.00  0.00    +0.430 HD
ENDROOT
BRANCH   1   4
ATOM      4  C   LIG    1        1.160   5.055  -0.871  0.00  0.00    +0.240 C 
ATOM      5  C   LIG    1        1.488   5.527  -2.288  0.00  0.00    +0.100 C 
BRANCH   4   6
ATOM      6  C   LIG    1        1.178   3.549  -0.826  0.00  0.00    +0.070 A 
ATOM      7  C   LIG    1        0.046   2.842  -1.184  0.00  0.00    +0.010 A 
ATOM      8  C   LIG    1        0.075   1.456  -1.145  0.00  0.00    +0.090 A 
ATOM      9  C   LIG    1        1.242   0.832  -0.734  0.00  0.00    +0.000 A 
ATOM     10  C   LIG    1        2.335   1.605  -0.391  0.00  0.00    +0.290 A 
ATOM     11  N   LIG    1        2.273   2.921  -0.445  0.00  0.00    -0.500 NA
ENDBRANCH   4   6
ENDBRANCH   1   4
BRANCH   1  12
ATOM     12  C   LIG    1        1.845   5.131   1.427  0.00  0.00    +0.280 C 
BRANCH  12  15
ATOM     13  C   LIG    1        3.110   3.250   3.104  0.00  0.00    +0.080 C 
ATOM     14  C   LIG    1        3.567   4.686   3.099  0.00  0.00    -0.030 C 
ATOM     15  C   LIG    1        2.936   5.571   2.369  0.00  0.00    -0.130 C 
ATOM     16  C   LIG    1        4.750   5.103   3.934  0.00  0.00    +0.090 C 
ENDBRANCH  12  15
ENDBRANCH   1  12
TORSDOF 4
