REMARK  Name = ZINCrH000004mRrC.0
REMARK                            x       y       z     vdW  Elec       q    Type
REMARK                         _______ _______ _______ _____ _____    ______ ____
ROOT
ATOM      1  C   LIG    1        6.686   2.683  -4.077  0.00  0.00    -0.070 A 
ATOM      2  N   LIG    1        7.150   2.754  -2.856  0.00  0.00    -0.210 NA
ATOM      3  N   LIG    1        6.464   2.182  -1.964  0.00  0.00    -0.260 NA
ATOM      4  C   LIG    1        5.378   1.573  -2.333  0.00  0.00    -0.010 A 
ATOM      5  S   LIG    1        5.188   1.753  -4.025  0.00  0.00    +0.280 S 
ENDROOT
BRANCH   1   8
ATOM      6  N   LIG    1        8.456   3.962  -5.173  0.00  0.00    -0.640 N 
ATOM      7  H   LIG    1        8.845   4.128  -4.300  0.00  0.00    +0.420 HD
ATOM      8  C   LIG    1        7.303   3.272  -5.277  0.00  0.00    +0.610 C 
ATOM      9  O   LIG    1        6.771   3.137  -6.363  0.00  0.00    -0.500 OA
BRANCH   6  13
ATOM     10  C   LIG    1       10.352   5.385  -8.602  0.00  0.00    +0.120 A 
ATOM     11  C   LIG    1        8.966   5.350  -8.540  0.00  0.00    +0.010 A 
ATOM     12  C   LIG    1        8.338   4.879  -7.404  0.00  0.00    +0.070 A 
ATOM     13  C   LIG    1        9.093   4.440  -6.325  0.00  0.00    +0.100 A 
ATOM     14  C   LIG    1       10.480   4.480  -6.386  0.00  0.00    +0.040 A 
ATOM     15  C   LIG    1       11.107   4.946  -7.524  0.00  0.00    -0.060 A 
BRANCH  10  17
ATOM     16  C   LIG    1       12.399   5.857  -9.716  0.00  0.00    +0.250 C 
ATOM     17  O   LIG    1       10.970   5.850  -9.720  0.00  0.00    -0.320 OA
ENDBRANCH  10  17
ENDBRANCH   6  13
ENDBRANCH   1   8
BRANCH   4  18
ATOM     18  C   LIG    1        4.434   0.835  -1.419  0.00  0.00    +0.330 C 
BRANCH  18  19
ATOM     19  N   LIG    1        3.412   1.763  -0.917  0.00  0.00    -0.680 NA
ATOM     20  H   LIG    1        3.836   2.555  -0.458  0.00  0.00    +0.350 HD
BRANCH  19  21
ATOM     21  C   LIG    1        2.472   1.076  -0.021  0.00  0.00    +0.230 C 
ATOM     22  C   LIG    1        3.047   1.048   1.396  0.00  0.00    +0.010 C 
BRANCH  21  23
ATOM     23  C   LIG    1        1.156   1.810  -0.015  0.00  0.00    -0.040 A 
ATOM     24  C   LIG    1        1.136   3.193  -0.017  0.00  0.00    +0.020 A 
ATOM     25  C   LIG    1       -0.070   3.868  -0.012  0.00  0.00    +0.040 A 
ATOM     26  C   LIG    1       -1.258   3.162  -0.005  0.00  0.00    -0.030 A 
ATOM     27  C   LIG    1       -1.239   1.777  -0.007  0.00  0.00    +0.100 A 
ATOM     28  F   LIG    1       -2.400   1.085  -0.005  0.00  0.00    -0.140 F 
ATOM     29  C   LIG    1       -0.031   1.102  -0.007  0.00  0.00    -0.020 A 
ENDBRANCH  21  23
ENDBRANCH  19  21
ENDBRANCH  18  19
ENDBRANCH   4  18
TORSDOF 7
