REMARK  Name = ZINCrg00000bxXgD.0
REMARK                            x       y       z     vdW  Elec       q    Type
REMARK                         _______ _______ _______ _____ _____    ______ ____
ROOT
ATOM      1  C   LIG    1       -1.486   2.070  -3.430  0.00  0.00    -0.100 A 
ATOM      2  C   LIG    1       -2.748   1.853  -2.877  0.00  0.00    +0.040 A 
ATOM      3  C   LIG    1       -2.938   1.969  -1.517  0.00  0.00    +0.090 A 
ATOM      4  C   LIG    1       -1.865   2.304  -0.688  0.00  0.00    -0.130 A 
ATOM      5  C   LIG    1       -1.764   2.497   0.774  0.00  0.00    +0.560 C 
ATOM      6  N   LIG    1       -0.503   2.819   1.115  0.00  0.00    -0.600 N 
ATOM      7  C   LIG    1        0.318   2.860  -0.100  0.00  0.00    +0.360 C 
ATOM      8  O   LIG    1       -2.687   2.382   1.556  0.00  0.00    -0.510 OA
ATOM      9  C   LIG    1       -0.603   2.521  -1.246  0.00  0.00    -0.080 A 
ATOM     10  C   LIG    1       -0.412   2.406  -2.602  0.00  0.00    +0.090 A 
ENDROOT
BRANCH   1  17
ATOM     11  C   LIG    1       -3.101   1.147  -9.190  0.00  0.00    +0.090 C 
ATOM     12  C   LIG    1       -3.217   1.342  -7.677  0.00  0.00    +0.020 C 
ATOM     13  C   LIG    1       -2.057   2.211  -7.181  0.00  0.00    +0.310 C 
ATOM     14  N   LIG    1       -2.202   2.444  -5.743  0.00  0.00    -0.610 N 
ATOM     15  C   LIG    1       -3.336   3.208  -5.220  0.00  0.00    +0.290 C 
ATOM     16  C   LIG    1       -4.636   2.456  -5.496  0.00  0.00    +0.100 C 
ATOM     17  C   LIG    1       -1.284   1.945  -4.891  0.00  0.00    +0.560 C 
ATOM     18  O   LIG    1       -0.292   1.392  -5.322  0.00  0.00    -0.520 OA
ATOM     19  S   LIG    1       -4.784   2.176  -7.286  0.00  0.00    -0.240 S 
ENDBRANCH   1  17
BRANCH   6  20
ATOM     20  C   LIG    1       -0.027   3.084   2.475  0.00  0.00    +0.290 C 
ATOM     21  C   LIG    1       -0.801   4.266   3.067  0.00  0.00    +0.060 C 
ATOM     22  C   LIG    1       -0.366   4.452   4.525  0.00  0.00    +0.100 C 
ATOM     23  C   LIG    1       -0.573   3.161   5.271  0.00  0.00    +0.520 C 
ATOM     24  N   LIG    1       -0.499   1.976   4.646  0.00  0.00    -0.670 N 
ATOM     25  H   LIG    1       -0.631   1.167   5.165  0.00  0.00    +0.420 HD
ATOM     26  O   LIG    1       -0.811   3.192   6.460  0.00  0.00    -0.500 OA
ATOM     27  C   LIG    1       -0.251   1.866   3.333  0.00  0.00    +0.510 C 
ATOM     28  O   LIG    1       -0.207   0.766   2.826  0.00  0.00    -0.480 OA
ENDBRANCH   6  20
TORSDOF 2
