REMARK  Name = ZINCtV00000L6jCp.0
REMARK                            x       y       z     vdW  Elec       q    Type
REMARK                         _______ _______ _______ _____ _____    ______ ____
ROOT
ATOM      1  C   LIG    1       -6.621   0.367  -0.089  0.00  0.00    +0.140 A 
ATOM      2  C   LIG    1       -6.890   0.648  -1.424  0.00  0.00    -0.080 A 
ATOM      3  C   LIG    1       -5.933   1.174  -2.275  0.00  0.00    +0.060 A 
ATOM      4  C   LIG    1       -4.671   1.415  -1.742  0.00  0.00    +0.050 A 
ATOM      5  O   LIG    1       -3.551   1.907  -2.283  0.00  0.00    -0.190 OA
ATOM      6  C   LIG    1       -2.562   1.961  -1.370  0.00  0.00    +0.030 A 
ATOM      7  C   LIG    1       -3.007   1.502  -0.184  0.00  0.00    -0.170 A 
ATOM      8  C   LIG    1       -2.175   1.418   1.069  0.00  0.00    +0.110 C 
ATOM      9  C   LIG    1       -0.930   2.296   0.887  0.00  0.00    +0.000 C 
ATOM     10  C   LIG    1       -0.267   1.960  -0.451  0.00  0.00    +0.030 C 
ATOM     11  C   LIG    1       -1.153   2.456  -1.599  0.00  0.00    +0.140 C 
ATOM     12  C   LIG    1       -4.394   1.129  -0.381  0.00  0.00    -0.100 A 
ATOM     13  C   LIG    1       -8.271   0.372  -1.962  0.00  0.00    +0.100 C 
ATOM     14  C   LIG    1       -5.368   0.599   0.466  0.00  0.00    +0.050 A 
ENDROOT
BRANCH   9  15
ATOM     15  C   LIG    1        0.054   2.028   2.027  0.00  0.00    -0.060 C 
ATOM     16  C   LIG    1        0.459   0.553   2.015  0.00  0.00    +0.020 C 
ATOM     17  C   LIG    1       -0.609   2.364   3.364  0.00  0.00    +0.020 C 
ATOM     18  C   LIG    1        1.298   2.900   1.842  0.00  0.00    +0.020 C 
ENDBRANCH   9  15
BRANCH   1  19
ATOM     19  N   LIG    1       -7.636  -0.163   0.714  0.00  0.00    -1.050 N 
ATOM     20  H   LIG    1       -8.278  -0.785   0.338  0.00  0.00    +0.430 HD
BRANCH  19  21
ATOM     21  S   LIG    1       -7.742   0.271   2.309  0.00  0.00    +2.690 S 
ATOM     22  O   LIG    1       -6.464   0.022   2.878  0.00  0.00    -0.950 OA
ATOM     23  O   LIG    1       -8.940  -0.311   2.805  0.00  0.00    -0.950 OA
BRANCH  21  28
ATOM     24  C   LIG    1       -8.551   6.247   2.483  0.00  0.00    +0.090 C 
ATOM     25  C   LIG    1       -8.349   4.754   2.441  0.00  0.00    -0.020 A 
ATOM     26  C   LIG    1       -9.442   3.910   2.385  0.00  0.00    -0.010 A 
ATOM     27  C   LIG    1       -9.257   2.541   2.345  0.00  0.00    +0.130 A 
ATOM     28  C   LIG    1       -7.978   2.016   2.360  0.00  0.00    -0.680 A 
ATOM     29  C   LIG    1       -6.885   2.860   2.421  0.00  0.00    +0.130 A 
ATOM     30  C   LIG    1       -7.070   4.229   2.457  0.00  0.00    -0.010 A 
ENDBRANCH  21  28
ENDBRANCH  19  21
ENDBRANCH   1  19
TORSDOF 4
