REMARK  Name = ZINCrH00000No4v0.0
REMARK                            x       y       z     vdW  Elec       q    Type
REMARK                         _______ _______ _______ _____ _____    ______ ____
ROOT
ATOM      1  C   LIG    1       -1.432   7.355   0.226  0.00  0.00    -0.440 C 
ATOM      2  C   LIG    1       -1.281   5.969   0.257  0.00  0.00    +0.480 C 
ATOM      3  O   LIG    1       -2.464   5.363   0.116  0.00  0.00    -0.210 OA
ATOM      4  C   LIG    1       -3.470   6.259  -0.022  0.00  0.00    -0.040 C 
ATOM      5  C   LIG    1       -4.785   5.973  -0.184  0.00  0.00    +0.170 C 
ATOM      6  C   LIG    1       -2.869   7.603   0.035  0.00  0.00    +0.430 C 
ATOM      7  O   LIG    1       -3.436   8.679  -0.050  0.00  0.00    -0.410 OA
ENDROOT
BRANCH   5   8
ATOM      8  C   LIG    1       -5.267   4.599   0.007  0.00  0.00    -0.080 A 
ATOM      9  C   LIG    1       -4.490   3.673   0.712  0.00  0.00    +0.040 A 
ATOM     10  C   LIG    1       -4.950   2.383   0.887  0.00  0.00    +0.090 A 
ATOM     11  C   LIG    1       -6.179   2.004   0.368  0.00  0.00    +0.040 A 
ATOM     12  C   LIG    1       -6.954   2.913  -0.330  0.00  0.00    +0.040 A 
ATOM     13  F   LIG    1       -4.201   1.487   1.567  0.00  0.00    -0.130 F 
ATOM     14  C   LIG    1       -6.510   4.209  -0.510  0.00  0.00    +0.120 A 
ATOM     15  F   LIG    1       -7.271   5.097  -1.187  0.00  0.00    -0.120 F 
ENDBRANCH   5   8
BRANCH   1  16
ATOM     16  C   LIG    1       -0.376   8.359   0.352  0.00  0.00    +0.560 C 
ATOM     17  O   LIG    1        0.780   8.010   0.504  0.00  0.00    -0.540 OA
BRANCH  16  18
ATOM     18  O   LIG    1       -0.682   9.671   0.301  0.00  0.00    -0.340 OA
BRANCH  18  20
ATOM     19  C   LIG    1       -0.122  12.040   0.353  0.00  0.00    +0.070 C 
ATOM     20  C   LIG    1        0.416  10.611   0.434  0.00  0.00    +0.200 C 
ENDBRANCH  18  20
ENDBRANCH  16  18
ENDBRANCH   1  16
BRANCH   2  21
ATOM     21  N   LIG    1       -0.090   5.321   0.416  0.00  0.00    -0.590 N 
ATOM     22  H   LIG    1        0.716   5.827   0.599  0.00  0.00    +0.450 HD
BRANCH  21  23
ATOM     23  C   LIG    1       -0.034   3.928   0.314  0.00  0.00    +0.130 A 
ATOM     24  C   LIG    1        1.195   3.281   0.293  0.00  0.00    -0.010 A 
ATOM     25  C   LIG    1        1.248   1.904   0.192  0.00  0.00    +0.040 A 
ATOM     26  C   LIG    1        0.078   1.171   0.111  0.00  0.00    +0.000 A 
ATOM     27  C   LIG    1       -1.147   1.812   0.125  0.00  0.00    +0.050 A 
ATOM     28  C   LIG    1       -1.206   3.188   0.232  0.00  0.00    -0.020 A 
ENDBRANCH  21  23
ENDBRANCH   2  21
TORSDOF 6
