REMARK  Name = ZINCvU0000000BYE.0
REMARK                            x       y       z     vdW  Elec       q    Type
REMARK                         _______ _______ _______ _____ _____    ______ ____
ROOT
ATOM      1  C   LIG    1        8.380  -0.560  -0.336  0.00  0.00    +0.090 A 
ATOM      2  C   LIG    1        7.727   0.655  -0.220  0.00  0.00    -0.030 A 
ATOM      3  C   LIG    1        6.349   0.695  -0.116  0.00  0.00    +0.060 A 
ATOM      4  C   LIG    1        5.616  -0.485  -0.127  0.00  0.00    +0.130 A 
ATOM      5  C   LIG    1        6.267  -1.706  -0.236  0.00  0.00    +0.040 A 
ATOM      6  C   LIG    1        7.648  -1.746  -0.347  0.00  0.00    +0.130 A 
ENDROOT
BRANCH   4   7
ATOM      7  N   LIG    1        4.221  -0.442  -0.020  0.00  0.00    -0.670 N 
ATOM      8  H   LIG    1        3.749  -1.140   0.462  0.00  0.00    +0.410 HD
ATOM      9  C   LIG    1        3.532   0.568  -0.588  0.00  0.00    +0.600 C 
ATOM     10  O   LIG    1        4.127   1.485  -1.121  0.00  0.00    -0.530 OA
BRANCH   9  11
ATOM     11  C   LIG    1        2.058   0.561  -0.563  0.00  0.00    -0.310 A 
ATOM     12  C   LIG    1        1.225   1.521  -1.100  0.00  0.00    +0.170 A 
ATOM     13  N   LIG    1       -0.039   1.135  -0.862  0.00  0.00    -0.350 N 
ATOM     14  N   LIG    1       -0.009  -0.079  -0.168  0.00  0.00    -0.290 NA
ATOM     15  C   LIG    1        1.654   2.773  -1.821  0.00  0.00    +0.170 C 
ATOM     16  C   LIG    1        1.234  -0.431   0.015  0.00  0.00    +0.270 A 
BRANCH  13  17
ATOM     17  C   LIG    1       -1.246   1.861  -1.266  0.00  0.00    +0.260 C 
ATOM     18  C   LIG    1       -2.065   2.219  -0.024  0.00  0.00    +0.050 C 
ATOM     19  C   LIG    1       -2.085   0.979  -2.193  0.00  0.00    +0.050 C 
ENDBRANCH  13  17
ENDBRANCH   9  11
ENDBRANCH   4   7
BRANCH   6  20
ATOM     20  N   LIG    1        8.307  -2.976  -0.463  0.00  0.00    -0.650 N 
ATOM     21  H   LIG    1        9.180  -3.099  -0.058  0.00  0.00    +0.410 HD
ATOM     22  C   LIG    1        7.729  -3.989  -1.138  0.00  0.00    +0.560 C 
ATOM     23  O   LIG    1        6.602  -3.863  -1.575  0.00  0.00    -0.500 OA
BRANCH  22  24
ATOM     24  C   LIG    1        8.465  -5.252  -1.347  0.00  0.00    -0.170 A 
ATOM     25  C   LIG    1        9.763  -5.398  -0.852  0.00  0.00    +0.110 A 
ATOM     26  C   LIG    1       10.443  -6.581  -1.045  0.00  0.00    +0.020 A 
ATOM     27  C   LIG    1        9.847  -7.622  -1.740  0.00  0.00    +0.020 A 
ATOM     28  C   LIG    1        8.564  -7.484  -2.239  0.00  0.00    +0.000 A 
ATOM     29 CL   LIG    1       10.715  -9.105  -1.984  0.00  0.00    -0.040 Cl
ATOM     30  C   LIG    1        7.868  -6.305  -2.048  0.00  0.00    +0.180 A 
ATOM     31  F   LIG    1        6.616  -6.171  -2.536  0.00  0.00    -0.100 F 
ENDBRANCH  22  24
ENDBRANCH   6  20
BRANCH   1  33
ATOM     32  C   LIG    1       10.423   0.657  -0.419  0.00  0.00    +0.250 C 
ATOM     33  O   LIG    1        9.737  -0.597  -0.438  0.00  0.00    -0.320 OA
ENDBRANCH   1  33
TORSDOF 6
