REMARK  Name = ZINCrD000000C0L7.0
REMARK                            x       y       z     vdW  Elec       q    Type
REMARK                         _______ _______ _______ _____ _____    ______ ____
ROOT
ATOM      1  O   LIG    1        0.486   7.744  -2.851  0.00  0.00    -0.570 OA
ATOM      2  C   LIG    1       -0.290   8.162  -2.014  0.00  0.00    +0.710 C 
ATOM      3  N   LIG    1       -0.712   7.352  -1.022  0.00  0.00    -0.620 N 
ATOM      4  C   LIG    1       -1.560   7.872   0.059  0.00  0.00    +0.270 C 
ATOM      5  C   LIG    1       -0.910   7.528   1.403  0.00  0.00    +0.010 C 
ATOM      6  C   LIG    1       -0.658   6.020   1.472  0.00  0.00    +0.030 C 
ATOM      7  C   LIG    1        0.302   5.610   0.352  0.00  0.00    +0.020 C 
ATOM      8  C   LIG    1       -0.334   5.933  -1.003  0.00  0.00    +0.310 C 
ATOM      9  N   LIG    1       -0.730   9.434  -2.077  0.00  0.00    -0.670 N 
ATOM     10  H   LIG    1       -1.283   9.793  -1.366  0.00  0.00    +0.410 HD
ENDROOT
BRANCH   7  11
ATOM     11  C   LIG    1        0.576   4.131   0.441  0.00  0.00    -0.080 A 
ATOM     12  C   LIG    1        1.868   3.676   0.628  0.00  0.00    +0.010 A 
ATOM     13  C   LIG    1        2.118   2.320   0.710  0.00  0.00    +0.000 A 
ATOM     14  C   LIG    1        1.077   1.417   0.603  0.00  0.00    +0.000 A 
ATOM     15  C   LIG    1       -0.214   1.871   0.410  0.00  0.00    +0.000 A 
ATOM     16  C   LIG    1       -0.466   3.228   0.334  0.00  0.00    +0.010 A 
ENDBRANCH   7  11
BRANCH   9  17
ATOM     17  C   LIG    1       -0.388  10.237  -3.167  0.00  0.00    +0.350 A 
ATOM     18  C   LIG    1        0.072   9.646  -4.338  0.00  0.00    +0.010 A 
ATOM     19  C   LIG    1        0.407  10.451  -5.413  0.00  0.00    +0.070 A 
ATOM     20  C   LIG    1        0.270  11.831  -5.278  0.00  0.00    +0.030 A 
ATOM     21  C   LIG    1       -0.196  12.349  -4.078  0.00  0.00    +0.240 A 
ATOM     22  N   LIG    1       -0.511  11.552  -3.076  0.00  0.00    -0.500 NA
BRANCH  20  23
ATOM     23  N   LIG    1        0.598  12.683  -6.338  0.00  0.00    -0.480 N 
ATOM     24  C   LIG    1        1.985  12.472  -6.775  0.00  0.00    +0.160 C 
ATOM     25  C   LIG    1        2.282  13.379  -7.971  0.00  0.00    +0.220 C 
ATOM     26  O   LIG    1        2.031  14.739  -7.607  0.00  0.00    -0.380 OA
ATOM     27  C   LIG    1        0.688  14.980  -7.177  0.00  0.00    +0.220 C 
ATOM     28  C   LIG    1        0.375  14.089  -5.972  0.00  0.00    +0.170 C 
ENDBRANCH  20  23
ENDBRANCH   9  17
TORSDOF 3
