REMARK  Name = ZINCrD0000075uGi.0
REMARK                            x       y       z     vdW  Elec       q    Type
REMARK                         _______ _______ _______ _____ _____    ______ ____
ROOT
ATOM      1  O   LIG    1        4.460   2.235  -1.653  0.00  0.00    -0.530 OA
ATOM      2  C   LIG    1        3.971   1.304  -1.049  0.00  0.00    +0.520 C 
ATOM      3  N   LIG    1        3.925   0.083  -1.617  0.00  0.00    -0.710 N 
ATOM      4  H   LIG    1        3.603  -0.677  -1.107  0.00  0.00    +0.400 HD
ENDROOT
BRANCH   3   5
ATOM      5  C   LIG    1        4.361  -0.098  -3.003  0.00  0.00    +0.280 C 
BRANCH   5   6
ATOM      6  C   LIG    1        5.844  -0.366  -3.032  0.00  0.00    -0.100 A 
ATOM      7  C   LIG    1        6.418  -1.178  -2.072  0.00  0.00    +0.020 A 
ATOM      8  C   LIG    1        7.777  -1.428  -2.101  0.00  0.00    +0.000 A 
ATOM      9  C   LIG    1        8.564  -0.859  -3.085  0.00  0.00    +0.010 A 
ATOM     10  C   LIG    1        7.990  -0.043  -4.042  0.00  0.00    +0.010 A 
ATOM     11  C   LIG    1        6.631   0.204  -4.016  0.00  0.00    +0.020 A 
ENDBRANCH   5   6
BRANCH   5  12
ATOM     12  C   LIG    1        3.616  -1.282  -3.623  0.00  0.00    +0.350 C 
BRANCH  12  13
ATOM     13  N   LIG    1        2.185  -0.978  -3.687  0.00  0.00    -0.380 N 
ATOM     14  C   LIG    1        1.403  -1.008  -4.781  0.00  0.00    +0.480 A 
ATOM     15  N   LIG    1        0.190  -0.676  -4.422  0.00  0.00    -0.540 NA
ATOM     16  C   LIG    1        0.159  -0.422  -3.115  0.00  0.00    +0.420 A 
ATOM     17  N   LIG    1        1.357  -0.593  -2.620  0.00  0.00    -0.310 NA
ENDBRANCH  12  13
ENDBRANCH   5  12
ENDBRANCH   3   5
BRANCH   2  18
ATOM     18  C   LIG    1        3.414   1.514   0.335  0.00  0.00    +0.110 C 
BRANCH  18  19
ATOM     19  C   LIG    1        3.587   2.957   0.734  0.00  0.00    -0.030 A 
ATOM     20  C   LIG    1        2.596   3.877   0.447  0.00  0.00    +0.020 A 
ATOM     21  C   LIG    1        2.758   5.202   0.807  0.00  0.00    +0.070 A 
ATOM     22  C   LIG    1        3.906   5.604   1.464  0.00  0.00    -0.180 A 
ATOM     23  C   LIG    1        4.897   4.684   1.751  0.00  0.00    +0.070 A 
ATOM     24  C   LIG    1        4.737   3.360   1.386  0.00  0.00    +0.020 A 
BRANCH  22  25
ATOM     25  C   LIG    1        4.080   7.047   1.862  0.00  0.00    +0.510 C 
ATOM     26  F   LIG    1        4.870   7.121   3.014  0.00  0.00    -0.180 F 
ATOM     27  F   LIG    1        2.827   7.614   2.118  0.00  0.00    -0.180 F 
ATOM     28  F   LIG    1        4.704   7.745   0.823  0.00  0.00    -0.180 F 
ENDBRANCH  22  25
ENDBRANCH  18  19
ENDBRANCH   2  18
TORSDOF 7
