REMARK  Name = ZINCpe000000WQIe.0
REMARK                            x       y       z     vdW  Elec       q    Type
REMARK                         _______ _______ _______ _____ _____    ______ ____
ROOT
ATOM      1  N   LIG    1        0.042  -0.135   0.004  0.00  0.00    -0.730 N 
ATOM      2  H   LIG    1       -0.773  -0.655   0.077  0.00  0.00    +0.400 HD
ATOM      3  C   LIG    1       -0.014   1.212   0.009  0.00  0.00    +0.720 C 
ATOM      4  N   LIG    1       -1.209   1.836   0.018  0.00  0.00    -0.630 N 
ATOM      5  C   LIG    1       -1.289   3.300  -0.075  0.00  0.00    +0.310 C 
ATOM      6  C   LIG    1       -2.227   3.665  -1.236  0.00  0.00    +0.060 C 
ATOM      7  C   LIG    1       -3.577   2.974  -1.031  0.00  0.00    -0.450 C 
ATOM      8  C   LIG    1       -3.380   1.456  -1.030  0.00  0.00    +0.060 C 
ATOM      9  C   LIG    1       -2.455   1.066   0.128  0.00  0.00    +0.290 C 
ATOM     10  O   LIG    1        1.012   1.863   0.010  0.00  0.00    -0.590 OA
ENDROOT
BRANCH   7  11
ATOM     11  S   LIG    1       -4.703   3.437  -2.375  0.00  0.00    +2.620 S 
ATOM     12  O   LIG    1       -6.038   3.069  -2.055  0.00  0.00    -0.950 OA
ATOM     13  O   LIG    1       -4.135   3.110  -3.636  0.00  0.00    -0.950 OA
BRANCH  11  14
ATOM     14  N   LIG    1       -4.718   5.092  -2.350  0.00  0.00    -1.010 NA
ATOM     15  C   LIG    1       -5.649   5.929  -1.579  0.00  0.00    +0.260 C 
ATOM     16  C   LIG    1       -5.303   7.401  -1.884  0.00  0.00    +0.030 C 
ATOM     17  C   LIG    1       -4.574   7.308  -3.251  0.00  0.00    +0.030 C 
ATOM     18  C   LIG    1       -3.805   5.971  -3.102  0.00  0.00    +0.270 C 
ENDBRANCH  11  14
ENDBRANCH   7  11
BRANCH   1  20
ATOM     19  C   LIG    1        1.972  -0.938   1.274  0.00  0.00    +0.040 C 
ATOM     20  C   LIG    1        1.335  -0.813  -0.112  0.00  0.00    +0.240 C 
BRANCH  20  21
ATOM     21  C   LIG    1        1.128  -2.208  -0.706  0.00  0.00    +0.320 C 
BRANCH  21  22
ATOM     22  N   LIG    1        0.630  -2.086  -2.078  0.00  0.00    -0.380 N 
ATOM     23  C   LIG    1        1.189  -2.635  -3.177  0.00  0.00    +0.220 A 
ATOM     24  C   LIG    1        0.428  -2.291  -4.242  0.00  0.00    -0.120 A 
ATOM     25  C   LIG    1       -0.627  -1.498  -3.779  0.00  0.00    +0.230 A 
ATOM     26  N   LIG    1       -0.507  -1.375  -2.482  0.00  0.00    -0.290 NA
ENDBRANCH  21  22
ENDBRANCH  20  21
ENDBRANCH   1  20
TORSDOF 5
