REMARK  Name = ZINCkj000005jWpT.1
REMARK                            x       y       z     vdW  Elec       q    Type
REMARK                         _______ _______ _______ _____ _____    ______ ____
ROOT
ATOM      1  C   LIG    1       -0.193  -0.525  -2.332  0.00  0.00    +0.090 C 
ATOM      2  C   LIG    1       -0.107   1.002  -2.388  0.00  0.00    +0.140 C 
ATOM      3  C   LIG    1       -0.849   1.510  -3.627  0.00  0.00    +0.270 C 
ATOM      4  O   LIG    1       -0.813   2.940  -3.644  0.00  0.00    -0.340 OA
ATOM      5  C   LIG    1       -1.381   3.543  -2.478  0.00  0.00    +0.230 C 
ATOM      6  C   LIG    1       -0.640   3.038  -1.237  0.00  0.00    +0.250 C 
ATOM      7  N   LIG    1       -0.723   1.572  -1.182  0.00  0.00    -0.390 N 
ATOM      8  H   LIG    1       -1.691   1.292  -1.134  0.00  0.00    +0.420 HD
ENDROOT
BRANCH   5   9
ATOM      9  C   LIG    1       -2.860   3.167  -2.377  0.00  0.00    +0.150 C 
BRANCH   9  10
ATOM     10  O   LIG    1       -3.572   3.733  -3.480  0.00  0.00    -0.550 OA
ATOM     11  H   LIG    1       -4.518   3.535  -3.481  0.00  0.00    +0.400 HD
ENDBRANCH   9  10
ENDBRANCH   5   9
BRANCH   7  12
ATOM     12  C   LIG    1       -0.013   1.086   0.008  0.00  0.00    +0.320 C 
BRANCH  12  13
ATOM     13  C   LIG    1       -0.718   1.572   1.248  0.00  0.00    -0.160 A 
ATOM     14  C   LIG    1       -0.228   2.665   1.934  0.00  0.00    +0.050 A 
ATOM     15  C   LIG    1       -0.878   3.115   3.068  0.00  0.00    +0.030 A 
ATOM     16  C   LIG    1       -2.007   2.460   3.519  0.00  0.00    +0.060 A 
ATOM     17  C   LIG    1       -2.496   1.358   2.835  0.00  0.00    -0.110 A 
ATOM     18  C   LIG    1       -3.728   0.667   3.361  0.00  0.00    +0.290 C 
ATOM     19  O   LIG    1       -4.287  -0.179   2.358  0.00  0.00    -0.370 OA
ATOM     20  C   LIG    1       -3.331  -1.079   1.784  0.00  0.00    +0.240 C 
ATOM     21  C   LIG    1       -2.362  -0.271   0.920  0.00  0.00    +0.040 C 
ATOM     22  C   LIG    1       -1.853   0.916   1.698  0.00  0.00    -0.060 A 
ENDBRANCH  12  13
ENDBRANCH   7  12
TORSDOF 4
