REMARK  Name = ZINCkj000005jWpT.2
REMARK                            x       y       z     vdW  Elec       q    Type
REMARK                         _______ _______ _______ _____ _____    ______ ____
ROOT
ATOM      1  C   LIG    1       -2.370   4.724  -0.786  0.00  0.00    +0.100 C 
ATOM      2  C   LIG    1       -1.436   5.481   0.160  0.00  0.00    +0.140 C 
ATOM      3  C   LIG    1       -2.196   5.862   1.433  0.00  0.00    +0.260 C 
ATOM      4  O   LIG    1       -2.620   4.672   2.103  0.00  0.00    -0.340 OA
ATOM      5  C   LIG    1       -1.546   3.792   2.445  0.00  0.00    +0.160 C 
ATOM      6  C   LIG    1       -0.784   3.408   1.175  0.00  0.00    +0.230 C 
ATOM      7  N   LIG    1       -0.295   4.625   0.512  0.00  0.00    -0.380 N 
ATOM      8  H   LIG    1        0.320   5.124   1.136  0.00  0.00    +0.420 HD
ENDROOT
BRANCH   5   9
ATOM      9  C   LIG    1       -2.108   2.532   3.106  0.00  0.00    +0.230 C 
BRANCH   9  10
ATOM     10  O   LIG    1       -2.723   2.878   4.348  0.00  0.00    -0.560 OA
ATOM     11  H   LIG    1       -3.102   2.126   4.823  0.00  0.00    +0.400 HD
ENDBRANCH   9  10
ENDBRANCH   5   9
BRANCH   7  12
ATOM     12  C   LIG    1        0.436   4.258  -0.708  0.00  0.00    +0.320 C 
BRANCH  12  13
ATOM     13  C   LIG    1        1.689   3.507  -0.336  0.00  0.00    -0.160 A 
ATOM     14  C   LIG    1        1.714   2.129  -0.414  0.00  0.00    +0.040 A 
ATOM     15  C   LIG    1        2.863   1.441  -0.073  0.00  0.00    +0.030 A 
ATOM     16  C   LIG    1        3.981   2.133   0.346  0.00  0.00    +0.060 A 
ATOM     17  C   LIG    1        3.958   3.517   0.426  0.00  0.00    -0.110 A 
ATOM     18  C   LIG    1        5.197   4.237   0.891  0.00  0.00    +0.290 C 
ATOM     19  O   LIG    1        5.115   5.624   0.565  0.00  0.00    -0.360 OA
ATOM     20  C   LIG    1        3.899   6.236   1.010  0.00  0.00    +0.220 C 
ATOM     21  C   LIG    1        2.749   5.708   0.151  0.00  0.00    +0.040 C 
ATOM     22  C   LIG    1        2.812   4.204   0.083  0.00  0.00    -0.050 A 
ENDBRANCH  12  13
ENDBRANCH   7  12
TORSDOF 4
