REMARK  Name = ZINCrH000004lLr9.0
REMARK                            x       y       z     vdW  Elec       q    Type
REMARK                         _______ _______ _______ _____ _____    ______ ____
ROOT
ATOM      1  C   LIG    1        1.235   2.204  -0.020  0.00  0.00    +0.500 C 
ATOM      2  N   LIG    1        0.353   1.185   0.022  0.00  0.00    -0.570 N 
ATOM      3  O   LIG    1        2.424   1.974  -0.075  0.00  0.00    -0.490 OA
ENDROOT
BRANCH   2   4
ATOM      4  C   LIG    1        0.802  -0.136  -0.110  0.00  0.00    +0.160 A 
ATOM      5  C   LIG    1        1.169  -0.860   1.016  0.00  0.00    +0.070 A 
ATOM      6  C   LIG    1        1.607  -2.168   0.885  0.00  0.00    +0.050 A 
ATOM      7  C   LIG    1        1.690  -2.750  -0.377  0.00  0.00    +0.050 A 
ATOM      8  O   LIG    1        2.150  -4.028  -0.238  0.00  0.00    -0.300 OA
ATOM      9  C   LIG    1        1.959  -4.357   1.151  0.00  0.00    +0.440 C 
ATOM     10  C   LIG    1        1.328  -2.022  -1.500  0.00  0.00    +0.060 A 
ATOM     11  O   LIG    1        2.015  -3.081   1.815  0.00  0.00    -0.300 OA
ATOM     12  C   LIG    1        0.885  -0.719  -1.368  0.00  0.00    -0.020 A 
ATOM     13 CL   LIG    1        0.433   0.189  -2.777  0.00  0.00    -0.040 Cl
ENDBRANCH   2   4
BRANCH   2  14
ATOM     14  C   LIG    1       -1.075   1.459   0.199  0.00  0.00    +0.230 C 
ATOM     15  C   LIG    1       -1.537   0.905   1.548  0.00  0.00    +0.010 C 
ATOM     16  C   LIG    1       -3.029   1.192   1.733  0.00  0.00    +0.010 C 
ATOM     17  C   LIG    1       -3.820   0.521   0.608  0.00  0.00    +0.010 C 
ATOM     18  C   LIG    1       -3.358   1.075  -0.741  0.00  0.00    +0.020 C 
ATOM     19  C   LIG    1       -1.866   0.788  -0.926  0.00  0.00    +0.010 C 
ENDBRANCH   2  14
BRANCH   1  20
ATOM     20  C   LIG    1        0.742   3.628   0.003  0.00  0.00    +0.180 C 
BRANCH  20  21
ATOM     21  C   LIG    1        0.518   4.112  -1.431  0.00  0.00    -0.020 C 
ATOM     22  C   LIG    1        0.157   5.617  -1.456  0.00  0.00    +0.030 C 
ATOM     23  C   LIG    1       -0.957   5.721  -2.516  0.00  0.00    +0.190 C 
ATOM     24  O   LIG    1       -1.152   4.405  -3.061  0.00  0.00    -0.370 OA
ATOM     25  C   LIG    1       -0.750   3.464  -2.043  0.00  0.00    +0.210 C 
ENDBRANCH  20  21
BRANCH  20  27
ATOM     26  C   LIG    1        1.539   4.580   2.053  0.00  0.00    +0.210 C 
ATOM     27  O   LIG    1        1.715   4.458   0.640  0.00  0.00    -0.350 OA
ENDBRANCH  20  27
ENDBRANCH   1  20
TORSDOF 5
