REMARK  Name = ZINCqH0000038FyG.0
REMARK                            x       y       z     vdW  Elec       q    Type
REMARK                         _______ _______ _______ _____ _____    ______ ____
ROOT
ATOM      1  C   LIG    1        0.096   5.543   4.515  0.00  0.00    +0.150 C 
ATOM      2  C   LIG    1       -0.243   6.127   3.168  0.00  0.00    +0.250 A 
ATOM      3  C   LIG    1       -0.547   5.268   2.104  0.00  0.00    -0.230 A 
ATOM      4  C   LIG    1       -0.866   5.813   0.859  0.00  0.00    +0.190 A 
ATOM      5  C   LIG    1       -0.860   7.203   0.733  0.00  0.00    -0.240 A 
ATOM      6  C   LIG    1       -1.129   8.125  -0.367  0.00  0.00    +0.290 A 
ATOM      7  N   LIG    1       -0.973   9.335   0.087  0.00  0.00    -0.230 NA
ATOM      8  N   LIG    1       -0.612   9.300   1.437  0.00  0.00    -0.380 N 
ATOM      9  C   LIG    1       -0.537   8.000   1.851  0.00  0.00    +0.340 A 
ATOM     10  N   LIG    1       -0.241   7.431   3.015  0.00  0.00    -0.500 NA
ENDROOT
BRANCH   3  11
ATOM     11  C   LIG    1       -0.537   3.804   2.299  0.00  0.00    +0.580 C 
ATOM     12  N   LIG    1       -1.633   3.077   2.002  0.00  0.00    -0.550 N 
ATOM     13  C   LIG    1       -1.612   1.674   2.062  0.00  0.00    +0.080 A 
ATOM     14  C   LIG    1       -0.405   1.000   2.151  0.00  0.00    +0.050 A 
ATOM     15  C   LIG    1       -0.390  -0.381   2.217  0.00  0.00    +0.000 A 
ATOM     16  C   LIG    1       -1.578  -1.088   2.194  0.00  0.00    +0.030 A 
ATOM     17  C   LIG    1       -2.785  -0.421   2.104  0.00  0.00    +0.000 A 
ATOM     18  C   LIG    1       -2.810   0.964   2.036  0.00  0.00    +0.090 A 
ATOM     19  O   LIG    1       -4.001   1.612   1.944  0.00  0.00    -0.310 OA
ATOM     20  C   LIG    1       -4.039   2.992   2.314  0.00  0.00    +0.240 C 
ATOM     21  C   LIG    1       -2.893   3.729   1.605  0.00  0.00    +0.200 C 
ATOM     22  C   LIG    1       -3.071   3.629   0.089  0.00  0.00    +0.050 C 
ATOM     23  O   LIG    1        0.459   3.255   2.727  0.00  0.00    -0.500 OA
ENDBRANCH   3  11
BRANCH   8  24
ATOM     24  C   LIG    1       -0.352  10.473   2.275  0.00  0.00    +0.270 C 
ATOM     25  C   LIG    1       -1.607  11.348   2.330  0.00  0.00    +0.050 C 
ATOM     26  C   LIG    1        0.805  11.278   1.682  0.00  0.00    +0.050 C 
ENDBRANCH   8  24
TORSDOF 2
