REMARK  Name = ZINCrH000004qXK5.0
REMARK                            x       y       z     vdW  Elec       q    Type
REMARK                         _______ _______ _______ _____ _____    ______ ____
ROOT
ATOM      1  C   LIG    1        5.599   6.586   1.223  0.00  0.00    +0.090 C 
ATOM      2  C   LIG    1        4.506   5.779   0.571  0.00  0.00    -0.110 A 
ATOM      3  C   LIG    1        4.586   4.400   0.552  0.00  0.00    +0.040 A 
ATOM      4  C   LIG    1        3.587   3.655  -0.044  0.00  0.00    +0.010 A 
ATOM      5  C   LIG    1        2.495   4.293  -0.628  0.00  0.00    -0.030 A 
ATOM      6  C   LIG    1        2.417   5.683  -0.614  0.00  0.00    +0.050 A 
ATOM      7  C   LIG    1        3.421   6.424  -0.010  0.00  0.00    +0.170 A 
ENDROOT
BRANCH   7   8
ATOM      8  N   LIG    1        3.344   7.822   0.011  0.00  0.00    -0.680 N 
ATOM      9  H   LIG    1        4.153   8.351   0.089  0.00  0.00    +0.410 HD
ATOM     10  C   LIG    1        2.146   8.432  -0.077  0.00  0.00    +0.710 C 
ATOM     11  N   LIG    1        2.079   9.776  -0.172  0.00  0.00    -0.630 N 
ATOM     12  C   LIG    1        3.293  10.579  -0.189  0.00  0.00    +0.260 C 
ATOM     13  C   LIG    1        3.855  10.913   1.167  0.00  0.00    +0.050 C 
ATOM     14  C   LIG    1        3.008  11.794   2.050  0.00  0.00    -0.250 C 
ATOM     15  C   LIG    1        2.634  13.042   1.216  0.00  0.00    +0.030 C 
ATOM     16  C   LIG    1        1.387  12.810   0.378  0.00  0.00    +0.030 C 
ATOM     17  C   LIG    1        0.612  11.555   0.774  0.00  0.00    -0.280 C 
ATOM     18  S   LIG    1        1.395  10.967   2.323  0.00  0.00    +1.230 S 
ATOM     19  O   LIG    1        0.740  11.555   3.440  0.00  0.00    -0.850 OA
ATOM     20  C   LIG    1        0.760  10.457  -0.270  0.00  0.00    +0.350 C 
ATOM     21  O   LIG    1        1.125   7.771  -0.071  0.00  0.00    -0.560 OA
ENDBRANCH   7   8
BRANCH   5  22
ATOM     22  C   LIG    1        1.421   3.494  -1.268  0.00  0.00    -0.060 A 
ATOM     23  C   LIG    1        0.325   4.123  -1.854  0.00  0.00    +0.270 A 
ATOM     24  N   LIG    1       -0.630   3.416  -2.422  0.00  0.00    -0.450 NA
ATOM     25  C   LIG    1       -0.590   2.099  -2.466  0.00  0.00    +0.240 A 
ATOM     26  C   LIG    1        0.464   1.398  -1.901  0.00  0.00    +0.050 A 
ATOM     27  F   LIG    1        0.491   0.048  -1.949  0.00  0.00    -0.130 F 
ATOM     28  C   LIG    1        1.493   2.099  -1.292  0.00  0.00    +0.040 A 
ENDBRANCH   5  22
TORSDOF 2
