REMARK  Name = ZINCqH0000001jCy.0
REMARK                            x       y       z     vdW  Elec       q    Type
REMARK                         _______ _______ _______ _____ _____    ______ ____
ROOT
ATOM      1  N   LIG    1       -0.134   1.218  -2.890  0.00  0.00    -0.720 N 
ATOM      2  H   LIG    1        0.535   1.559  -3.504  0.00  0.00    +0.400 HD
ATOM      3  C   LIG    1       -1.017   2.060  -2.318  0.00  0.00    +0.520 C 
ATOM      4  O   LIG    1       -1.797   1.648  -1.486  0.00  0.00    -0.530 OA
ENDROOT
BRANCH   1   5
ATOM      5  C   LIG    1       -0.184  -0.214  -2.584  0.00  0.00    +0.280 C 
BRANCH   5   6
ATOM      6  C   LIG    1        0.352  -0.997  -3.755  0.00  0.00    -0.090 A 
ATOM      7  C   LIG    1        1.452  -0.532  -4.452  0.00  0.00    +0.000 A 
ATOM      8  C   LIG    1        1.946  -1.252  -5.523  0.00  0.00    +0.000 A 
ATOM      9  C   LIG    1        1.336  -2.433  -5.903  0.00  0.00    +0.000 A 
ATOM     10  C   LIG    1        0.233  -2.895  -5.209  0.00  0.00    +0.020 A 
ATOM     11  C   LIG    1       -0.259  -2.177  -4.136  0.00  0.00    +0.010 A 
ENDBRANCH   5   6
BRANCH   5  12
ATOM     12  C   LIG    1        0.667  -0.502  -1.346  0.00  0.00    +0.020 C 
BRANCH  12  14
ATOM     13  C   LIG    1       -0.938  -2.221  -0.502  0.00  0.00    +0.020 C 
ATOM     14  C   LIG    1        0.505  -1.969  -0.945  0.00  0.00    -0.030 C 
ATOM     15  C   LIG    1        1.456  -2.291   0.209  0.00  0.00    +0.010 C 
ENDBRANCH  12  14
ENDBRANCH   5  12
ENDBRANCH   1   5
BRANCH   3  16
ATOM     16  C   LIG    1       -1.034   3.515  -2.711  0.00  0.00    +0.040 C 
BRANCH  16  17
ATOM     17  C   LIG    1       -2.121   4.245  -1.920  0.00  0.00    +0.330 C 
BRANCH  17  18
ATOM     18  N   LIG    1       -2.137   5.659  -2.302  0.00  0.00    -0.530 N 
ATOM     19  C   LIG    1       -1.370   6.551  -1.625  0.00  0.00    +0.600 A 
ATOM     20  N   LIG    1       -1.349   7.813  -1.935  0.00  0.00    -0.500 NA
ATOM     21  C   LIG    1       -2.101   8.309  -2.940  0.00  0.00    +0.070 A 
ATOM     22  C   LIG    1       -2.917   7.453  -3.675  0.00  0.00    -0.230 A 
ATOM     23  C   LIG    1       -3.650   8.152  -4.711  0.00  0.00    +0.080 A 
ATOM     24  C   LIG    1       -3.418   9.450  -4.773  0.00  0.00    -0.050 A 
ATOM     25  S   LIG    1       -2.264   9.950  -3.552  0.00  0.00    +0.200 S 
ATOM     26  C   LIG    1       -2.919   6.068  -3.321  0.00  0.00    +0.560 A 
ATOM     27  O   LIG    1       -3.613   5.272  -3.930  0.00  0.00    -0.520 OA
ENDBRANCH  17  18
ENDBRANCH  16  17
ENDBRANCH   3  16
TORSDOF 7
