REMARK  Name = ZINCvU0000000E8p.0
REMARK                            x       y       z     vdW  Elec       q    Type
REMARK                         _______ _______ _______ _____ _____    ______ ____
ROOT
ATOM      1  C   LIG    1       -0.729  -7.505  -0.032  0.00  0.00    +0.290 A 
ATOM      2  N   LIG    1       -1.312  -7.963   1.038  0.00  0.00    -0.490 NA
ATOM      3  C   LIG    1       -2.367  -8.742   0.685  0.00  0.00    +0.050 A 
ATOM      4  C   LIG    1       -3.317  -9.463   1.412  0.00  0.00    +0.070 A 
ATOM      5  C   LIG    1       -4.280 -10.176   0.755  0.00  0.00    +0.000 A 
ATOM      6  C   LIG    1       -4.325 -10.193  -0.632  0.00  0.00    +0.030 A 
ATOM      7  C   LIG    1       -3.398  -9.488  -1.370  0.00  0.00    +0.010 A 
ATOM      8  C   LIG    1       -2.413  -8.758  -0.719  0.00  0.00    +0.050 A 
ATOM      9  N   LIG    1       -1.364  -7.967  -1.144  0.00  0.00    -0.490 N 
ENDROOT
BRANCH   1  10
ATOM     10  C   LIG    1        0.476  -6.602  -0.039  0.00  0.00    +0.160 C 
BRANCH  10  11
ATOM     11  C   LIG    1        0.019  -5.142  -0.026  0.00  0.00    +0.020 C 
BRANCH  11  12
ATOM     12  C   LIG    1        1.244  -4.224  -0.033  0.00  0.00    +0.280 C 
BRANCH  12  15
ATOM     13  O   LIG    1        2.906  -2.100  -0.038  0.00  0.00    -0.520 OA
ATOM     14  C   LIG    1        1.719  -1.834  -0.025  0.00  0.00    +0.610 C 
ATOM     15  N   LIG    1        0.806  -2.826  -0.021  0.00  0.00    -0.720 N 
ATOM     16  H   LIG    1       -0.140  -2.614  -0.011  0.00  0.00    +0.410 HD
BRANCH  14  17
ATOM     17  C   LIG    1        1.281  -0.434  -0.013  0.00  0.00    -0.090 A 
ATOM     18  C   LIG    1        2.095   0.661  -0.014  0.00  0.00    +0.050 A 
ATOM     19  C   LIG    1        1.257   1.787  -0.000  0.00  0.00    -0.060 A 
ATOM     20  C   LIG    1       -0.016   1.335   0.009  0.00  0.00    +0.210 A 
ATOM     21  O   LIG    1        0.002  -0.004   0.002  0.00  0.00    -0.170 OA
ENDBRANCH  14  17
ENDBRANCH  12  15
ENDBRANCH  11  12
ENDBRANCH  10  11
ENDBRANCH   1  10
BRANCH   9  22
ATOM     22  C   LIG    1       -1.002  -7.677  -2.533  0.00  0.00    +0.310 C 
BRANCH  22  23
ATOM     23  C   LIG    1       -0.010  -8.730  -3.032  0.00  0.00    +0.040 C 
BRANCH  23  24
ATOM     24  C   LIG    1        0.368  -8.427  -4.484  0.00  0.00    +0.200 C 
BRANCH  24  25
ATOM     25  O   LIG    1        1.294  -9.411  -4.950  0.00  0.00    -0.300 OA
BRANCH  25  26
ATOM     26  C   LIG    1        1.734  -9.287  -6.230  0.00  0.00    +0.140 A 
ATOM     27  C   LIG    1        1.283  -8.240  -7.021  0.00  0.00    -0.060 A 
ATOM     28  C   LIG    1        1.732  -8.116  -8.322  0.00  0.00    +0.060 A 
ATOM     29  C   LIG    1        2.628  -9.034  -8.836  0.00  0.00    +0.000 A 
ATOM     30  C   LIG    1        3.079 -10.079  -8.050  0.00  0.00    +0.070 A 
ATOM     31  C   LIG    1        2.639 -10.204  -6.746  0.00  0.00    -0.070 A 
ATOM     32 CL   LIG    1        3.211 -11.511  -5.758  0.00  0.00    -0.050 Cl
ENDBRANCH  25  26
ENDBRANCH  24  25
ENDBRANCH  23  24
ENDBRANCH  22  23
ENDBRANCH   9  22
TORSDOF 10
