REMARK  Name = ZINCqH0000002G9W.0
REMARK                            x       y       z     vdW  Elec       q    Type
REMARK                         _______ _______ _______ _____ _____    ______ ____
ROOT
ATOM      1  C   LIG    1       -1.194  -0.719   0.010  0.00  0.00    +0.100 A 
ATOM      2  C   LIG    1       -1.169  -2.103   0.002  0.00  0.00    -0.030 A 
ATOM      3  C   LIG    1        0.041  -2.774  -0.013  0.00  0.00    +0.060 A 
ATOM      4  C   LIG    1        1.227  -2.066  -0.021  0.00  0.00    -0.170 A 
ATOM      5  C   LIG    1        1.211  -0.683  -0.019  0.00  0.00    +0.020 A 
ATOM      6  C   LIG    1        0.002  -0.004   0.002  0.00  0.00    +0.200 A 
ENDROOT
BRANCH   4   7
ATOM      7  C   LIG    1        2.542  -2.802  -0.037  0.00  0.00    +0.510 C 
ATOM      8  F   LIG    1        3.282  -2.460   1.101  0.00  0.00    -0.180 F 
ATOM      9  F   LIG    1        3.261  -2.449  -1.184  0.00  0.00    -0.180 F 
ATOM     10  F   LIG    1        2.304  -4.181  -0.041  0.00  0.00    -0.180 F 
ENDBRANCH   4   7
BRANCH   6  11
ATOM     11  N   LIG    1       -0.017   1.395   0.010  0.00  0.00    -0.730 N 
ATOM     12  H   LIG    1       -0.863   1.869   0.016  0.00  0.00    +0.420 HD
BRANCH  11  13
ATOM     13  C   LIG    1        1.242   2.145   0.002  0.00  0.00    +0.310 C 
BRANCH  13  14
ATOM     14  C   LIG    1        0.946   3.623   0.013  0.00  0.00    +0.510 C 
ATOM     15  N   LIG    1        1.959   4.513   0.008  0.00  0.00    -0.720 N 
ATOM     16  H   LIG    1        2.877   4.202  -0.003  0.00  0.00    +0.410 HD
ATOM     17  O   LIG    1       -0.203   4.011   0.025  0.00  0.00    -0.510 OA
BRANCH  15  18
ATOM     18  C   LIG    1        1.671   5.949   0.018  0.00  0.00    +0.310 C 
ATOM     19  C   LIG    1        0.852   6.314  -1.222  0.00  0.00    +0.090 C 
BRANCH  18  20
ATOM     20  C   LIG    1        2.986   6.732   0.010  0.00  0.00    -0.040 C 
ATOM     21  C   LIG    1        3.297   7.603   1.229  0.00  0.00    +0.030 C 
ATOM     22  C   LIG    1        2.900   8.256  -0.098  0.00  0.00    +0.050 C 
ENDBRANCH  18  20
BRANCH  18  23
ATOM     23  C   LIG    1        0.906   6.288   1.229  0.00  0.00    +0.200 C 
ATOM     24  N   LIG    1        0.316   6.549   2.164  0.00  0.00    -0.400 NA
ENDBRANCH  18  23
ENDBRANCH  15  18
ENDBRANCH  13  14
ENDBRANCH  11  13
ENDBRANCH   6  11
BRANCH   1  25
ATOM     25  O   LIG    1       -2.383  -0.059   0.024  0.00  0.00    -0.310 OA
BRANCH  25  26
ATOM     26  C   LIG    1       -3.568  -0.857   0.031  0.00  0.00    +0.190 C 
BRANCH  26  28
ATOM     27  C   LIG    1       -6.066  -0.799   0.055  0.00  0.00    +0.040 C 
ATOM     28  C   LIG    1       -4.797   0.055   0.047  0.00  0.00    +0.020 C 
ENDBRANCH  26  28
ENDBRANCH  25  26
ENDBRANCH   1  25
TORSDOF 10
