REMARK  Name = ZINCpe000000SXCV.0
REMARK                            x       y       z     vdW  Elec       q    Type
REMARK                         _______ _______ _______ _____ _____    ______ ____
ROOT
ATOM      1  C   LIG    1       -2.326   1.606  -1.050  0.00  0.00    +0.300 C 
ENDROOT
BRANCH   1   3
ATOM      2  C   LIG    1       -3.339  -0.436  -1.911  0.00  0.00    +0.530 C 
ATOM      3  N   LIG    1       -2.592   0.168  -0.965  0.00  0.00    -0.730 N 
ATOM      4  H   LIG    1       -2.232  -0.349  -0.228  0.00  0.00    +0.400 HD
ATOM      5  O   LIG    1       -3.789   0.211  -2.832  0.00  0.00    -0.530 OA
BRANCH   2   8
ATOM      6  N   LIG    1       -5.442  -3.392  -2.295  0.00  0.00    -0.620 N 
ATOM      7  C   LIG    1       -4.607  -2.359  -2.919  0.00  0.00    +0.300 C 
ATOM      8  C   LIG    1       -3.613  -1.915  -1.823  0.00  0.00    +0.000 C 
ATOM      9  C   LIG    1       -4.392  -2.258  -0.532  0.00  0.00    +0.070 C 
ATOM     10  C   LIG    1       -5.344  -3.355  -0.955  0.00  0.00    +0.520 C 
ATOM     11  O   LIG    1       -5.934  -4.094  -0.195  0.00  0.00    -0.520 OA
BRANCH   6  13
ATOM     12  C   LIG    1       -5.823  -5.770  -2.722  0.00  0.00    +0.030 C 
ATOM     13  C   LIG    1       -6.274  -4.343  -3.037  0.00  0.00    +0.240 C 
ATOM     14  C   LIG    1       -7.737  -4.168  -2.626  0.00  0.00    +0.030 C 
ENDBRANCH   6  13
ENDBRANCH   2   8
ENDBRANCH   1   3
BRANCH   1  15
ATOM     15  C   LIG    1       -1.360   2.013   0.065  0.00  0.00    -0.020 C 
BRANCH  15  16
ATOM     16  C   LIG    1       -0.029   1.342  -0.155  0.00  0.00    +0.520 C 
ATOM     17  O   LIG    1        0.389   1.177  -1.281  0.00  0.00    -0.530 OA
ATOM     18  N   LIG    1        0.696   0.920   0.901  0.00  0.00    -0.850 N 
ATOM     19  H   LIG    1        0.398   1.118   1.803  0.00  0.00    +0.400 HD
ATOM     20  H   LIG    1        1.514   0.419   0.758  0.00  0.00    +0.400 HD
ENDBRANCH  15  16
BRANCH  15  21
ATOM     21  C   LIG    1       -1.175   3.532   0.050  0.00  0.00    +0.120 C 
BRANCH  21  22
ATOM     22  C   LIG    1       -0.329   3.946   1.226  0.00  0.00    -0.110 A 
ATOM     23  C   LIG    1       -0.915   4.149   2.462  0.00  0.00    +0.060 A 
ATOM     24  C   LIG    1       -0.139   4.523   3.542  0.00  0.00    -0.010 A 
ATOM     25  C   LIG    1        1.224   4.706   3.385  0.00  0.00    +0.100 A 
ATOM     26  C   LIG    1        1.810   4.508   2.146  0.00  0.00    -0.010 A 
ATOM     27  F   LIG    1        1.982   5.078   4.439  0.00  0.00    -0.140 F 
ATOM     28  C   LIG    1        1.033   4.128   1.068  0.00  0.00    +0.050 A 
ENDBRANCH  21  22
ENDBRANCH  15  21
ENDBRANCH   1  15
TORSDOF 7
