REMARK  Name = ZINCkj000005jVbT.1
REMARK                            x       y       z     vdW  Elec       q    Type
REMARK                         _______ _______ _______ _____ _____    ______ ____
ROOT
ATOM      1  C   LIG    1       -0.007  -0.364   2.509  0.00  0.00    +0.040 C 
ATOM      2  C   LIG    1       -0.027   1.163   2.401  0.00  0.00    +0.220 C 
ATOM      3  C   LIG    1        1.409   1.693   2.395  0.00  0.00    +0.240 C 
ATOM      4  N   LIG    1        2.115   1.175   1.215  0.00  0.00    -0.380 N 
ATOM      5  C   LIG    1        1.423   1.617  -0.003  0.00  0.00    +0.240 C 
ATOM      6  C   LIG    1       -0.013   1.086   0.008  0.00  0.00    +0.170 C 
ATOM      7  H   LIG    1        2.129   0.166   1.248  0.00  0.00    +0.420 HD
ATOM      8  O   LIG    1       -0.677   1.548   1.187  0.00  0.00    -0.340 OA
ENDROOT
BRANCH   6   9
ATOM      9  C   LIG    1       -0.754   1.593  -1.230  0.00  0.00    +0.230 C 
BRANCH   9  10
ATOM     10  O   LIG    1       -2.057   1.007  -1.279  0.00  0.00    -0.560 OA
ATOM     11  H   LIG    1       -2.585   1.284  -2.040  0.00  0.00    +0.400 HD
ENDBRANCH   9  10
ENDBRANCH   6   9
BRANCH   4  12
ATOM     12  C   LIG    1        3.494   1.683   1.207  0.00  0.00    +0.320 C 
BRANCH  12  13
ATOM     13  C   LIG    1        4.240   1.129   2.393  0.00  0.00    -0.160 A 
ATOM     14  C   LIG    1        4.413   1.907   3.521  0.00  0.00    +0.050 A 
ATOM     15  C   LIG    1        5.099   1.399   4.609  0.00  0.00    +0.030 A 
ATOM     16  C   LIG    1        5.610   0.117   4.564  0.00  0.00    +0.060 A 
ATOM     17  C   LIG    1        5.438  -0.664   3.432  0.00  0.00    -0.110 A 
ATOM     18  C   LIG    1        6.015  -2.056   3.418  0.00  0.00    +0.290 C 
ATOM     19  O   LIG    1        5.436  -2.821   2.362  0.00  0.00    -0.370 OA
ATOM     20  C   LIG    1        5.502  -2.165   1.090  0.00  0.00    +0.240 C 
ATOM     21  C   LIG    1        4.532  -0.982   1.104  0.00  0.00    +0.040 C 
ATOM     22  C   LIG    1        4.745  -0.161   2.350  0.00  0.00    -0.060 A 
ENDBRANCH  12  13
ENDBRANCH   4  12
TORSDOF 4
