REMARK  Name = ZINCkj000005jVbT.2
REMARK                            x       y       z     vdW  Elec       q    Type
REMARK                         _______ _______ _______ _____ _____    ______ ____
ROOT
ATOM      1  C   LIG    1       -3.059  -0.923   3.454  0.00  0.00    +0.110 C 
ATOM      2  C   LIG    1       -2.771   0.539   3.109  0.00  0.00    +0.150 C 
ATOM      3  C   LIG    1       -2.151   0.622   1.712  0.00  0.00    +0.240 C 
ATOM      4  N   LIG    1       -1.929   2.032   1.360  0.00  0.00    -0.390 N 
ATOM      5  C   LIG    1       -3.214   2.746   1.370  0.00  0.00    +0.260 C 
ATOM      6  C   LIG    1       -3.833   2.658   2.767  0.00  0.00    +0.230 C 
ATOM      7  H   LIG    1       -1.306   2.452   2.032  0.00  0.00    +0.420 HD
ATOM      8  O   LIG    1       -3.993   1.283   3.127  0.00  0.00    -0.340 OA
ENDROOT
BRANCH   6   9
ATOM      9  C   LIG    1       -2.913   3.347   3.778  0.00  0.00    +0.140 C 
BRANCH   9  10
ATOM     10  O   LIG    1       -3.543   3.363   5.061  0.00  0.00    -0.550 OA
ATOM     11  H   LIG    1       -3.016   3.786   5.752  0.00  0.00    +0.400 HD
ENDBRANCH   9  10
ENDBRANCH   6   9
BRANCH   4  12
ATOM     12  C   LIG    1       -1.334   2.114   0.020  0.00  0.00    +0.320 C 
BRANCH  12  13
ATOM     13  C   LIG    1        0.047   1.510   0.046  0.00  0.00    -0.160 A 
ATOM     14  C   LIG    1        0.241   0.221  -0.409  0.00  0.00    +0.050 A 
ATOM     15  C   LIG    1        1.507  -0.336  -0.381  0.00  0.00    +0.030 A 
ATOM     16  C   LIG    1        2.570   0.398   0.106  0.00  0.00    +0.060 A 
ATOM     17  C   LIG    1        2.376   1.692   0.565  0.00  0.00    -0.110 A 
ATOM     18  C   LIG    1        3.559   2.456   1.097  0.00  0.00    +0.290 C 
ATOM     19  O   LIG    1        3.257   3.849   1.167  0.00  0.00    -0.360 OA
ATOM     20  C   LIG    1        2.040   4.126   1.869  0.00  0.00    +0.220 C 
ATOM     21  C   LIG    1        0.866   3.656   1.008  0.00  0.00    +0.040 C 
ATOM     22  C   LIG    1        1.114   2.248   0.531  0.00  0.00    -0.060 A 
ENDBRANCH  12  13
ENDBRANCH   4  12
TORSDOF 4
