REMARK  Name = ZINCrH000004sy7t.0
REMARK                            x       y       z     vdW  Elec       q    Type
REMARK                         _______ _______ _______ _____ _____    ______ ____
ROOT
ATOM      1  C   LIG    1        0.580   3.723   1.096  0.00  0.00    +0.160 C 
ATOM      2  C   LIG    1       -0.435   2.838   1.772  0.00  0.00    +0.200 A 
ATOM      3  N   LIG    1       -1.058   3.258   2.851  0.00  0.00    -0.460 NA
ATOM      4  C   LIG    1       -1.955   2.490   3.469  0.00  0.00    +0.290 A 
ATOM      5  C   LIG    1       -2.746   2.693   4.620  0.00  0.00    -0.190 A 
ATOM      6  C   LIG    1       -2.878   3.756   5.525  0.00  0.00    +0.110 A 
ATOM      7  C   LIG    1       -3.748   3.654   6.567  0.00  0.00    -0.040 A 
ATOM      8  C   LIG    1       -4.513   2.502   6.751  0.00  0.00    +0.070 A 
ATOM      9  C   LIG    1       -4.412   1.450   5.895  0.00  0.00    +0.000 A 
ATOM     10  C   LIG    1       -3.523   1.519   4.803  0.00  0.00    +0.140 A 
ATOM     11  N   LIG    1       -3.220   0.669   3.827  0.00  0.00    -0.340 NA
ATOM     12  N   LIG    1       -2.255   1.246   2.992  0.00  0.00    -0.260 N 
ATOM     13  C   LIG    1       -1.631   0.783   1.872  0.00  0.00    +0.190 A 
ATOM     14  C   LIG    1       -1.950  -0.587   1.332  0.00  0.00    +0.170 C 
ATOM     15  C   LIG    1       -0.718   1.572   1.248  0.00  0.00    -0.170 A 
ENDROOT
BRANCH  15  16
ATOM     16  C   LIG    1       -0.013   1.086   0.008  0.00  0.00    +0.140 C 
BRANCH  16  17
ATOM     17  C   LIG    1       -0.753   1.593  -1.232  0.00  0.00    +0.060 C 
BRANCH  17  18
ATOM     18  C   LIG    1       -0.047   1.107  -2.471  0.00  0.00    +0.510 C 
ATOM     19  N   LIG    1       -0.524   1.433  -3.689  0.00  0.00    -0.730 N 
ATOM     20  H   LIG    1       -1.321   1.980  -3.768  0.00  0.00    +0.400 HD
ATOM     21  O   LIG    1        0.949   0.422  -2.373  0.00  0.00    -0.530 OA
BRANCH  19  22
ATOM     22  C   LIG    1        0.162   0.960  -4.895  0.00  0.00    +0.320 C 
BRANCH  22  23
ATOM     23  C   LIG    1       -0.567   1.459  -6.115  0.00  0.00    -0.110 A 
ATOM     24  C   LIG    1       -1.575   0.699  -6.678  0.00  0.00    +0.020 A 
ATOM     25  C   LIG    1       -2.247   1.159  -7.795  0.00  0.00    +0.010 A 
ATOM     26  C   LIG    1       -1.904   2.375  -8.356  0.00  0.00    +0.010 A 
ATOM     27  C   LIG    1       -0.892   3.133  -7.797  0.00  0.00    +0.010 A 
ATOM     28  C   LIG    1       -0.223   2.675  -6.677  0.00  0.00    +0.020 A 
ENDBRANCH  22  23
ENDBRANCH  19  22
ENDBRANCH  17  18
ENDBRANCH  16  17
ENDBRANCH  15  16
TORSDOF 5
