REMARK  Name = ZINCqH0000003z9T.0
REMARK                            x       y       z     vdW  Elec       q    Type
REMARK                         _______ _______ _______ _____ _____    ______ ____
ROOT
ATOM      1  N   LIG    1        2.980   3.987  -1.366  0.00  0.00    -0.720 N 
ATOM      2  H   LIG    1        2.498   3.559  -2.089  0.00  0.00    +0.400 HD
ATOM      3  C   LIG    1        4.138   4.630  -1.616  0.00  0.00    +0.560 C 
ATOM      4  O   LIG    1        4.743   5.167  -0.709  0.00  0.00    -0.530 OA
ENDROOT
BRANCH   3   5
ATOM      5  C   LIG    1        4.673   4.681  -2.994  0.00  0.00    -0.120 A 
ATOM      6  C   LIG    1        5.862   5.343  -3.245  0.00  0.00    +0.150 A 
ATOM      7  C   LIG    1        6.365   5.388  -4.555  0.00  0.00    +0.070 A 
ATOM      8  N   LIG    1        7.513   6.019  -4.830  0.00  0.00    -0.420 NA
ATOM      9  C   LIG    1        7.960   6.047  -6.064  0.00  0.00    +0.110 A 
ATOM     10  C   LIG    1        7.252   5.423  -7.094  0.00  0.00    +0.120 A 
ATOM     11  N   LIG    1        6.123   4.798  -6.849  0.00  0.00    -0.430 NA
ATOM     12  C   LIG    1        7.787   5.470  -8.502  0.00  0.00    +0.150 C 
ATOM     13  C   LIG    1        9.253   6.758  -6.373  0.00  0.00    +0.150 C 
ATOM     14  C   LIG    1        5.645   4.755  -5.601  0.00  0.00    +0.100 A 
ATOM     15  C   LIG    1        4.439   4.091  -5.311  0.00  0.00    +0.070 A 
ATOM     16  C   LIG    1        3.971   4.053  -4.038  0.00  0.00    +0.060 A 
ENDBRANCH   3   5
BRANCH   1  17
ATOM     17  C   LIG    1        2.451   3.937  -0.001  0.00  0.00    +0.320 C 
BRANCH  17  23
ATOM     18  C   LIG    1        1.175   1.783   0.000  0.00  0.00    -0.070 A 
ATOM     19  C   LIG    1       -0.013   1.076   0.008  0.00  0.00    +0.040 A 
ATOM     20  C   LIG    1       -1.219   1.751   0.017  0.00  0.00    +0.020 A 
ATOM     21  C   LIG    1       -1.238   3.133   0.030  0.00  0.00    +0.010 A 
ATOM     22  C   LIG    1       -0.050   3.840   0.023  0.00  0.00    +0.030 A 
ATOM     23  C   LIG    1        1.156   3.166   0.008  0.00  0.00    -0.110 A 
BRANCH  18  24
ATOM     24  C   LIG    1        2.490   1.047  -0.016  0.00  0.00    +0.230 C 
BRANCH  24  25
ATOM     25  O   LIG    1        2.248  -0.361  -0.021  0.00  0.00    -0.380 OA
BRANCH  25  27
ATOM     26  C   LIG    1        3.059  -2.638  -0.042  0.00  0.00    +0.040 C 
ATOM     27  C   LIG    1        3.436  -1.155  -0.037  0.00  0.00    +0.160 C 
ENDBRANCH  25  27
ENDBRANCH  24  25
ENDBRANCH  18  24
ENDBRANCH  17  23
ENDBRANCH   1  17
TORSDOF 6
