REMARK  Name = ZINCpk00000y6weu.0
REMARK                            x       y       z     vdW  Elec       q    Type
REMARK                         _______ _______ _______ _____ _____    ______ ____
ROOT
ATOM      1  C   LIG    1       -2.837   1.692   0.101  0.00  0.00    +0.210 C 
ATOM      2  C   LIG    1       -2.252   1.155   1.411  0.00  0.00    +0.330 C 
ATOM      3  O   LIG    1       -0.885   1.553   1.534  0.00  0.00    -0.370 OA
ATOM      4  C   LIG    1       -0.038   1.082   0.483  0.00  0.00    +0.130 C 
ATOM      5  C   LIG    1        1.382   1.617   0.711  0.00  0.00    +0.260 C 
ATOM      6  O   LIG    1        1.363   3.042   0.586  0.00  0.00    -0.370 OA
ATOM      7  C   LIG    1        0.886   3.505  -0.680  0.00  0.00    +0.260 C 
ATOM      8  O   LIG    1       -0.440   3.018  -0.899  0.00  0.00    -0.350 OA
ATOM      9  C   LIG    1        1.808   2.994  -1.789  0.00  0.00    +0.010 C 
ATOM     10  C   LIG    1        0.875   5.035  -0.692  0.00  0.00    +0.100 C 
ATOM     11  C   LIG    1       -0.540   1.592  -0.871  0.00  0.00    +0.150 C 
ATOM     12  C   LIG    1       -1.997   1.172  -1.070  0.00  0.00    +0.190 C 
ENDROOT
BRANCH   1  15
ATOM     13  C   LIG    1       -3.702   5.362  -0.560  0.00  0.00    +0.090 C 
ATOM     14  C   LIG    1       -3.732   3.855  -0.574  0.00  0.00    +0.530 C 
ATOM     15  N   LIG    1       -2.808   3.156   0.114  0.00  0.00    -0.690 N 
ATOM     16  H   LIG    1       -2.123   3.623   0.618  0.00  0.00    +0.410 HD
ATOM     17  O   LIG    1       -4.589   3.272  -1.203  0.00  0.00    -0.560 OA
ENDBRANCH   1  15
BRANCH  12  18
ATOM     18  O   LIG    1       -2.490   1.724  -2.292  0.00  0.00    -0.530 OA
ATOM     19  H   LIG    1       -3.411   1.498  -2.483  0.00  0.00    +0.390 HD
ENDBRANCH  12  18
BRANCH   2  20
ATOM     20  O   LIG    1       -3.000   1.671   2.514  0.00  0.00    -0.280 OA
BRANCH  20  21
ATOM     21  C   LIG    1       -2.674   1.208   3.750  0.00  0.00    +0.130 A 
ATOM     22  C   LIG    1       -1.661   0.273   3.897  0.00  0.00    -0.040 A 
ATOM     23  C   LIG    1       -1.329  -0.193   5.154  0.00  0.00    +0.070 A 
ATOM     24  C   LIG    1       -2.013   0.266   6.266  0.00  0.00    -0.070 A 
ATOM     25  C   LIG    1       -3.028   1.195   6.121  0.00  0.00    +0.070 A 
ATOM     26 CL   LIG    1       -1.598  -0.325   7.844  0.00  0.00    -0.070 Cl
ATOM     27  C   LIG    1       -3.360   1.667   4.865  0.00  0.00    +0.010 A 
ENDBRANCH  20  21
ENDBRANCH   2  20
TORSDOF 4
