REMARK  Name = ZINCrD00000l097K.0
REMARK                            x       y       z     vdW  Elec       q    Type
REMARK                         _______ _______ _______ _____ _____    ______ ____
ROOT
ATOM      1  C   LIG    1       -1.203   2.247   0.017  0.00  0.00    +0.610 C 
ATOM      2  N   LIG    1       -2.436   1.711  -0.077  0.00  0.00    -0.630 N 
ATOM      3  C   LIG    1       -2.885   0.277  -0.103  0.00  0.00    +0.230 C 
ATOM      4  C   LIG    1       -3.926   0.290   1.082  0.00  0.00    +0.030 C 
ATOM      5  C   LIG    1       -4.538   1.710   1.002  0.00  0.00    +0.020 C 
ATOM      6  C   LIG    1       -3.731   0.252  -1.412  0.00  0.00    +0.040 C 
ATOM      7  C   LIG    1       -4.341   1.667  -1.475  0.00  0.00    +0.230 C 
ATOM      8  C   LIG    1       -3.784   2.362  -0.196  0.00  0.00    +0.250 C 
ATOM      9  O   LIG    1       -1.069   3.453   0.094  0.00  0.00    -0.530 OA
ENDROOT
BRANCH   1  15
ATOM     10  C   LIG    1        1.718   2.900  -1.297  0.00  0.00    +0.130 C 
ATOM     11  C   LIG    1        1.300   1.653  -0.562  0.00  0.00    -0.140 A 
ATOM     12  C   LIG    1        2.054   0.572  -0.312  0.00  0.00    +0.170 A 
ATOM     13  O   LIG    1        1.323  -0.327   0.366  0.00  0.00    -0.170 OA
ATOM     14  C   LIG    1        0.085   0.128   0.579  0.00  0.00    +0.220 A 
ATOM     15  C   LIG    1       -0.018   1.371   0.027  0.00  0.00    -0.220 A 
ENDBRANCH   1  15
BRANCH   7  16
ATOM     16  N   LIG    1       -5.804   1.601  -1.431  0.00  0.00    -0.720 N 
ATOM     17  H   LIG    1       -6.243   0.831  -1.037  0.00  0.00    +0.400 HD
ATOM     18  C   LIG    1       -6.540   2.609  -1.939  0.00  0.00    +0.520 C 
ATOM     19  O   LIG    1       -5.991   3.572  -2.432  0.00  0.00    -0.520 OA
BRANCH  18  20
ATOM     20  C   LIG    1       -8.044   2.541  -1.893  0.00  0.00    +0.040 C 
ATOM     21  C   LIG    1       -8.523   1.310  -2.666  0.00  0.00    +0.060 C 
BRANCH  20  22
ATOM     22  C   LIG    1       -8.623   3.783  -2.521  0.00  0.00    -0.040 A 
ATOM     23  C   LIG    1       -9.434   4.620  -1.777  0.00  0.00    +0.010 A 
ATOM     24  C   LIG    1       -9.965   5.760  -2.351  0.00  0.00    +0.040 A 
ATOM     25  C   LIG    1       -9.684   6.065  -3.670  0.00  0.00    -0.010 A 
ATOM     26  C   LIG    1       -8.872   5.228  -4.416  0.00  0.00    +0.100 A 
ATOM     27  F   LIG    1       -8.597   5.525  -5.705  0.00  0.00    -0.140 F 
ATOM     28  C   LIG    1       -8.337   4.089  -3.838  0.00  0.00    +0.010 A 
ENDBRANCH  20  22
ENDBRANCH  18  20
ENDBRANCH   7  16
TORSDOF 4
