REMARK  Name = ZINCtV000002PQnX.0
REMARK                            x       y       z     vdW  Elec       q    Type
REMARK                         _______ _______ _______ _____ _____    ______ ____
ROOT
ATOM      1  C   LIG    1        1.056  10.106   0.155  0.00  0.00    +0.410 A 
ATOM      2  N   LIG    1        2.199   9.441   0.140  0.00  0.00    -0.560 NA
ATOM      3  C   LIG    1        3.369  10.069   0.235  0.00  0.00    +0.400 A 
ATOM      4  N   LIG    1        3.469  11.380   0.349  0.00  0.00    -0.510 NA
ATOM      5  C   LIG    1        2.368  12.143   0.374  0.00  0.00    +0.190 A 
ATOM      6  C   LIG    1        2.436  13.538   0.495  0.00  0.00    +0.040 A 
ATOM      7  C   LIG    1        1.286  14.269   0.516  0.00  0.00    +0.070 A 
ATOM      8  C   LIG    1        0.042  13.651   0.419  0.00  0.00    +0.010 A 
ATOM      9  C   LIG    1       -0.061  12.296   0.300  0.00  0.00    +0.080 A 
ATOM     10  C   LIG    1        1.101  11.517   0.270  0.00  0.00    -0.160 A 
ENDROOT
BRANCH   3  11
ATOM     11  C   LIG    1        4.614   9.261   0.211  0.00  0.00    -0.000 A 
ATOM     12  C   LIG    1        5.868   9.872   0.302  0.00  0.00    +0.030 A 
ATOM     13  C   LIG    1        7.000   9.082   0.281  0.00  0.00    +0.250 A 
ATOM     14  N   LIG    1        6.909   7.771   0.167  0.00  0.00    -0.470 NA
ATOM     15  C   LIG    1        5.746   7.157   0.074  0.00  0.00    +0.250 A 
ATOM     16  C   LIG    1        4.564   7.870   0.092  0.00  0.00    +0.030 A 
ENDBRANCH   3  11
BRANCH   1  17
ATOM     17  O   LIG    1       -0.126   9.456   0.058  0.00  0.00    -0.230 OA
BRANCH  17  21
ATOM     18  C   LIG    1       -0.065   5.328  -0.028  0.00  0.00    -0.030 A 
ATOM     19  C   LIG    1       -0.270   6.048  -1.204  0.00  0.00    +0.040 A 
ATOM     20  C   LIG    1       -0.295   7.426  -1.171  0.00  0.00    +0.030 A 
ATOM     21  C   LIG    1       -0.106   8.098   0.030  0.00  0.00    +0.080 A 
ATOM     22  C   LIG    1        0.103   7.383   1.202  0.00  0.00    +0.020 A 
ATOM     23  C   LIG    1        0.124   6.005   1.176  0.00  0.00    +0.030 A 
BRANCH  18  27
ATOM     24  C   LIG    1        0.001   1.078  -0.116  0.00  0.00    +0.010 A 
ATOM     25  C   LIG    1        0.184   1.745   1.081  0.00  0.00    +0.010 A 
ATOM     26  C   LIG    1        0.169   3.124   1.115  0.00  0.00    +0.020 A 
ATOM     27  C   LIG    1       -0.042   3.845  -0.059  0.00  0.00    -0.050 A 
ATOM     28  C   LIG    1       -0.232   3.168  -1.262  0.00  0.00    +0.020 A 
ATOM     29  C   LIG    1       -0.209   1.788  -1.285  0.00  0.00    +0.010 A 
ENDBRANCH  18  27
ENDBRANCH  17  21
ENDBRANCH   1  17
TORSDOF 4
