REMARK  Name = ZINCqH00000045OR.0
REMARK                            x       y       z     vdW  Elec       q    Type
REMARK                         _______ _______ _______ _____ _____    ______ ____
ROOT
ATOM      1  N   LIG    1        0.160   2.207   2.905  0.00  0.00    -0.720 N 
ATOM      2  H   LIG    1        0.840   2.704   3.386  0.00  0.00    +0.400 HD
ATOM      3  C   LIG    1       -0.063   0.911   3.201  0.00  0.00    +0.520 C 
ATOM      4  O   LIG    1       -0.941   0.300   2.629  0.00  0.00    -0.530 OA
ENDROOT
BRANCH   1   5
ATOM      5  C   LIG    1       -0.625   2.864   1.857  0.00  0.00    +0.290 C 
BRANCH   5   6
ATOM      6  C   LIG    1       -0.659   4.349   2.111  0.00  0.00    -0.130 A 
ATOM      7  C   LIG    1        0.476   4.998   2.561  0.00  0.00    +0.050 A 
ATOM      8  C   LIG    1        0.449   6.360   2.789  0.00  0.00    -0.070 A 
ATOM      9  C   LIG    1       -0.721   7.075   2.578  0.00  0.00    +0.130 A 
ATOM     10  C   LIG    1       -1.859   6.420   2.131  0.00  0.00    -0.020 A 
ATOM     11  C   LIG    1       -1.826   5.059   1.899  0.00  0.00    +0.060 A 
BRANCH   9  12
ATOM     12  O   LIG    1       -0.751   8.414   2.806  0.00  0.00    -0.320 OA
ATOM     13  C   LIG    1        0.459   9.021   3.264  0.00  0.00    +0.250 C 
ENDBRANCH   9  12
ENDBRANCH   5   6
BRANCH   5  15
ATOM     14  C   LIG    1       -0.061   1.098   0.181  0.00  0.00    +0.020 C 
ATOM     15  C   LIG    1        0.017   2.594   0.494  0.00  0.00    +0.010 C 
ENDBRANCH   5  15
ENDBRANCH   1   5
BRANCH   3  16
ATOM     16  C   LIG    1        0.779   0.221   4.244  0.00  0.00    +0.250 C 
BRANCH  16  17
ATOM     17  N   LIG    1        0.247  -1.121   4.491  0.00  0.00    -0.710 N 
ATOM     18  H   LIG    1       -0.269  -1.573   3.805  0.00  0.00    +0.410 HD
ATOM     19  C   LIG    1        0.473  -1.729   5.673  0.00  0.00    +0.600 C 
ATOM     20  O   LIG    1        1.120  -1.163   6.534  0.00  0.00    -0.520 OA
BRANCH  19  21
ATOM     21  C   LIG    1       -0.059  -3.072   5.920  0.00  0.00    -0.270 A 
ATOM     22  C   LIG    1        0.102  -3.789   7.072  0.00  0.00    +0.100 A 
ATOM     23  C   LIG    1       -0.503  -5.022   7.035  0.00  0.00    +0.000 A 
ATOM     24  C   LIG    1       -1.139  -5.308   5.892  0.00  0.00    -0.060 A 
ATOM     25  S   LIG    1       -1.016  -4.015   4.785  0.00  0.00    +0.210 S 
ENDBRANCH  19  21
ENDBRANCH  16  17
BRANCH  16  26
ATOM     26  C   LIG    1        2.221   0.113   3.745  0.00  0.00    -0.020 C 
ATOM     27  C   LIG    1        2.274  -0.822   2.535  0.00  0.00    +0.030 C 
ATOM     28  C   LIG    1        3.107  -0.446   4.861  0.00  0.00    +0.040 C 
ENDBRANCH  16  26
ENDBRANCH   3  16
TORSDOF 8
