REMARK  Name = ZINCrH00000No4Y7.0
REMARK                            x       y       z     vdW  Elec       q    Type
REMARK                         _______ _______ _______ _____ _____    ______ ____
ROOT
ATOM      1  C   LIG    1       -1.322   2.136   0.020  0.00  0.00    +0.330 C 
ENDROOT
BRANCH   1   2
ATOM      2  C   LIG    1       -0.017   1.383   0.010  0.00  0.00    -0.080 A 
ATOM      3  C   LIG    1        1.193   2.059   0.002  0.00  0.00    -0.020 A 
ATOM      4  C   LIG    1        2.370   1.334  -0.013  0.00  0.00    +0.270 A 
ATOM      5  N   LIG    1        2.350   0.015  -0.020  0.00  0.00    -0.470 NA
ATOM      6  C   LIG    1        1.218  -0.661  -0.013  0.00  0.00    +0.140 A 
ATOM      7  C   LIG    1        0.002  -0.004   0.002  0.00  0.00    -0.020 A 
BRANCH   6   8
ATOM      8  C   LIG    1        1.250  -2.168  -0.021  0.00  0.00    +0.040 C 
ATOM      9  C   LIG    1        0.072  -2.698  -0.841  0.00  0.00    +0.040 C 
ATOM     10  C   LIG    1        1.149  -2.688   1.414  0.00  0.00    +0.040 C 
ENDBRANCH   6   8
ENDBRANCH   1   2
BRANCH   1  15
ATOM     11  N   LIG    1       -2.539   2.065   2.260  0.00  0.00    -0.300 N 
ATOM     12  N   LIG    1       -2.485   2.742   3.357  0.00  0.00    -0.090 NA
ATOM     13  N   LIG    1       -1.587   3.658   3.236  0.00  0.00    -0.070 NA
ATOM     14  N   LIG    1       -1.051   3.579   2.067  0.00  0.00    -0.280 NA
ATOM     15  C   LIG    1       -1.627   2.594   1.423  0.00  0.00    +0.200 A 
BRANCH  11  16
ATOM     16  C   LIG    1       -3.426   0.934   1.979  0.00  0.00    +0.340 C 
BRANCH  16  18
ATOM     17  C   LIG    1       -3.665  -1.550   2.099  0.00  0.00    +0.040 C 
ATOM     18  C   LIG    1       -2.738  -0.369   2.393  0.00  0.00    +0.000 C 
ENDBRANCH  16  18
ENDBRANCH  11  16
ENDBRANCH   1  15
BRANCH   1  19
ATOM     19  N   LIG    1       -1.219   3.305  -0.865  0.00  0.00    -0.670 NA
ATOM     20  H   LIG    1       -0.311   3.737  -0.789  0.00  0.00    +0.360 HD
BRANCH  19  21
ATOM     21  C   LIG    1       -1.514   2.939  -2.256  0.00  0.00    +0.300 C 
BRANCH  21  22
ATOM     22  C   LIG    1       -1.399   4.160  -3.132  0.00  0.00    -0.010 A 
ATOM     23  C   LIG    1       -0.283   4.578  -3.754  0.00  0.00    -0.030 A 
ATOM     24  C   LIG    1       -0.621   5.753  -4.462  0.00  0.00    -0.020 A 
ATOM     25  C   LIG    1       -1.935   5.986  -4.229  0.00  0.00    -0.020 A 
ATOM     26  O   LIG    1       -2.399   5.013  -3.426  0.00  0.00    -0.160 OA
BRANCH  25  27
ATOM     27  S   LIG    1       -2.876   7.330  -4.873  0.00  0.00    -0.020 S 
ATOM     28  C   LIG    1       -4.527   7.041  -4.178  0.00  0.00    +0.140 C 
ENDBRANCH  25  27
ENDBRANCH  21  22
ENDBRANCH  19  21
ENDBRANCH   1  19
TORSDOF 9
