REMARK  Name = ZINCtV00000L6kP5.0
REMARK                            x       y       z     vdW  Elec       q    Type
REMARK                         _______ _______ _______ _____ _____    ______ ____
ROOT
ATOM      1  C   LIG    1       -1.280   5.922  -0.059  0.00  0.00    +0.270 A 
ATOM      2  N   LIG    1       -1.402   7.209  -0.156  0.00  0.00    -0.460 NA
ATOM      3  C   LIG    1       -2.629   7.689  -0.233  0.00  0.00    +0.100 A 
ATOM      4  C   LIG    1       -3.590   6.763  -0.200  0.00  0.00    -0.070 A 
ATOM      5  S   LIG    1       -2.821   5.183  -0.067  0.00  0.00    +0.160 S 
ENDROOT
BRANCH   1   8
ATOM      6  C   LIG    1        2.402   5.197   0.110  0.00  0.00    +0.120 C 
ATOM      7  C   LIG    1        1.085   5.929   0.126  0.00  0.00    +0.510 C 
ATOM      8  N   LIG    1       -0.070   5.241   0.032  0.00  0.00    -0.480 N 
ATOM      9  O   LIG    1        1.065   7.138   0.225  0.00  0.00    -0.460 OA
BRANCH   8  10
ATOM     10  C   LIG    1       -0.052   3.841   0.025  0.00  0.00    +0.100 A 
ATOM     11  C   LIG    1        0.450   3.157  -1.074  0.00  0.00    +0.030 A 
ATOM     12  C   LIG    1        0.465   1.776  -1.078  0.00  0.00    +0.040 A 
ATOM     13  C   LIG    1       -0.018   1.074   0.011  0.00  0.00    +0.030 A 
ATOM     14  C   LIG    1       -0.524   1.752   1.105  0.00  0.00    +0.040 A 
ATOM     15  C   LIG    1       -0.537   3.133   1.117  0.00  0.00    +0.020 A 
ENDBRANCH   8  10
ENDBRANCH   1   8
BRANCH   3  16
ATOM     16  C   LIG    1       -2.922   9.162  -0.349  0.00  0.00    +0.220 C 
BRANCH  16  17
ATOM     17  S   LIG    1       -2.980   9.629  -2.097  0.00  0.00    +0.000 S 
BRANCH  17  18
ATOM     18  C   LIG    1       -3.327  11.350  -1.943  0.00  0.00    +0.200 A 
ATOM     19  N   LIG    1       -3.480  12.000  -0.814  0.00  0.00    -0.470 NA
ATOM     20  C   LIG    1       -3.736  13.305  -1.084  0.00  0.00    +0.040 A 
ATOM     21  C   LIG    1       -3.739  13.459  -2.431  0.00  0.00    +0.180 A 
ATOM     22  N   LIG    1       -3.476  12.225  -2.975  0.00  0.00    -0.550 N 
ATOM     23  H   LIG    1       -3.410  12.016  -3.920  0.00  0.00    +0.430 HD
BRANCH  20  24
ATOM     24  C   LIG    1       -3.970  14.374  -0.083  0.00  0.00    +0.020 A 
ATOM     25  C   LIG    1       -4.216  15.681  -0.499  0.00  0.00    +0.020 A 
ATOM     26  C   LIG    1       -4.439  16.670   0.436  0.00  0.00    +0.050 A 
ATOM     27  C   LIG    1       -4.406  16.369   1.787  0.00  0.00    -0.090 A 
ATOM     28  C   LIG    1       -4.156  15.074   2.206  0.00  0.00    +0.040 A 
ATOM     29 BR   LIG    1       -4.704  17.732   3.064  0.00  0.00    -0.050 Br
ATOM     30  C   LIG    1       -3.938  14.076   1.279  0.00  0.00    +0.050 A 
ENDBRANCH  20  24
ENDBRANCH  17  18
ENDBRANCH  16  17
ENDBRANCH   3  16
TORSDOF 6
