REMARK  Name = ZINCrg000000pgWe.0
REMARK                            x       y       z     vdW  Elec       q    Type
REMARK                         _______ _______ _______ _____ _____    ______ ____
ROOT
ATOM      1  N   LIG    1       -2.430   0.977   0.019  0.00  0.00    -0.720 N 
ATOM      2  H   LIG    1       -2.240   0.026   0.013  0.00  0.00    +0.410 HD
ATOM      3  C   LIG    1       -3.707   1.409   0.027  0.00  0.00    +0.520 C 
ATOM      4  O   LIG    1       -3.945   2.598   0.035  0.00  0.00    -0.540 OA
ENDROOT
BRANCH   1   5
ATOM      5  C   LIG    1       -1.330   1.944   0.019  0.00  0.00    +0.310 C 
BRANCH   5  11
ATOM      6  C   LIG    1        2.491   1.310  -0.009  0.00  0.00    +0.220 C 
ATOM      7  C   LIG    1        3.500   2.478  -0.044  0.00  0.00    +0.060 C 
ATOM      8  C   LIG    1        2.659   3.650  -0.615  0.00  0.00    +0.040 C 
ATOM      9  C   LIG    1        1.269   3.367   0.009  0.00  0.00    +0.260 C 
ATOM     10  N   LIG    1        1.143   1.898   0.001  0.00  0.00    -0.600 N 
ATOM     11  C   LIG    1       -0.014   1.209   0.009  0.00  0.00    +0.530 C 
ATOM     12  O   LIG    1        0.002  -0.004   0.002  0.00  0.00    -0.520 OA
BRANCH   6  16
ATOM     13  C   LIG    1        4.076  -0.949   2.644  0.00  0.00    +0.290 C 
ATOM     14  N   LIG    1        3.873  -0.148   1.435  0.00  0.00    -0.730 N 
ATOM     15  H   LIG    1        4.582  -0.074   0.777  0.00  0.00    +0.400 HD
ATOM     16  C   LIG    1        2.700   0.486   1.236  0.00  0.00    +0.500 C 
ATOM     17  O   LIG    1        1.813   0.394   2.058  0.00  0.00    -0.520 OA
ENDBRANCH   6  16
ENDBRANCH   5  11
ENDBRANCH   1   5
BRANCH   3  18
ATOM     18  C   LIG    1       -4.839   0.414   0.027  0.00  0.00    +0.080 C 
BRANCH  18  19
ATOM     19  C   LIG    1       -6.174   1.161   0.038  0.00  0.00    +0.130 C 
BRANCH  19  20
ATOM     20  C   LIG    1       -7.306   0.167   0.038  0.00  0.00    +0.160 A 
ATOM     21  N   LIG    1       -7.356  -0.743  -0.905  0.00  0.00    -0.470 NA
ATOM     22  C   LIG    1       -8.340  -1.647  -0.947  0.00  0.00    +0.130 A 
ATOM     23  C   LIG    1       -8.389  -2.619  -1.961  0.00  0.00    +0.050 A 
ATOM     24  C   LIG    1       -9.404  -3.526  -1.978  0.00  0.00    +0.030 A 
ATOM     25  C   LIG    1      -10.401  -3.508  -1.004  0.00  0.00    +0.010 A 
ATOM     26  C   LIG    1      -10.386  -2.582  -0.007  0.00  0.00    +0.030 A 
ATOM     27  C   LIG    1       -9.355  -1.631   0.042  0.00  0.00    -0.110 A 
ATOM     28  C   LIG    1       -9.304  -0.656   1.056  0.00  0.00    +0.090 A 
ATOM     29  C   LIG    1       -8.268   0.234   1.043  0.00  0.00    -0.030 A 
ENDBRANCH  19  20
ENDBRANCH  18  19
ENDBRANCH   3  18
TORSDOF 6
