REMARK  Name = ZINCrD0000073Esp.0
REMARK                            x       y       z     vdW  Elec       q    Type
REMARK                         _______ _______ _______ _____ _____    ______ ____
ROOT
ATOM      1  N   LIG    1       -4.721   1.592   3.760  0.00  0.00    -0.550 N 
ATOM      2  C   LIG    1       -6.148   1.324   3.977  0.00  0.00    +0.310 C 
ATOM      3  C   LIG    1       -6.384   1.558   5.487  0.00  0.00    +0.010 C 
ATOM      4  C   LIG    1       -5.252   2.553   5.831  0.00  0.00    +0.090 C 
ATOM      5  C   LIG    1       -4.194   2.288   4.782  0.00  0.00    +0.520 C 
ATOM      6  O   LIG    1       -3.039   2.652   4.852  0.00  0.00    -0.500 OA
ENDROOT
BRANCH   1  11
ATOM      7  C   LIG    1       -1.980   1.175   1.341  0.00  0.00    +0.150 A 
ATOM      8  C   LIG    1       -2.587   0.359   0.397  0.00  0.00    -0.100 A 
ATOM      9  C   LIG    1       -3.897  -0.045   0.571  0.00  0.00    +0.080 A 
ATOM     10  C   LIG    1       -4.606   0.362   1.684  0.00  0.00    -0.060 A 
ATOM     11  C   LIG    1       -4.003   1.180   2.632  0.00  0.00    +0.210 A 
ATOM     12  C   LIG    1       -2.686   1.582   2.462  0.00  0.00    -0.030 A 
BRANCH   7  14
ATOM     13  C   LIG    1       -0.022   1.109  -0.006  0.00  0.00    +0.250 C 
ATOM     14  O   LIG    1       -0.691   1.571   1.169  0.00  0.00    -0.310 OA
ENDBRANCH   7  14
ENDBRANCH   1  11
BRANCH   3  15
ATOM     15  C   LIG    1       -6.233   0.278   6.267  0.00  0.00    +0.520 C 
ATOM     16  N   LIG    1       -6.279   0.299   7.614  0.00  0.00    -0.720 N 
ATOM     17  H   LIG    1       -6.410   1.139   8.081  0.00  0.00    +0.400 HD
ATOM     18  O   LIG    1       -6.069  -0.773   5.683  0.00  0.00    -0.520 OA
BRANCH  16  19
ATOM     19  C   LIG    1       -6.132  -0.946   8.372  0.00  0.00    +0.320 C 
BRANCH  19  20
ATOM     20  C   LIG    1       -6.801  -0.798   9.714  0.00  0.00    -0.090 A 
ATOM     21  C   LIG    1       -6.687   0.386  10.418  0.00  0.00    +0.010 A 
ATOM     22  C   LIG    1       -7.305   0.522  11.647  0.00  0.00    +0.000 A 
ATOM     23  C   LIG    1       -8.030  -0.529  12.177  0.00  0.00    +0.000 A 
ATOM     24  C   LIG    1       -8.140  -1.715  11.475  0.00  0.00    +0.010 A 
ATOM     25  C   LIG    1       -7.526  -1.850  10.244  0.00  0.00    +0.020 A 
ENDBRANCH  19  20
BRANCH  19  26
ATOM     26  C   LIG    1       -4.645  -1.247   8.574  0.00  0.00    -0.060 C 
ATOM     27  C   LIG    1       -3.643  -0.164   8.168  0.00  0.00    +0.010 C 
ATOM     28  C   LIG    1       -3.785  -1.432   7.322  0.00  0.00    +0.030 C 
ENDBRANCH  19  26
ENDBRANCH  16  19
ENDBRANCH   3  15
TORSDOF 6
