REMARK  Name = ZINCtV00000tRP8o.0
REMARK                            x       y       z     vdW  Elec       q    Type
REMARK                         _______ _______ _______ _____ _____    ______ ____
ROOT
ATOM      1  C   LIG    1        7.235   0.279  -0.379  0.00  0.00    +0.560 C 
ENDROOT
BRANCH   1   4
ATOM      2  O   LIG    1        7.027   2.322  -2.126  0.00  0.00    -0.470 OA
ATOM      3  C   LIG    1        7.555   1.317  -2.560  0.00  0.00    +0.560 C 
ATOM      4  N   LIG    1        7.707   0.239  -1.765  0.00  0.00    -0.730 N 
ATOM      5  H   LIG    1        8.128  -0.563  -2.111  0.00  0.00    +0.400 HD
BRANCH   3   6
ATOM      6  C   LIG    1        8.032   1.277  -3.958  0.00  0.00    -0.120 A 
ATOM      7  C   LIG    1        8.644   0.126  -4.458  0.00  0.00    +0.050 A 
ATOM      8  C   LIG    1        9.082   0.093  -5.765  0.00  0.00    +0.040 A 
ATOM      9  C   LIG    1        8.925   1.202  -6.579  0.00  0.00    -0.070 A 
ATOM     10  C   LIG    1        8.323   2.349  -6.088  0.00  0.00    +0.040 A 
ATOM     11 BR   LIG    1        9.535   1.151  -8.368  0.00  0.00    -0.040 Br
ATOM     12  C   LIG    1        7.876   2.392  -4.784  0.00  0.00    +0.100 A 
ENDBRANCH   3   6
ENDBRANCH   1   4
BRANCH   1  13
ATOM     13  C   LIG    1        8.303  -0.317   0.541  0.00  0.00    +0.110 C 
ATOM     14 CL   LIG    1        7.722  -0.268   2.247  0.00  0.00    -0.050 Cl
ATOM     15 CL   LIG    1        9.823   0.642   0.396  0.00  0.00    -0.050 Cl
ATOM     16 CL   LIG    1        8.622  -2.026   0.063  0.00  0.00    -0.090 Cl
ENDBRANCH   1  13
BRANCH   1  17
ATOM     17  N   LIG    1        5.999  -0.500  -0.261  0.00  0.00    -0.700 N 
ATOM     18  H   LIG    1        6.035  -1.469  -0.267  0.00  0.00    +0.400 HD
BRANCH  17  19
ATOM     19  C   LIG    1        4.814   0.130  -0.144  0.00  0.00    +0.550 C 
ATOM     20  S   LIG    1        4.752   1.841  -0.134  0.00  0.00    -0.540 S 
BRANCH  19  21
ATOM     21  N   LIG    1        3.677  -0.586  -0.036  0.00  0.00    -0.620 N 
ATOM     22  H   LIG    1        3.718  -1.552   0.038  0.00  0.00    +0.410 HD
BRANCH  21  23
ATOM     23  C   LIG    1        2.442   0.062  -0.030  0.00  0.00    +0.120 A 
ATOM     24  C   LIG    1        2.180   1.069  -0.934  0.00  0.00    +0.080 A 
ATOM     25  C   LIG    1        0.951   1.721  -0.938  0.00  0.00    +0.020 A 
ATOM     26  C   LIG    1       -0.026   1.386  -0.051  0.00  0.00    +0.040 A 
ATOM     27  C   LIG    1        0.200   0.364   0.888  0.00  0.00    -0.050 A 
ATOM     28  C   LIG    1       -0.789  -0.004   1.816  0.00  0.00    +0.040 A 
ATOM     29  C   LIG    1       -0.537  -0.998   2.711  0.00  0.00    +0.010 A 
ATOM     30  C   LIG    1        0.690  -1.657   2.724  0.00  0.00    +0.020 A 
ATOM     31  C   LIG    1        1.672  -1.326   1.840  0.00  0.00    +0.000 A 
ATOM     32  C   LIG    1        1.448  -0.307   0.901  0.00  0.00    -0.040 A 
ENDBRANCH  21  23
ENDBRANCH  19  21
ENDBRANCH  17  19
ENDBRANCH   1  17
TORSDOF 7
