REMARK  Name = ZINCkj000005gwZe.1
REMARK                            x       y       z     vdW  Elec       q    Type
REMARK                         _______ _______ _______ _____ _____    ______ ____
ROOT
ATOM      1  N   LIG    1       -0.633   1.512  -1.257  0.00  0.00    -0.370 N 
ATOM      2  C   LIG    1       -2.012   1.011  -1.179  0.00  0.00    +0.330 C 
ATOM      3  H   LIG    1       -0.646   2.512  -1.389  0.00  0.00    +0.430 HD
ENDROOT
BRANCH   1   4
ATOM      4  C   LIG    1        0.074   1.192  -0.010  0.00  0.00    +0.230 C 
BRANCH   4   5
ATOM      5  C   LIG    1       -0.682   1.769   1.159  0.00  0.00    -0.090 A 
ATOM      6  C   LIG    1       -1.260   3.026   1.079  0.00  0.00    -0.050 A 
ATOM      7  C   LIG    1       -1.951   3.520   2.170  0.00  0.00    +0.290 A 
ATOM      8  N   LIG    1       -2.053   2.815   3.280  0.00  0.00    -0.460 NA
ATOM      9  C   LIG    1       -1.511   1.618   3.393  0.00  0.00    +0.290 A 
ATOM     10  C   LIG    1       -0.811   1.057   2.342  0.00  0.00    +0.010 A 
ENDBRANCH   4   5
BRANCH   4  12
ATOM     11  C   LIG    1        2.253   1.373   1.199  0.00  0.00    +0.060 C 
ATOM     12  C   LIG    1        1.481   1.792  -0.053  0.00  0.00    +0.040 C 
ENDBRANCH   4  12
ENDBRANCH   1   4
BRANCH   1  13
ATOM     13  C   LIG    1        0.056   0.876  -2.388  0.00  0.00    +0.280 C 
BRANCH  13  14
ATOM     14  C   LIG    1       -0.571   1.335  -3.679  0.00  0.00    +0.500 C 
ATOM     15  N   LIG    1       -0.099   0.879  -4.856  0.00  0.00    -0.590 N 
ATOM     16  C   LIG    1        1.032  -0.062  -4.906  0.00  0.00    +0.250 C 
ATOM     17  C   LIG    1        0.631  -1.246  -5.801  0.00  0.00    +0.230 C 
ATOM     18  O   LIG    1        0.166  -0.747  -7.057  0.00  0.00    -0.370 OA
ATOM     19  C   LIG    1       -1.007   0.065  -6.966  0.00  0.00    +0.230 C 
ATOM     20  C   LIG    1       -0.695   1.312  -6.130  0.00  0.00    +0.270 C 
ATOM     21  O   LIG    1       -1.500   2.113  -3.660  0.00  0.00    -0.530 OA
ENDBRANCH  13  14
ENDBRANCH   1  13
TORSDOF 5
