REMARK  Name = ZINCkj000005gwZe.2
REMARK                            x       y       z     vdW  Elec       q    Type
REMARK                         _______ _______ _______ _____ _____    ______ ____
ROOT
ATOM      1  N   LIG    1        0.729   4.716   4.568  0.00  0.00    -0.370 N 
ATOM      2  C   LIG    1        1.849   5.661   4.677  0.00  0.00    +0.330 C 
ATOM      3  H   LIG    1       -0.141   5.227   4.556  0.00  0.00    +0.430 HD
ENDROOT
BRANCH   1   4
ATOM      4  C   LIG    1        0.745   3.803   5.718  0.00  0.00    +0.240 C 
BRANCH   4   5
ATOM      5  C   LIG    1        2.011   2.986   5.694  0.00  0.00    -0.090 A 
ATOM      6  C   LIG    1        2.227   2.043   4.700  0.00  0.00    -0.040 A 
ATOM      7  C   LIG    1        3.402   1.315   4.707  0.00  0.00    +0.290 A 
ATOM      8  N   LIG    1        4.306   1.502   5.649  0.00  0.00    -0.460 NA
ATOM      9  C   LIG    1        4.131   2.386   6.612  0.00  0.00    +0.290 A 
ATOM     10  C   LIG    1        2.984   3.154   6.667  0.00  0.00    +0.010 A 
ENDBRANCH   4   5
BRANCH   4  12
ATOM     11  C   LIG    1       -1.751   3.694   5.758  0.00  0.00    +0.040 C 
ATOM     12  C   LIG    1       -0.466   2.871   5.646  0.00  0.00    +0.060 C 
ENDBRANCH   4  12
ENDBRANCH   1   4
BRANCH   1  13
ATOM     13  C   LIG    1        0.860   3.942   3.326  0.00  0.00    +0.280 C 
BRANCH  13  14
ATOM     14  C   LIG    1        0.678   4.856   2.143  0.00  0.00    +0.510 C 
ATOM     15  N   LIG    1        0.757   4.362   0.891  0.00  0.00    -0.590 N 
ATOM     16  C   LIG    1        1.021   2.933   0.657  0.00  0.00    +0.250 C 
ATOM     17  C   LIG    1        2.175   2.813  -0.346  0.00  0.00    +0.220 C 
ATOM     18  O   LIG    1        1.880   3.603  -1.500  0.00  0.00    -0.370 OA
ATOM     19  C   LIG    1        1.758   5.003  -1.236  0.00  0.00    +0.230 C 
ATOM     20  C   LIG    1        0.582   5.235  -0.281  0.00  0.00    +0.270 C 
ATOM     21  O   LIG    1        0.460   6.037   2.316  0.00  0.00    -0.530 OA
ENDBRANCH  13  14
ENDBRANCH   1  13
TORSDOF 5
