REMARK  Name = ZINCrH00000autxg.0
REMARK                            x       y       z     vdW  Elec       q    Type
REMARK                         _______ _______ _______ _____ _____    ______ ____
ROOT
ATOM      1  N   LIG    1        0.044   1.196   2.451  0.00  0.00    -0.710 N 
ATOM      2  H   LIG    1        0.874   0.704   2.349  0.00  0.00    +0.410 HD
ATOM      3  C   LIG    1       -0.397   1.526   3.680  0.00  0.00    +0.600 C 
ATOM      4  O   LIG    1       -1.438   2.143   3.807  0.00  0.00    -0.530 OA
ENDROOT
BRANCH   3   5
ATOM      5  C   LIG    1        0.380   1.141   4.870  0.00  0.00    +0.010 A 
ATOM      6  C   LIG    1       -0.014   1.451   6.126  0.00  0.00    -0.030 A 
ATOM      7  S   LIG    1        1.131   0.840   7.239  0.00  0.00    +0.230 S 
ATOM      8  C   LIG    1        2.099   0.196   5.918  0.00  0.00    +0.080 A 
ATOM      9  N   LIG    1        1.520   0.468   4.788  0.00  0.00    -0.430 NA
BRANCH   8  10
ATOM     10  C   LIG    1        3.372  -0.541   6.071  0.00  0.00    -0.060 A 
ATOM     11  C   LIG    1        4.049  -1.011   4.946  0.00  0.00    +0.090 A 
ATOM     12  C   LIG    1        5.238  -1.694   5.095  0.00  0.00    +0.010 A 
ATOM     13  C   LIG    1        5.756  -1.923   6.358  0.00  0.00    +0.070 A 
ATOM     14  C   LIG    1        5.089  -1.465   7.479  0.00  0.00    +0.000 A 
ATOM     15  C   LIG    1        3.899  -0.775   7.345  0.00  0.00    +0.110 A 
ATOM     16  F   LIG    1        3.247  -0.328   8.440  0.00  0.00    -0.130 F 
ENDBRANCH   8  10
ENDBRANCH   3   5
BRANCH   1  17
ATOM     17  C   LIG    1       -0.729   1.579   1.267  0.00  0.00    +0.280 C 
BRANCH  17  19
ATOM     18  C   LIG    1       -0.753   1.593  -1.232  0.00  0.00    +0.040 C 
ATOM     19  C   LIG    1       -0.013   1.086   0.008  0.00  0.00    +0.230 C 
BRANCH  19  20
ATOM     20  N   LIG    1        1.362   1.593  -0.002  0.00  0.00    -0.730 N 
ATOM     21  H   LIG    1        1.583   2.404   0.482  0.00  0.00    +0.400 HD
ATOM     22  C   LIG    1        2.318   0.933  -0.685  0.00  0.00    +0.520 C 
ATOM     23  O   LIG    1        2.042  -0.081  -1.290  0.00  0.00    -0.530 OA
BRANCH  22  24
ATOM     24  C   LIG    1        3.732   1.454  -0.695  0.00  0.00    -0.010 C 
ATOM     25  C   LIG    1        3.752   2.861  -1.298  0.00  0.00    +0.020 C 
ATOM     26  C   LIG    1        5.188   3.390  -1.308  0.00  0.00    +0.010 C 
ATOM     27  C   LIG    1        6.067   2.463  -2.149  0.00  0.00    +0.000 C 
ATOM     28  C   LIG    1        6.047   1.056  -1.547  0.00  0.00    +0.010 C 
ATOM     29  C   LIG    1        4.612   0.527  -1.536  0.00  0.00    +0.040 C 
ENDBRANCH  22  24
ENDBRANCH  19  20
ENDBRANCH  17  19
ENDBRANCH   1  17
TORSDOF 6
