REMARK  Name = ZINCqH00000028KM.0
REMARK                            x       y       z     vdW  Elec       q    Type
REMARK                         _______ _______ _______ _____ _____    ______ ____
ROOT
ATOM      1  N   LIG    1       -0.073   5.565   0.032  0.00  0.00    -0.660 N 
ATOM      2  H   LIG    1       -0.840   6.038   0.393  0.00  0.00    +0.410 HD
ATOM      3  C   LIG    1        0.970   6.256  -0.467  0.00  0.00    +0.510 C 
ATOM      4  O   LIG    1        1.885   5.668  -1.005  0.00  0.00    -0.510 OA
ENDROOT
BRANCH   1   8
ATOM      5  C   LIG    1       -0.010   1.395   0.025  0.00  0.00    +0.100 A 
ATOM      6  C   LIG    1       -1.211   2.071  -0.145  0.00  0.00    -0.020 A 
ATOM      7  C   LIG    1       -1.232   3.452  -0.137  0.00  0.00    +0.020 A 
ATOM      8  C   LIG    1       -0.052   4.164   0.030  0.00  0.00    +0.110 A 
ATOM      9  C   LIG    1        1.150   3.488   0.194  0.00  0.00    +0.050 A 
ATOM     10  C   LIG    1        1.171   2.107   0.192  0.00  0.00    +0.010 A 
BRANCH   5  15
ATOM     11  C   LIG    1       -0.251  -4.174  -0.880  0.00  0.00    +0.030 C 
ATOM     12  C   LIG    1       -0.340  -2.658  -1.061  0.00  0.00    -0.030 C 
ATOM     13  C   LIG    1       -1.298  -2.073  -0.019  0.00  0.00    +0.030 C 
ATOM     14  C   LIG    1       -1.338  -0.551  -0.167  0.00  0.00    +0.180 C 
ATOM     15  N   LIG    1        0.012  -0.004   0.022  0.00  0.00    -0.490 N 
ATOM     16  C   LIG    1        0.939  -0.514  -0.996  0.00  0.00    +0.180 C 
ATOM     17  C   LIG    1        1.046  -2.036  -0.873  0.00  0.00    +0.030 C 
ENDBRANCH   5  15
ENDBRANCH   1   8
BRANCH   3  18
ATOM     18  C   LIG    1        1.001   7.759  -0.358  0.00  0.00    +0.250 C 
ATOM     19  C   LIG    1       -0.212   8.348  -1.080  0.00  0.00    +0.060 C 
BRANCH  18  20
ATOM     20  N   LIG    1        2.230   8.268  -0.971  0.00  0.00    -0.710 N 
ATOM     21  H   LIG    1        2.679   7.751  -1.658  0.00  0.00    +0.410 HD
ATOM     22  C   LIG    1        2.737   9.454  -0.581  0.00  0.00    +0.600 C 
ATOM     23  O   LIG    1        2.173  10.103   0.281  0.00  0.00    -0.530 OA
BRANCH  22  24
ATOM     24  C   LIG    1        3.966   9.964  -1.195  0.00  0.00    -0.280 A 
ATOM     25  C   LIG    1        4.575  11.148  -0.886  0.00  0.00    +0.110 A 
ATOM     26  C   LIG    1        5.717  11.378  -1.615  0.00  0.00    +0.000 A 
ATOM     27  C   LIG    1        6.035  10.418  -2.492  0.00  0.00    -0.050 A 
ATOM     28  S   LIG    1        4.898   9.147  -2.442  0.00  0.00    +0.210 S 
ENDBRANCH  22  24
ENDBRANCH  18  20
ENDBRANCH   3  18
TORSDOF 5
