REMARK  Name = ZINCrH000004uLpw.0
REMARK                            x       y       z     vdW  Elec       q    Type
REMARK                         _______ _______ _______ _____ _____    ______ ____
ROOT
ATOM      1  O   LIG    1       -2.580   0.521  -6.689  0.00  0.00    -0.530 OA
ATOM      2  C   LIG    1       -3.484   1.228  -6.296  0.00  0.00    +0.530 C 
ATOM      3  N   LIG    1       -4.211   1.944  -7.177  0.00  0.00    -0.520 N 
ATOM      4  H   LIG    1       -4.934   2.510  -6.863  0.00  0.00    +0.420 HD
ENDROOT
BRANCH   2   5
ATOM      5  C   LIG    1       -3.793   1.307  -4.824  0.00  0.00    +0.020 C 
ATOM      6  C   LIG    1       -3.609   2.748  -4.295  0.00  0.00    +0.070 C 
ATOM      7  C   LIG    1       -3.031   2.565  -2.910  0.00  0.00    +0.520 C 
ATOM      8  N   LIG    1       -2.560   1.314  -2.768  0.00  0.00    -0.620 N 
ATOM      9  O   LIG    1       -2.997   3.422  -2.052  0.00  0.00    -0.520 OA
ATOM     10  C   LIG    1       -2.740   0.533  -3.997  0.00  0.00    +0.300 C 
BRANCH   8  11
ATOM     11  C   LIG    1       -1.940   0.798  -1.544  0.00  0.00    +0.260 C 
ATOM     12  C   LIG    1       -0.766   1.601  -1.235  0.00  0.00    -0.000 C 
ATOM     13  C   LIG    1       -0.013   1.086   0.008  0.00  0.00    +0.030 C 
ATOM     14  C   LIG    1       -0.725   1.575   1.240  0.00  0.00    +0.000 C 
ATOM     15  C   LIG    1       -1.741   0.547   1.779  0.00  0.00    +0.000 C 
ATOM     16  C   LIG    1       -2.550  -0.140   0.662  0.00  0.00    +0.000 C 
ATOM     17  C   LIG    1       -2.985   0.823  -0.409  0.00  0.00    +0.020 C 
ENDBRANCH   8  11
ENDBRANCH   2   5
BRANCH   3  18
ATOM     18  N   LIG    1       -3.923   1.871  -8.546  0.00  0.00    -0.540 N 
ATOM     19  H   LIG    1       -3.200   1.305  -8.860  0.00  0.00    +0.440 HD
BRANCH  18  20
ATOM     20  C   LIG    1       -4.676   2.613  -9.459  0.00  0.00    +0.220 A 
ATOM     21  C   LIG    1       -5.712   3.423  -9.011  0.00  0.00    -0.040 A 
ATOM     22  C   LIG    1       -6.455   4.155  -9.916  0.00  0.00    +0.080 A 
ATOM     23  C   LIG    1       -6.169   4.082 -11.267  0.00  0.00    +0.010 A 
ATOM     24  C   LIG    1       -5.139   3.276 -11.716  0.00  0.00    -0.130 A 
ATOM     25  C   LIG    1       -4.389   2.546 -10.816  0.00  0.00    +0.000 A 
BRANCH  24  26
ATOM     26  C   LIG    1       -4.831   3.200 -13.190  0.00  0.00    +0.510 C 
ATOM     27  F   LIG    1       -4.976   1.879 -13.629  0.00  0.00    -0.170 F 
ATOM     28  F   LIG    1       -3.517   3.624 -13.414  0.00  0.00    -0.170 F 
ATOM     29  F   LIG    1       -5.715   4.025 -13.894  0.00  0.00    -0.170 F 
ENDBRANCH  24  26
ENDBRANCH  18  20
ENDBRANCH   3  18
TORSDOF 5
