REMARK  Name = ZINCrD00000714cT.0
REMARK                            x       y       z     vdW  Elec       q    Type
REMARK                         _______ _______ _______ _____ _____    ______ ____
ROOT
ATOM      1  C   LIG    1        1.173   1.610  -0.007  0.00  0.00    +0.530 C 
ATOM      2  N   LIG    1       -0.011   0.966   0.007  0.00  0.00    -0.660 N 
ATOM      3  H   LIG    1       -0.035  -0.004   0.010  0.00  0.00    +0.420 HD
ATOM      4  O   LIG    1        1.204   2.819  -0.095  0.00  0.00    -0.510 OA
ENDROOT
BRANCH   1   9
ATOM      5  C   LIG    1        4.441  -0.301   3.047  0.00  0.00    +0.670 C 
ATOM      6  N   LIG    1        3.950   0.195   1.894  0.00  0.00    -0.610 N 
ATOM      7  C   LIG    1        4.726   0.924   0.873  0.00  0.00    +0.270 C 
ATOM      8  C   LIG    1        3.680   1.782   0.114  0.00  0.00    +0.080 C 
ATOM      9  C   LIG    1        2.457   0.828   0.088  0.00  0.00    +0.000 C 
ATOM     10  C   LIG    1        2.554   0.099   1.444  0.00  0.00    +0.300 C 
ATOM     11  O   LIG    1        3.706  -0.887   3.817  0.00  0.00    -0.560 OA
BRANCH   5  12
ATOM     12  O   LIG    1        5.744  -0.146   3.346  0.00  0.00    -0.360 OA
BRANCH  12  14
ATOM     13  C   LIG    1        5.956  -2.216   4.611  0.00  0.00    +0.040 C 
ATOM     14  C   LIG    1        6.203  -0.706   4.604  0.00  0.00    +0.140 C 
ATOM     15  C   LIG    1        5.437  -0.059   5.760  0.00  0.00    +0.040 C 
ATOM     16  C   LIG    1        7.699  -0.434   4.769  0.00  0.00    +0.080 C 
ENDBRANCH  12  14
ENDBRANCH   5  12
ENDBRANCH   1   9
BRANCH   2  17
ATOM     17  C   LIG    1       -1.205   1.696   0.013  0.00  0.00    +0.030 A 
ATOM     18  C   LIG    1       -2.321   1.232   0.705  0.00  0.00    +0.310 A 
ATOM     19  N   LIG    1       -3.430   1.951   0.692  0.00  0.00    -0.490 NA
ATOM     20  C   LIG    1       -3.491   3.093   0.022  0.00  0.00    +0.350 A 
ATOM     21  N   LIG    1       -2.450   3.562  -0.652  0.00  0.00    -0.490 NA
ATOM     22  C   LIG    1       -1.307   2.901  -0.680  0.00  0.00    +0.340 A 
BRANCH  20  23
ATOM     23  C   LIG    1       -4.756   3.867   0.028  0.00  0.00    -0.050 A 
ATOM     24  C   LIG    1       -4.841   5.074  -0.664  0.00  0.00    +0.070 A 
ATOM     25  C   LIG    1       -6.022   5.787  -0.659  0.00  0.00    +0.000 A 
ATOM     26  C   LIG    1       -7.117   5.312   0.040  0.00  0.00    +0.030 A 
ATOM     27  C   LIG    1       -7.037   4.118   0.733  0.00  0.00    +0.000 A 
ATOM     28  C   LIG    1       -5.862   3.393   0.731  0.00  0.00    +0.070 A 
ENDBRANCH  20  23
ENDBRANCH   2  17
TORSDOF 5
