REMARK  Name = ZINCrD00000hQ4Ge.0
REMARK                            x       y       z     vdW  Elec       q    Type
REMARK                         _______ _______ _______ _____ _____    ______ ____
ROOT
ATOM      1  N   LIG    1        0.604  -0.491   1.246  0.00  0.00    -0.720 N 
ATOM      2  H   LIG    1        1.224   0.071   1.737  0.00  0.00    +0.410 HD
ATOM      3  C   LIG    1        0.298  -1.720   1.707  0.00  0.00    +0.600 C 
ATOM      4  O   LIG    1       -0.478  -2.424   1.091  0.00  0.00    -0.500 OA
ENDROOT
BRANCH   3   5
ATOM      5  C   LIG    1        0.907  -2.213   2.965  0.00  0.00    -0.030 A 
ATOM      6  N   LIG    1        1.754  -1.581   3.739  0.00  0.00    -0.320 NA
ATOM      7  O   LIG    1        2.071  -2.244   4.697  0.00  0.00    +0.120 OA
ATOM      8  C   LIG    1        1.483  -3.446   4.724  0.00  0.00    +0.190 A 
ATOM      9  C   LIG    1        0.685  -3.517   3.617  0.00  0.00    -0.110 A 
BRANCH   9  10
ATOM     10  C   LIG    1       -0.188  -4.633   3.177  0.00  0.00    -0.030 A 
ATOM     11  C   LIG    1       -1.516  -4.388   2.835  0.00  0.00    +0.050 A 
ATOM     12  C   LIG    1       -2.322  -5.429   2.420  0.00  0.00    +0.000 A 
ATOM     13  C   LIG    1       -1.817  -6.715   2.356  0.00  0.00    +0.010 A 
ATOM     14  C   LIG    1       -0.500  -6.965   2.700  0.00  0.00    +0.010 A 
ATOM     15  C   LIG    1        0.316  -5.930   3.110  0.00  0.00    +0.020 A 
ENDBRANCH   9  10
ENDBRANCH   3   5
BRANCH   1  16
ATOM     16  C   LIG    1        0.002  -0.004   0.002  0.00  0.00    +0.240 C 
BRANCH  16  17
ATOM     17  C   LIG    1        0.825  -0.496  -1.190  0.00  0.00    -0.010 C 
ATOM     18  C   LIG    1        0.196   0.012  -2.489  0.00  0.00    +0.020 C 
ATOM     19  C   LIG    1        1.019  -0.480  -3.681  0.00  0.00    +0.000 C 
ATOM     20  C   LIG    1        1.040  -2.010  -3.689  0.00  0.00    +0.000 C 
ATOM     21  C   LIG    1        1.669  -2.519  -2.391  0.00  0.00    +0.000 C 
ATOM     22  C   LIG    1        0.846  -2.026  -1.199  0.00  0.00    +0.030 C 
ENDBRANCH  16  17
BRANCH  16  23
ATOM     23  C   LIG    1       -0.019   1.526   0.010  0.00  0.00    +0.280 C 
BRANCH  23  26
ATOM     24  O   LIG    1       -0.401   4.119   0.639  0.00  0.00    -0.510 OA
ATOM     25  C   LIG    1       -0.843   3.320   1.438  0.00  0.00    +0.500 C 
ATOM     26  N   LIG    1       -0.704   1.998   1.216  0.00  0.00    -0.730 N 
ATOM     27  H   LIG    1       -1.058   1.359   1.854  0.00  0.00    +0.400 HD
BRANCH  25  28
ATOM     28  C   LIG    1       -1.549   3.806   2.677  0.00  0.00    +0.170 C 
ATOM     29 CL   LIG    1       -1.573   5.609   2.687  0.00  0.00    -0.130 Cl
ENDBRANCH  25  28
ENDBRANCH  23  26
ENDBRANCH  16  23
ENDBRANCH   1  16
TORSDOF 7
