REMARK  Name = ZINCqH0000003IBE.0
REMARK                            x       y       z     vdW  Elec       q    Type
REMARK                         _______ _______ _______ _____ _____    ______ ____
ROOT
ATOM      1  C   LIG    1       -1.295   2.059   0.019  0.00  0.00    +0.340 C 
ENDROOT
BRANCH   1   2
ATOM      2  C   LIG    1       -1.040   3.544   0.026  0.00  0.00    -0.110 A 
ATOM      3  C   LIG    1       -1.128   4.250   1.207  0.00  0.00    +0.060 A 
ATOM      4  C   LIG    1       -0.888   5.622   1.226  0.00  0.00    +0.070 A 
ATOM      5  C   LIG    1       -0.578   6.266   0.036  0.00  0.00    -0.120 A 
ATOM      6  C   LIG    1       -0.403   7.738   0.359  0.00  0.00    +0.070 C 
ATOM      7  C   LIG    1       -1.045   7.835   1.763  0.00  0.00    +0.200 C 
ATOM      8  C   LIG    1       -2.521   8.226   1.658  0.00  0.00    +0.040 C 
ATOM      9  C   LIG    1       -0.491   5.564  -1.146  0.00  0.00    -0.030 A 
ATOM     10  O   LIG    1       -0.907   6.497   2.270  0.00  0.00    -0.300 OA
ATOM     11  C   LIG    1       -0.722   4.196  -1.157  0.00  0.00    +0.120 A 
BRANCH  11  12
ATOM     12  O   LIG    1       -0.638   3.497  -2.320  0.00  0.00    -0.310 OA
BRANCH  12  13
ATOM     13  C   LIG    1       -0.307   4.236  -3.498  0.00  0.00    +0.170 C 
ATOM     14  C   LIG    1       -0.259   3.288  -4.698  0.00  0.00    +0.070 C 
ENDBRANCH  12  13
ENDBRANCH  11  12
ENDBRANCH   1   2
BRANCH   1  16
ATOM     15  C   LIG    1        0.002  -0.004   0.002  0.00  0.00    +0.560 C 
ATOM     16  N   LIG    1       -0.016   1.344   0.009  0.00  0.00    -0.720 N 
ATOM     17  H   LIG    1        0.817   1.840   0.004  0.00  0.00    +0.400 HD
ATOM     18  O   LIG    1       -1.042  -0.626   0.009  0.00  0.00    -0.540 OA
BRANCH  15  22
ATOM     19  C   LIG    1        3.708  -2.077  -0.046  0.00  0.00    +0.160 A 
ATOM     20  C   LIG    1        2.515  -2.790  -0.037  0.00  0.00    -0.020 A 
ATOM     21  C   LIG    1        1.311  -2.122  -0.022  0.00  0.00    +0.120 A 
ATOM     22  C   LIG    1        1.290  -0.725  -0.014  0.00  0.00    -0.180 A 
ATOM     23  C   LIG    1        2.492  -0.011  -0.028  0.00  0.00    +0.090 A 
ATOM     24  C   LIG    1        3.691  -0.687  -0.038  0.00  0.00    -0.090 A 
BRANCH  19  25
ATOM     25  O   LIG    1        4.892  -2.740  -0.061  0.00  0.00    -0.310 OA
BRANCH  25  27
ATOM     26  C   LIG    1        7.306  -2.861  -0.086  0.00  0.00    +0.070 C 
ATOM     27  C   LIG    1        6.080  -1.945  -0.069  0.00  0.00    +0.170 C 
ENDBRANCH  25  27
ENDBRANCH  19  25
ENDBRANCH  15  22
ENDBRANCH   1  16
TORSDOF 7
