REMARK  Name = ZINCvU0000000AlM.0
REMARK                            x       y       z     vdW  Elec       q    Type
REMARK                         _______ _______ _______ _____ _____    ______ ____
ROOT
ATOM      1  C   LIG    1        3.397   1.970  -0.021  0.00  0.00    +0.180 A 
ATOM      2  C   LIG    1        3.060   3.273  -0.011  0.00  0.00    -0.140 A 
ATOM      3  S   LIG    1        1.302   3.381   0.000  0.00  0.00    +0.240 S 
ATOM      4  C   LIG    1        1.182   1.676  -0.000  0.00  0.00    +0.240 A 
ATOM      5  N   LIG    1        2.361   1.141  -0.014  0.00  0.00    -0.510 NA
ENDROOT
BRANCH   1   9
ATOM      6  C   LIG    1        8.476   1.933  -0.071  0.00  0.00    +0.130 C 
ATOM      7  C   LIG    1        7.033   1.498  -0.059  0.00  0.00    +0.030 A 
ATOM      8  C   LIG    1        5.965   2.317  -0.051  0.00  0.00    -0.040 A 
ATOM      9  C   LIG    1        4.805   1.501  -0.037  0.00  0.00    -0.110 A 
ATOM     10  C   LIG    1        5.226   0.208  -0.046  0.00  0.00    +0.050 A 
ATOM     11  C   LIG    1        4.340  -1.011  -0.043  0.00  0.00    +0.140 C 
ATOM     12  N   LIG    1        6.590   0.208  -0.060  0.00  0.00    -0.430 N 
BRANCH  12  13
ATOM     13  C   LIG    1        7.441  -0.985  -0.074  0.00  0.00    +0.280 C 
BRANCH  13  14
ATOM     14  C   LIG    1        7.723  -1.393  -1.522  0.00  0.00    +0.160 C 
ATOM     15  C   LIG    1        8.517  -2.716  -1.548  0.00  0.00    +0.020 C 
ATOM     16  C   LIG    1        9.521  -2.473  -2.709  0.00  0.00    +0.010 C 
ATOM     17  C   LIG    1        9.784  -0.954  -2.560  0.00  0.00    +0.200 C 
ATOM     18  O   LIG    1        8.524  -0.392  -2.162  0.00  0.00    -0.370 OA
ENDBRANCH  13  14
ENDBRANCH  12  13
ENDBRANCH   1   9
BRANCH   4  19
ATOM     19  N   LIG    1       -0.011   0.966   0.007  0.00  0.00    -0.620 N 
ATOM     20  H   LIG    1        0.002  -0.004   0.002  0.00  0.00    +0.420 HD
ATOM     21  C   LIG    1       -1.187   1.624   0.017  0.00  0.00    +0.560 C 
ATOM     22  O   LIG    1       -1.204   2.839   0.023  0.00  0.00    -0.500 OA
BRANCH  21  23
ATOM     23  C   LIG    1       -2.456   0.868   0.018  0.00  0.00    -0.140 A 
ATOM     24  C   LIG    1       -3.662   1.549   0.034  0.00  0.00    +0.130 A 
ATOM     25  C   LIG    1       -4.864   0.825   0.030  0.00  0.00    -0.070 A 
ATOM     26  C   LIG    1       -6.108   1.481   0.040  0.00  0.00    +0.040 A 
ATOM     27  C   LIG    1       -7.255   0.749   0.042  0.00  0.00    +0.010 A 
ATOM     28  C   LIG    1       -7.217  -0.644   0.035  0.00  0.00    +0.030 A 
ATOM     29  C   LIG    1       -6.031  -1.313   0.025  0.00  0.00    +0.020 A 
ATOM     30  C   LIG    1       -4.825  -0.593   0.022  0.00  0.00    -0.030 A 
ATOM     31  C   LIG    1       -3.584  -1.256   0.013  0.00  0.00    +0.040 A 
ATOM     32  C   LIG    1       -2.431  -0.539   0.011  0.00  0.00    +0.040 A 
ENDBRANCH  21  23
ENDBRANCH   4  19
TORSDOF 5
