REMARK  Name = ZINCrH000004kWa2.0
REMARK                            x       y       z     vdW  Elec       q    Type
REMARK                         _______ _______ _______ _____ _____    ______ ____
ROOT
ATOM      1  N   LIG    1       -1.038   5.367   2.014  0.00  0.00    -0.610 N 
ATOM      2  C   LIG    1       -0.708   4.096   1.709  0.00  0.00    +0.590 C 
ATOM      3  O   LIG    1        0.414   3.688   1.939  0.00  0.00    -0.520 OA
ATOM      4  C   LIG    1       -2.416   5.830   1.831  0.00  0.00    +0.280 C 
ENDROOT
BRANCH   2   5
ATOM      5  C   LIG    1       -1.706   3.203   1.097  0.00  0.00    -0.280 A 
ATOM      6  C   LIG    1       -3.055   3.153   1.382  0.00  0.00    +0.290 A 
ATOM      7  N   LIG    1       -3.604   2.202   0.611  0.00  0.00    -0.460 N 
ATOM      8  H   LIG    1       -4.542   1.954   0.612  0.00  0.00    +0.450 HD
ATOM      9  N   LIG    1       -2.619   1.621  -0.193  0.00  0.00    -0.270 NA
ATOM     10  C   LIG    1       -1.464   2.193   0.062  0.00  0.00    +0.170 A 
BRANCH  10  11
ATOM     11  C   LIG    1       -0.162   1.874  -0.572  0.00  0.00    -0.010 A 
ATOM     12  C   LIG    1        0.138   0.561  -0.930  0.00  0.00    +0.050 A 
ATOM     13  C   LIG    1        1.349   0.270  -1.525  0.00  0.00    +0.030 A 
ATOM     14  C   LIG    1        2.264   1.278  -1.766  0.00  0.00    +0.040 A 
ATOM     15  C   LIG    1        1.972   2.584  -1.413  0.00  0.00    -0.040 A 
ATOM     16 CL   LIG    1        3.126   3.844  -1.720  0.00  0.00    -0.060 Cl
ATOM     17  C   LIG    1        0.763   2.887  -0.816  0.00  0.00    +0.070 A 
ENDBRANCH  10  11
ENDBRANCH   2   5
BRANCH   1  18
ATOM     18  C   LIG    1       -0.019   6.285   2.529  0.00  0.00    +0.340 C 
BRANCH  18  22
ATOM     19  C   LIG    1        1.854   8.313  -0.737  0.00  0.00    -0.120 A 
ATOM     20  C   LIG    1        0.721   8.858  -0.130  0.00  0.00    +0.080 A 
ATOM     21  C   LIG    1        0.121   8.198   0.923  0.00  0.00    +0.010 A 
ATOM     22  C   LIG    1        0.641   7.000   1.378  0.00  0.00    -0.070 A 
ATOM     23  C   LIG    1        1.767   6.457   0.785  0.00  0.00    +0.030 A 
ATOM     24  C   LIG    1        2.373   7.103  -0.272  0.00  0.00    +0.080 A 
BRANCH  19  25
ATOM     25  C   LIG    1        2.502   9.014  -1.864  0.00  0.00    +0.510 C 
ATOM     26  O   LIG    1        2.049  10.066  -2.266  0.00  0.00    -0.500 OA
BRANCH  25  28
ATOM     27  C   LIG    1        4.179   9.228  -3.550  0.00  0.00    +0.260 C 
ATOM     28  O   LIG    1        3.595   8.485  -2.447  0.00  0.00    -0.350 OA
ENDBRANCH  25  28
ENDBRANCH  19  25
ENDBRANCH  18  22
ENDBRANCH   1  18
TORSDOF 6
