REMARK  Name = ZINCpk00001AZipz.0
REMARK                            x       y       z     vdW  Elec       q    Type
REMARK                         _______ _______ _______ _____ _____    ______ ____
ROOT
ATOM      1  C   LIG    1        5.176  -1.817  -1.706  0.00  0.00    +0.290 C 
ENDROOT
BRANCH   1   2
ATOM      2  C   LIG    1        4.309  -0.579  -1.469  0.00  0.00    +0.000 C 
ATOM      3  C   LIG    1        5.168   0.707  -1.467  0.00  0.00    +0.060 C 
ATOM      4  C   LIG    1        5.505   0.926  -0.009  0.00  0.00    +0.520 C 
ATOM      5  N   LIG    1        4.689   0.194   0.769  0.00  0.00    -0.620 N 
ATOM      6  C   LIG    1        4.748   0.165   2.232  0.00  0.00    +0.300 C 
ATOM      7  O   LIG    1        6.382   1.657   0.399  0.00  0.00    -0.520 OA
ATOM      8  C   LIG    1        3.732  -0.574  -0.036  0.00  0.00    +0.300 C 
BRANCH   8   9
ATOM      9  C   LIG    1        2.382   0.096  -0.020  0.00  0.00    -0.160 A 
ATOM     10  C   LIG    1        1.222  -0.663  -0.013  0.00  0.00    +0.080 A 
ATOM     11  C   LIG    1        0.002  -0.004   0.002  0.00  0.00    -0.030 A 
ATOM     12  C   LIG    1       -0.017   1.378   0.010  0.00  0.00    +0.260 A 
ATOM     13  N   LIG    1        1.107   2.068   0.003  0.00  0.00    -0.480 NA
ATOM     14  C   LIG    1        2.285   1.475  -0.012  0.00  0.00    +0.270 A 
ENDBRANCH   8   9
ENDBRANCH   1   2
BRANCH   1  15
ATOM     15  N   LIG    1        5.608  -1.850  -3.105  0.00  0.00    -0.700 N 
ATOM     16  H   LIG    1        5.334  -1.147  -3.715  0.00  0.00    +0.420 HD
BRANCH  15  22
ATOM     17  C   LIG    1        9.574  -7.957  -3.209  0.00  0.00    +0.210 C 
ATOM     18  C   LIG    1        8.818  -6.675  -3.449  0.00  0.00    +0.230 A 
ATOM     19  N   LIG    1        8.130  -6.020  -2.539  0.00  0.00    -0.270 NA
ATOM     20  N   LIG    1        7.587  -4.892  -3.168  0.00  0.00    -0.160 N 
ATOM     21  N   LIG    1        6.784  -3.837  -2.728  0.00  0.00    -0.290 NA
ATOM     22  C   LIG    1        6.412  -2.891  -3.561  0.00  0.00    +0.400 A 
ATOM     23  C   LIG    1        6.822  -2.916  -4.905  0.00  0.00    +0.000 A 
ATOM     24  C   LIG    1        7.608  -3.929  -5.359  0.00  0.00    +0.170 A 
ATOM     25  C   LIG    1        8.002  -4.945  -4.469  0.00  0.00    +0.210 A 
ATOM     26  N   LIG    1        8.746  -6.037  -4.606  0.00  0.00    -0.510 NA
ENDBRANCH  15  22
ENDBRANCH   1  15
TORSDOF 4
