REMARK  Name = ZINCah0000002xvQ.0
REMARK                            x       y       z     vdW  Elec       q    Type
REMARK                         _______ _______ _______ _____ _____    ______ ____
ROOT
ATOM      1  C   LIG    1        0.002  -0.004   0.002  0.00  0.00    +0.100 C 
ATOM      2  C   LIG    1        0.280  -0.624   1.382  0.00  0.00    -0.030 C 
ATOM      3  C   LIG    1       -0.779  -1.683   1.032  0.00  0.00    +0.160 C 
ATOM      4  C   LIG    1       -0.019   1.526   0.010  0.00  0.00    +0.030 C 
ATOM      5  C   LIG    1       -1.396  -0.640   0.086  0.00  0.00    -0.060 C 
ATOM      6  C   LIG    1       -1.882  -1.227  -1.241  0.00  0.00    +0.050 C 
ATOM      7  C   LIG    1       -2.438   0.257   0.757  0.00  0.00    +0.070 C 
ENDROOT
BRANCH   1   9
ATOM      8  C   LIG    1        2.129   0.018  -1.103  0.00  0.00    +0.200 C 
ATOM      9  O   LIG    1        0.816  -0.542  -1.042  0.00  0.00    -0.350 OA
ENDBRANCH   1   9
BRANCH   3  10
ATOM     10  O   LIG    1       -0.246  -2.825   0.358  0.00  0.00    -0.540 OA
ATOM     11  H   LIG    1        0.184  -3.463   0.945  0.00  0.00    +0.380 HD
ENDBRANCH   3  10
TORSDOF 2
