REMARK  Name = ZINCqH00000512J5.0
REMARK                            x       y       z     vdW  Elec       q    Type
REMARK                         _______ _______ _______ _____ _____    ______ ____
ROOT
ATOM      1  C   LIG    1       -2.492   1.728  -0.278  0.00  0.00    +0.590 C 
ATOM      2  N   LIG    1       -3.531   2.561  -0.489  0.00  0.00    -0.710 N 
ATOM      3  H   LIG    1       -3.383   3.518  -0.534  0.00  0.00    +0.410 HD
ATOM      4  O   LIG    1       -2.677   0.527  -0.223  0.00  0.00    -0.510 OA
ENDROOT
BRANCH   1   7
ATOM      5  C   LIG    1        0.378   3.925  -0.105  0.00  0.00    +0.340 A 
ATOM      6  N   LIG    1       -0.855   3.566  -0.267  0.00  0.00    -0.530 NA
ATOM      7  C   LIG    1       -1.136   2.271  -0.115  0.00  0.00    +0.060 A 
ATOM      8  C   LIG    1       -0.055   1.487   0.211  0.00  0.00    -0.140 A 
ATOM      9  S   LIG    1        1.366   2.525   0.298  0.00  0.00    +0.100 S 
BRANCH   8  10
ATOM     10  C   LIG    1       -0.079   0.029   0.442  0.00  0.00    -0.020 A 
ATOM     11  C   LIG    1       -0.921  -0.513   1.416  0.00  0.00    +0.070 A 
ATOM     12  C   LIG    1       -0.943  -1.877   1.622  0.00  0.00    +0.000 A 
ATOM     13  C   LIG    1       -0.125  -2.706   0.875  0.00  0.00    +0.010 A 
ATOM     14  C   LIG    1        0.716  -2.175  -0.088  0.00  0.00    +0.000 A 
ATOM     15  C   LIG    1        0.743  -0.814  -0.309  0.00  0.00    +0.020 A 
ENDBRANCH   8  10
BRANCH   5  16
ATOM     16  N   LIG    1        0.850   5.220  -0.229  0.00  0.00    -0.810 N 
ATOM     17  H   LIG    1        0.240   5.939  -0.455  0.00  0.00    +0.420 HD
ATOM     18  H   LIG    1        1.792   5.408  -0.092  0.00  0.00    +0.420 HD
ENDBRANCH   5  16
ENDBRANCH   1   7
BRANCH   2  19
ATOM     19  C   LIG    1       -4.882   2.019  -0.652  0.00  0.00    +0.260 C 
BRANCH  19  20
ATOM     20  C   LIG    1       -5.868   3.167  -0.877  0.00  0.00    +0.030 C 
BRANCH  20  21
ATOM     21  C   LIG    1       -7.279   2.602  -1.047  0.00  0.00    +0.200 C 
BRANCH  21  22
ATOM     22  O   LIG    1       -8.200   3.675  -1.257  0.00  0.00    -0.310 OA
BRANCH  22  23
ATOM     23  C   LIG    1       -9.507   3.341  -1.427  0.00  0.00    +0.120 A 
ATOM     24  C   LIG    1       -9.893   2.010  -1.398  0.00  0.00    -0.040 A 
ATOM     25  C   LIG    1      -11.223   1.673  -1.567  0.00  0.00    +0.030 A 
ATOM     26  C   LIG    1      -12.167   2.663  -1.775  0.00  0.00    +0.060 A 
ATOM     27  C   LIG    1      -11.782   3.993  -1.809  0.00  0.00    +0.030 A 
ATOM     28  F   LIG    1      -13.466   2.332  -1.945  0.00  0.00    -0.140 F 
ATOM     29  C   LIG    1      -10.455   4.333  -1.636  0.00  0.00    +0.020 A 
ENDBRANCH  22  23
ENDBRANCH  21  22
ENDBRANCH  20  21
ENDBRANCH  19  20
ENDBRANCH   2  19
TORSDOF 8
