REMARK  Name = ZINCnE000001DaZj.0
REMARK                            x       y       z     vdW  Elec       q    Type
REMARK                         _______ _______ _______ _____ _____    ______ ____
ROOT
ATOM      1  N   LIG    1        1.692   1.869   2.451  0.00  0.00    -0.730 N 
ATOM      2  H   LIG    1        0.897   2.415   2.550  0.00  0.00    +0.390 HD
ATOM      3  C   LIG    1        2.146   1.556   1.220  0.00  0.00    +0.520 C 
ATOM      4  O   LIG    1        3.140   0.873   1.096  0.00  0.00    -0.510 OA
ENDROOT
BRANCH   3   5
ATOM      5  C   LIG    1        1.417   2.055  -0.000  0.00  0.00    -0.020 C 
ATOM      6  C   LIG    1       -0.019   1.526   0.010  0.00  0.00    +0.020 C 
ATOM      7  C   LIG    1        0.002  -0.004   0.002  0.00  0.00    -0.020 C 
ATOM      8  C   LIG    1        0.718  -0.497  -1.257  0.00  0.00    +0.030 C 
ATOM      9  C   LIG    1        2.154   0.032  -1.268  0.00  0.00    -0.070 C 
ATOM     10  C   LIG    1        2.133   1.562  -1.259  0.00  0.00    +0.060 C 
BRANCH   9  11
ATOM     11  C   LIG    1        2.859  -0.454  -2.507  0.00  0.00    +0.500 C 
ATOM     12  O   LIG    1        4.020  -0.142  -2.710  0.00  0.00    -0.700 OA
ATOM     13  O   LIG    1        2.268  -1.159  -3.308  0.00  0.00    -0.710 OA
ENDBRANCH   9  11
ENDBRANCH   3   5
BRANCH   1  15
ATOM     14  C   LIG    1        2.422  -0.146   3.629  0.00  0.00    +0.020 C 
ATOM     15  C   LIG    1        2.401   1.383   3.638  0.00  0.00    +0.180 C 
ATOM     16  C   LIG    1        3.836   1.913   3.627  0.00  0.00    +0.020 C 
BRANCH  15  17
ATOM     17  C   LIG    1        1.685   1.877   4.896  0.00  0.00    +0.030 C 
BRANCH  17  18
ATOM     18  C   LIG    1        2.425   1.370   6.136  0.00  0.00    +0.080 C 
BRANCH  18  19
ATOM     19  C   LIG    1        1.720   1.856   7.376  0.00  0.00    -0.080 A 
ATOM     20  C   LIG    1        2.078   3.063   7.947  0.00  0.00    +0.000 A 
ATOM     21  C   LIG    1        1.427   3.511   9.081  0.00  0.00    +0.000 A 
ATOM     22  C   LIG    1        0.426   2.748   9.651  0.00  0.00    -0.010 A 
ATOM     23  C   LIG    1        0.071   1.538   9.083  0.00  0.00    +0.000 A 
ATOM     24  C   LIG    1        0.718   1.092   7.946  0.00  0.00    +0.000 A 
ENDBRANCH  18  19
ENDBRANCH  17  18
ENDBRANCH  15  17
ENDBRANCH   1  15
TORSDOF 6
