REMARK  Name = ZINCc70000001Z9Y.0
REMARK                            x       y       z     vdW  Elec       q    Type
REMARK                         _______ _______ _______ _____ _____    ______ ____
ROOT
ATOM      1  C   LIG    1       -2.890   1.333   0.035  0.00  0.00    +0.030 C 
ATOM      2  C   LIG    1       -2.107   0.887   1.273  0.00  0.00    +0.050 C 
ATOM      3  C   LIG    1       -0.696   1.477   1.217  0.00  0.00    +0.250 C 
ATOM      4  N   LIG    1       -0.012   1.005   0.008  0.00  0.00    -0.380 N 
ATOM      5  C   LIG    1       -0.719   1.490  -1.184  0.00  0.00    +0.250 C 
ATOM      6  H   LIG    1        0.002  -0.004   0.002  0.00  0.00    +0.420 HD
ATOM      7  C   LIG    1       -2.129   0.900  -1.222  0.00  0.00    +0.060 C 
ENDROOT
BRANCH   4   8
ATOM      8  C   LIG    1        1.367   1.512  -0.003  0.00  0.00    +0.380 C 
BRANCH   8   9
ATOM      9  C   LIG    1        2.131   0.914   1.151  0.00  0.00    -0.020 A 
ATOM     10  N   LIG    1        2.241   1.418   2.371  0.00  0.00    -0.350 NA
ATOM     11  N   LIG    1        2.971   0.611   3.062  0.00  0.00    -0.160 NA
ATOM     12  N   LIG    1        3.328  -0.376   2.314  0.00  0.00    -0.160 NA
ATOM     13  N   LIG    1        2.826  -0.214   1.138  0.00  0.00    -0.350 NA
ENDBRANCH   8   9
ENDBRANCH   4   8
TORSDOF 2
