REMARK  Name = ZINCqH00000037Ry.0
REMARK                            x       y       z     vdW  Elec       q    Type
REMARK                         _______ _______ _______ _____ _____    ______ ____
ROOT
ATOM      1  C   LIG    1       -2.862   1.683   0.023  0.00  0.00    +0.020 C 
ATOM      2  C   LIG    1       -3.049   0.166   0.091  0.00  0.00    +0.090 C 
ENDROOT
BRANCH   1   4
ATOM      3  N   LIG    1       -0.691   2.193   1.093  0.00  0.00    -0.600 N 
ATOM      4  C   LIG    1       -2.034   2.140   1.196  0.00  0.00    +0.540 C 
ATOM      5  O   LIG    1       -2.575   2.461   2.233  0.00  0.00    -0.520 OA
BRANCH   3   7
ATOM      6  C   LIG    1        0.414   0.453  -0.224  0.00  0.00    +0.020 C 
ATOM      7  C   LIG    1       -0.044   1.913  -0.192  0.00  0.00    +0.260 C 
ENDBRANCH   3   7
BRANCH   3   8
ATOM      8  C   LIG    1        0.121   2.530   2.264  0.00  0.00    +0.340 C 
BRANCH   8   9
ATOM      9  C   LIG    1        0.320   4.023   2.325  0.00  0.00    -0.110 A 
ATOM     10  C   LIG    1        1.408   4.602   1.698  0.00  0.00    +0.010 A 
ATOM     11  C   LIG    1        1.587   5.971   1.750  0.00  0.00    +0.000 A 
ATOM     12  C   LIG    1        0.684   6.761   2.437  0.00  0.00    +0.010 A 
ATOM     13  C   LIG    1       -0.401   6.182   3.067  0.00  0.00    +0.000 A 
ATOM     14  C   LIG    1       -0.583   4.813   3.011  0.00  0.00    +0.040 A 
ENDBRANCH   8   9
ENDBRANCH   3   8
ENDBRANCH   1   4
BRANCH   1  15
ATOM     15  S   LIG    1       -4.481   2.493   0.076  0.00  0.00    +0.080 S 
BRANCH  15  16
ATOM     16  C   LIG    1       -5.162   1.914  -1.442  0.00  0.00    +0.150 A 
ATOM     17  N   LIG    1       -4.575   1.122  -2.310  0.00  0.00    -0.290 NA
ATOM     18  N   LIG    1       -5.362   0.900  -3.302  0.00  0.00    -0.280 NA
ATOM     19  C   LIG    1       -6.485   1.540  -3.136  0.00  0.00    +0.400 A 
ATOM     20  N   LIG    1       -6.400   2.210  -1.944  0.00  0.00    -0.420 N 
BRANCH  20  21
ATOM     21  C   LIG    1       -7.377   3.029  -1.360  0.00  0.00    +0.100 A 
ATOM     22  C   LIG    1       -7.748   2.833  -0.037  0.00  0.00    +0.030 A 
ATOM     23  C   LIG    1       -8.708   3.645   0.536  0.00  0.00    +0.040 A 
ATOM     24  C   LIG    1       -9.306   4.644  -0.209  0.00  0.00    +0.030 A 
ATOM     25  C   LIG    1       -8.942   4.837  -1.529  0.00  0.00    +0.040 A 
ATOM     26  C   LIG    1       -7.979   4.032  -2.106  0.00  0.00    +0.020 A 
ENDBRANCH  20  21
ENDBRANCH  15  16
ENDBRANCH   1  15
TORSDOF 7
