REMARK  Name = ZINCrD00000hQ6BR.0
REMARK                            x       y       z     vdW  Elec       q    Type
REMARK                         _______ _______ _______ _____ _____    ______ ____
ROOT
ATOM      1  N   LIG    1        1.310  -2.635  -1.407  0.00  0.00    -0.740 N 
ATOM      2  H   LIG    1        1.274  -2.001  -2.140  0.00  0.00    +0.400 HD
ATOM      3  C   LIG    1        1.369  -3.957  -1.661  0.00  0.00    +0.700 C 
ATOM      4  N   LIG    1        1.378  -4.398  -2.934  0.00  0.00    -0.740 N 
ATOM      5  H   LIG    1        1.342  -3.764  -3.668  0.00  0.00    +0.400 HD
ATOM      6  O   LIG    1        1.414  -4.751  -0.742  0.00  0.00    -0.590 OA
ENDROOT
BRANCH   4   7
ATOM      7  C   LIG    1        1.442  -5.836  -3.211  0.00  0.00    +0.250 C 
ATOM      8  C   LIG    1        2.902  -6.293  -3.197  0.00  0.00    +0.020 C 
ATOM      9  C   LIG    1        2.969  -7.794  -3.486  0.00  0.00    +0.010 C 
ATOM     10  C   LIG    1        2.359  -8.077  -4.860  0.00  0.00    +0.180 C 
ATOM     11  C   LIG    1        0.899  -7.619  -4.874  0.00  0.00    +0.050 C 
ATOM     12  C   LIG    1        0.832  -6.118  -4.585  0.00  0.00    +0.030 C 
BRANCH  10  13
ATOM     13  O   LIG    1        2.421  -9.479  -5.130  0.00  0.00    -0.290 OA
BRANCH  13  14
ATOM     14  C   LIG    1        3.534  -9.936  -5.758  0.00  0.00    +0.340 A 
ATOM     15  N   LIG    1        4.494  -9.090  -6.088  0.00  0.00    -0.530 NA
ATOM     16  C   LIG    1        5.592  -9.492  -6.700  0.00  0.00    +0.310 A 
ATOM     17  C   LIG    1        5.778 -10.822  -7.018  0.00  0.00    -0.050 A 
ATOM     18  C   LIG    1        4.793 -11.744  -6.689  0.00  0.00    +0.120 A 
ATOM     19  C   LIG    1        3.656 -11.291  -6.042  0.00  0.00    -0.110 A 
ATOM     20 CL   LIG    1        2.395 -12.400  -5.600  0.00  0.00    -0.040 Cl
ENDBRANCH  13  14
ENDBRANCH  10  13
ENDBRANCH   4   7
BRANCH   1  21
ATOM     21  C   LIG    1        1.300  -2.155  -0.022  0.00  0.00    +0.350 C 
BRANCH  21  25
ATOM     22  C   LIG    1        1.187   2.072   0.002  0.00  0.00    +0.330 A 
ATOM     23  C   LIG    1       -0.017   1.380   0.010  0.00  0.00    -0.040 A 
ATOM     24  C   LIG    1        0.002  -0.004   0.002  0.00  0.00    +0.120 A 
ATOM     25  C   LIG    1        1.231  -0.649  -0.013  0.00  0.00    -0.200 A 
ATOM     26  C   LIG    1        2.389   0.103  -0.020  0.00  0.00    +0.320 A 
ATOM     27  N   LIG    1        2.339   1.421  -0.013  0.00  0.00    -0.540 NA
BRANCH  22  29
ATOM     28  C   LIG    1        2.453   4.082   0.000  0.00  0.00    +0.260 C 
ATOM     29  O   LIG    1        1.182   3.429   0.009  0.00  0.00    -0.310 OA
ENDBRANCH  22  29
ENDBRANCH  21  25
ENDBRANCH   1  21
TORSDOF 6
