REMARK  Name = ZINCpe00000VVH4b.0
REMARK                            x       y       z     vdW  Elec       q    Type
REMARK                         _______ _______ _______ _____ _____    ______ ____
ROOT
ATOM      1  N   LIG    1        3.991   1.946  -0.871  0.00  0.00    -0.550 NA
ATOM      2  C   LIG    1        3.686   1.616   0.527  0.00  0.00    +0.200 C 
ATOM      3  C   LIG    1        2.362   0.850   0.594  0.00  0.00    +0.040 C 
ATOM      4  C   LIG    1        1.248   1.716  -0.001  0.00  0.00    +0.230 C 
ATOM      5  C   LIG    1        1.613   2.086  -1.441  0.00  0.00    +0.030 C 
ATOM      6  C   LIG    1        2.958   2.816  -1.448  0.00  0.00    +0.180 C 
ENDROOT
BRANCH   4   7
ATOM      7  N   LIG    1       -0.011   0.966   0.007  0.00  0.00    -0.720 N 
ATOM      8  H   LIG    1        0.002  -0.004   0.002  0.00  0.00    +0.410 HD
ATOM      9  C   LIG    1       -1.187   1.624   0.017  0.00  0.00    +0.610 C 
ATOM     10  O   LIG    1       -1.204   2.841   0.023  0.00  0.00    -0.520 OA
BRANCH   9  11
ATOM     11  C   LIG    1       -2.447   0.873   0.018  0.00  0.00    -0.090 A 
ATOM     12  C   LIG    1       -3.702   1.412   0.027  0.00  0.00    +0.050 A 
ATOM     13  C   LIG    1       -4.603   0.336   0.025  0.00  0.00    -0.060 A 
ATOM     14  C   LIG    1       -3.868  -0.798   0.015  0.00  0.00    +0.030 A 
ATOM     15  C   LIG    1       -4.419  -2.201   0.009  0.00  0.00    +0.180 C 
ATOM     16  O   LIG    1       -2.570  -0.470   0.006  0.00  0.00    -0.160 OA
ENDBRANCH   9  11
ENDBRANCH   4   7
BRANCH   1  17
ATOM     17  C   LIG    1        5.321   2.559  -0.988  0.00  0.00    +0.500 C 
BRANCH  17  20
ATOM     18  C   LIG    1        5.932   3.225  -4.408  0.00  0.00    +0.150 A 
ATOM     19  N   LIG    1        5.896   2.421  -3.367  0.00  0.00    -0.220 NA
ATOM     20  N   LIG    1        5.496   3.091  -2.342  0.00  0.00    -0.300 N 
ATOM     21  C   LIG    1        5.261   4.359  -2.725  0.00  0.00    +0.430 A 
ATOM     22  N   LIG    1        5.536   4.445  -4.002  0.00  0.00    -0.460 NA
BRANCH  18  23
ATOM     23  C   LIG    1        6.336   2.854  -5.780  0.00  0.00    +0.570 C 
ATOM     24  O   LIG    1        6.676   1.714  -6.026  0.00  0.00    -0.480 OA
BRANCH  23  26
ATOM     25  C   LIG    1        6.736   3.344  -8.082  0.00  0.00    +0.290 C 
ATOM     26  O   LIG    1        6.328   3.780  -6.758  0.00  0.00    -0.340 OA
ENDBRANCH  23  26
ENDBRANCH  18  23
ENDBRANCH  17  20
ENDBRANCH   1  17
TORSDOF 6
