REMARK  Name = ZINCqH00000335Lb.0
REMARK                            x       y       z     vdW  Elec       q    Type
REMARK                         _______ _______ _______ _____ _____    ______ ____
ROOT
ATOM      1  N   LIG    1       -0.288   1.272  -2.443  0.00  0.00    -0.720 N 
ATOM      2  H   LIG    1        0.507   0.726  -2.543  0.00  0.00    +0.400 HD
ATOM      3  C   LIG    1       -0.742   1.585  -1.213  0.00  0.00    +0.500 C 
ATOM      4  O   LIG    1       -1.736   2.268  -1.088  0.00  0.00    -0.510 OA
ENDROOT
BRANCH   1   5
ATOM      5  C   LIG    1       -0.997   1.758  -3.630  0.00  0.00    +0.290 C 
BRANCH   5   6
ATOM      6  C   LIG    1       -0.041   1.828  -4.792  0.00  0.00    -0.090 A 
ATOM      7  C   LIG    1        0.900   0.831  -4.974  0.00  0.00    +0.000 A 
ATOM      8  C   LIG    1        1.775   0.893  -6.043  0.00  0.00    +0.010 A 
ATOM      9  C   LIG    1        1.714   1.956  -6.925  0.00  0.00    +0.000 A 
ATOM     10  C   LIG    1        0.777   2.955  -6.740  0.00  0.00    +0.020 A 
ATOM     11  C   LIG    1       -0.100   2.891  -5.673  0.00  0.00    +0.010 A 
ENDBRANCH   5   6
BRANCH   5  12
ATOM     12  C   LIG    1       -2.141   0.800  -3.968  0.00  0.00    +0.020 C 
BRANCH  12  14
ATOM     13  C   LIG    1       -4.320  -0.135  -3.179  0.00  0.00    +0.000 C 
ATOM     14  C   LIG    1       -3.176   0.823  -2.841  0.00  0.00    +0.000 C 
ENDBRANCH  12  14
ENDBRANCH   5  12
ENDBRANCH   1   5
BRANCH   3  15
ATOM     15  C   LIG    1       -0.013   1.086   0.008  0.00  0.00    +0.330 C 
BRANCH  15  16
ATOM     16  N   LIG    1       -0.698   1.558   1.213  0.00  0.00    -0.520 N 
ATOM     17  C   LIG    1       -0.344   2.744   1.771  0.00  0.00    +0.600 A 
ATOM     18  N   LIG    1       -0.929   3.204   2.837  0.00  0.00    -0.500 NA
ATOM     19  C   LIG    1       -1.915   2.521   3.455  0.00  0.00    +0.070 A 
ATOM     20  C   LIG    1       -2.327   1.294   2.942  0.00  0.00    -0.220 A 
ATOM     21  C   LIG    1       -3.391   0.702   3.728  0.00  0.00    -0.040 A 
ATOM     22  C   LIG    1       -3.773   1.417   4.770  0.00  0.00    -0.200 A 
ATOM     23  C   LIG    1       -4.859   1.006   5.731  0.00  0.00    +0.150 C 
ATOM     24  C   LIG    1       -4.014  -0.626   3.382  0.00  0.00    +0.120 C 
ATOM     25  S   LIG    1       -2.854   2.905   4.892  0.00  0.00    +0.200 S 
ATOM     26  C   LIG    1       -1.674   0.811   1.766  0.00  0.00    +0.570 A 
ATOM     27  O   LIG    1       -1.993  -0.257   1.272  0.00  0.00    -0.520 OA
ENDBRANCH  15  16
ENDBRANCH   3  15
TORSDOF 6
