REMARK  Name = ZINCqH0000032Ule.0
REMARK                            x       y       z     vdW  Elec       q    Type
REMARK                         _______ _______ _______ _____ _____    ______ ____
ROOT
ATOM      1  C   LIG    1       -4.924  -2.558  -4.579  0.00  0.00    -0.660 A 
ATOM      2  C   LIG    1       -4.126  -2.081  -5.603  0.00  0.00    +0.100 A 
ATOM      3  C   LIG    1       -2.915  -1.478  -5.316  0.00  0.00    +0.020 A 
ATOM      4  C   LIG    1       -2.501  -1.345  -4.005  0.00  0.00    +0.080 A 
ATOM      5  C   LIG    1       -3.298  -1.829  -2.975  0.00  0.00    +0.130 A 
ATOM      6  C   LIG    1       -4.513  -2.434  -3.266  0.00  0.00    +0.090 A 
ENDROOT
BRANCH   5   7
ATOM      7  N   LIG    1       -2.879  -1.702  -1.646  0.00  0.00    -0.670 N 
ATOM      8  H   LIG    1       -3.532  -1.567  -0.942  0.00  0.00    +0.420 HD
ATOM      9  C   LIG    1       -1.567  -1.768  -1.343  0.00  0.00    +0.520 C 
ATOM     10  O   LIG    1       -0.758  -2.032  -2.208  0.00  0.00    -0.500 OA
BRANCH   9  11
ATOM     11  C   LIG    1       -1.105  -1.513   0.068  0.00  0.00    +0.130 C 
BRANCH  11  12
ATOM     12  C   LIG    1        0.394  -1.647   0.138  0.00  0.00    -0.100 A 
ATOM     13  C   LIG    1        1.199  -0.541  -0.078  0.00  0.00    +0.130 A 
ATOM     14  C   LIG    1        2.577  -0.665  -0.013  0.00  0.00    +0.000 A 
ATOM     15  C   LIG    1        3.147  -1.892   0.268  0.00  0.00    +0.080 A 
ATOM     16  C   LIG    1        2.344  -2.996   0.483  0.00  0.00    +0.020 A 
ATOM     17  F   LIG    1        0.640   0.657  -0.357  0.00  0.00    -0.130 F 
ATOM     18  C   LIG    1        0.968  -2.874   0.419  0.00  0.00    +0.000 A 
ATOM     19 CL   LIG    1       -0.040  -4.261   0.690  0.00  0.00    -0.050 Cl
ENDBRANCH  11  12
ENDBRANCH   9  11
ENDBRANCH   5   7
BRANCH   1  20
ATOM     20  S   LIG    1       -6.466  -3.325  -4.950  0.00  0.00    +2.700 S 
ATOM     21  O   LIG    1       -6.770  -4.168  -3.848  0.00  0.00    -0.960 OA
ATOM     22  O   LIG    1       -6.367  -3.799  -6.287  0.00  0.00    -0.950 OA
BRANCH  20  23
ATOM     23  N   LIG    1       -7.616  -2.135  -4.960  0.00  0.00    -1.120 NA
ATOM     24  H   LIG    1       -8.325  -2.139  -4.298  0.00  0.00    +0.420 HD
BRANCH  23  25
ATOM     25  C   LIG    1       -7.564  -1.074  -5.970  0.00  0.00    +0.260 C 
BRANCH  25  26
ATOM     26  C   LIG    1       -8.904  -0.336  -6.004  0.00  0.00    +0.010 C 
BRANCH  26  28
ATOM     27  C   LIG    1      -10.189   1.509  -7.093  0.00  0.00    +0.020 C 
ATOM     28  C   LIG    1       -8.849   0.771  -7.058  0.00  0.00    +0.020 C 
ENDBRANCH  26  28
ENDBRANCH  25  26
ENDBRANCH  23  25
ENDBRANCH  20  23
ENDBRANCH   1  20
TORSDOF 8
