REMARK  Name = ZINCvU0000000DmC.0
REMARK                            x       y       z     vdW  Elec       q    Type
REMARK                         _______ _______ _______ _____ _____    ______ ____
ROOT
ATOM      1  N   LIG    1       -0.118   1.185   2.566  0.00  0.00    -0.450 N 
ATOM      2  C   LIG    1       -0.356   0.025   3.246  0.00  0.00    +0.160 A 
ATOM      3  N   LIG    1        0.639  -0.145   4.088  0.00  0.00    -0.280 NA
ATOM      4  N   LIG    1        1.473   0.828   3.986  0.00  0.00    -0.260 NA
ATOM      5  C   LIG    1        1.064   1.675   3.070  0.00  0.00    +0.230 A 
ENDROOT
BRANCH   5   6
ATOM      6  C   LIG    1        1.745   2.921   2.659  0.00  0.00    -0.020 A 
ATOM      7  C   LIG    1        1.442   3.513   1.432  0.00  0.00    +0.030 A 
ATOM      8  C   LIG    1        2.077   4.678   1.056  0.00  0.00    +0.040 A 
ATOM      9  C   LIG    1        3.022   5.254   1.888  0.00  0.00    -0.020 A 
ATOM     10  C   LIG    1        3.332   4.668   3.104  0.00  0.00    +0.050 A 
ATOM     11 CL   LIG    1        3.823   6.717   1.404  0.00  0.00    -0.060 Cl
ATOM     12  C   LIG    1        2.699   3.506   3.493  0.00  0.00    +0.090 A 
ENDBRANCH   5   6
BRANCH   1  13
ATOM     13  C   LIG    1       -0.952   1.785   1.521  0.00  0.00    +0.320 C 
BRANCH  13  14
ATOM     14  C   LIG    1       -0.569   1.196   0.162  0.00  0.00    +0.170 C 
BRANCH  14  16
ATOM     15  C   LIG    1       -1.104   1.297  -2.172  0.00  0.00    +0.230 C 
ATOM     16  O   LIG    1       -1.382   1.781  -0.857  0.00  0.00    -0.380 OA
ENDBRANCH  14  16
ENDBRANCH  13  14
ENDBRANCH   1  13
BRANCH   2  17
ATOM     17  S   LIG    1       -1.738  -1.048   3.033  0.00  0.00    +0.040 S 
BRANCH  17  18
ATOM     18  C   LIG    1       -1.341  -2.320   4.256  0.00  0.00    +0.170 C 
BRANCH  18  19
ATOM     19  C   LIG    1       -2.417  -3.375   4.252  0.00  0.00    +0.030 A 
ATOM     20  C   LIG    1       -2.202  -4.589   3.684  0.00  0.00    -0.050 A 
ATOM     21  C   LIG    1       -3.227  -5.560   3.693  0.00  0.00    +0.510 A 
ATOM     22  O   LIG    1       -4.422  -5.317   4.253  0.00  0.00    -0.270 OA
ATOM     23  C   LIG    1       -4.701  -4.131   4.835  0.00  0.00    +0.150 A 
ATOM     24  C   LIG    1       -5.943  -3.898   5.410  0.00  0.00    -0.100 A 
ATOM     25  C   LIG    1       -6.205  -2.687   6.016  0.00  0.00    -0.030 A 
ATOM     26  C   LIG    1       -5.244  -1.687   6.043  0.00  0.00    +0.010 A 
ATOM     27  C   LIG    1       -4.007  -1.894   5.474  0.00  0.00    +0.080 A 
ATOM     28  C   LIG    1       -7.553  -2.442   6.642  0.00  0.00    +0.120 C 
ATOM     29  C   LIG    1       -6.998  -4.974   5.389  0.00  0.00    +0.110 C 
ATOM     30  O   LIG    1       -3.021  -6.645   3.180  0.00  0.00    -0.450 OA
ATOM     31  C   LIG    1       -3.724  -3.121   4.867  0.00  0.00    -0.150 A 
ENDBRANCH  18  19
ENDBRANCH  17  18
ENDBRANCH   2  17
TORSDOF 7
