REMARK  Name = ZINCrH00000No4Zt.0
REMARK                            x       y       z     vdW  Elec       q    Type
REMARK                         _______ _______ _______ _____ _____    ______ ____
ROOT
ATOM      1  N   LIG    1        3.662   3.326   0.631  0.00  0.00    -0.620 NA
ATOM      2  C   LIG    1        3.654   2.155  -0.007  0.00  0.00    +0.540 C 
ATOM      3  N   LIG    1        4.800   1.704  -0.414  0.00  0.00    -0.620 NA
ATOM      4  C   LIG    1        5.077   0.602  -1.098  0.00  0.00    +0.490 A 
ATOM      5  C   LIG    1        6.090   0.684  -2.076  0.00  0.00    +0.040 A 
ATOM      6  C   LIG    1        6.399  -0.410  -2.830  0.00  0.00    +0.170 A 
ATOM      7  C   LIG    1        5.699  -1.603  -2.622  0.00  0.00    -0.170 A 
ATOM      8  C   LIG    1        4.736  -1.662  -1.672  0.00  0.00    +0.330 A 
ATOM      9 BR   LIG    1        6.095  -3.130  -3.666  0.00  0.00    +0.000 Br
ATOM     10  N   LIG    1        4.438  -0.579  -0.901  0.00  0.00    -0.460 N 
ATOM     11  C   LIG    1        3.428  -0.741   0.141  0.00  0.00    +0.360 C 
ATOM     12  C   LIG    1        2.226   0.116  -0.136  0.00  0.00    -0.090 A 
ATOM     13  C   LIG    1        0.993  -0.476  -0.327  0.00  0.00    +0.040 A 
ATOM     14  C   LIG    1       -0.127   0.305  -0.551  0.00  0.00    +0.050 A 
ATOM     15  C   LIG    1       -0.017   1.683  -0.583  0.00  0.00    +0.040 A 
ATOM     16  C   LIG    1        1.210   2.285  -0.399  0.00  0.00    +0.030 A 
ATOM     17  C   LIG    1        2.347   1.502  -0.179  0.00  0.00    -0.120 A 
ENDROOT
BRANCH   1  19
ATOM     18  O   LIG    1        1.985   3.110   2.064  0.00  0.00    -0.490 OA
ATOM     19  C   LIG    1        2.545   3.779   1.211  0.00  0.00    +0.580 C 
BRANCH  19  20
ATOM     20  C   LIG    1        1.990   5.085   0.821  0.00  0.00    +0.010 A 
ATOM     21  C   LIG    1        0.861   5.660   1.326  0.00  0.00    +0.040 A 
ATOM     22  C   LIG    1        0.710   6.895   0.674  0.00  0.00    +0.100 A 
ATOM     23  C   LIG    1        1.737   7.013  -0.195  0.00  0.00    +0.030 A 
ATOM     24  O   LIG    1        2.507   5.920  -0.103  0.00  0.00    -0.120 OA
BRANCH  23  25
ATOM     25  N   LIG    1        1.973   8.161  -1.099  0.00  0.00    +0.060 N 
ATOM     26  O   LIG    1        2.936   8.161  -1.845  0.00  0.00    -0.120 OA
ATOM     27  O   LIG    1        1.205   9.106  -1.098  0.00  0.00    -0.120 OA
ENDBRANCH  23  25
ENDBRANCH  19  20
ENDBRANCH   1  19
TORSDOF 3
