REMARK  Name = ZINCtV000002PunL.0
REMARK                            x       y       z     vdW  Elec       q    Type
REMARK                         _______ _______ _______ _____ _____    ______ ____
ROOT
ATOM      1  C   LIG    1        2.989  -2.145  -2.749  0.00  0.00    +0.180 A 
ATOM      2  N   LIG    1        2.789  -2.735  -1.591  0.00  0.00    -0.280 NA
ATOM      3  N   LIG    1        2.978  -4.001  -1.702  0.00  0.00    -0.230 NA
ATOM      4  C   LIG    1        3.310  -4.300  -2.937  0.00  0.00    +0.220 A 
ATOM      5  N   LIG    1        3.322  -3.121  -3.648  0.00  0.00    -0.410 N 
ENDROOT
BRANCH   4   6
ATOM      6  C   LIG    1        3.607  -5.648  -3.465  0.00  0.00    -0.010 A 
ATOM      7  C   LIG    1        4.742  -5.859  -4.248  0.00  0.00    +0.070 A 
ATOM      8  C   LIG    1        5.015  -7.120  -4.738  0.00  0.00    +0.050 A 
ATOM      9  C   LIG    1        4.165  -8.175  -4.454  0.00  0.00    -0.010 A 
ATOM     10  C   LIG    1        3.036  -7.973  -3.677  0.00  0.00    +0.050 A 
ATOM     11 CL   LIG    1        4.515  -9.758  -5.074  0.00  0.00    -0.040 Cl
ATOM     12  C   LIG    1        2.755  -6.718  -3.176  0.00  0.00    +0.010 A 
ATOM     13 CL   LIG    1        1.344  -6.467  -2.197  0.00  0.00    -0.020 Cl
ENDBRANCH   4   6
BRANCH   5  14
ATOM     14  C   LIG    1        3.618  -2.954  -5.009  0.00  0.00    +0.100 A 
ATOM     15  C   LIG    1        2.770  -3.481  -5.974  0.00  0.00    +0.090 A 
ATOM     16  C   LIG    1        3.059  -3.311  -7.314  0.00  0.00    +0.040 A 
ATOM     17  C   LIG    1        4.200  -2.626  -7.696  0.00  0.00    +0.130 A 
ATOM     18  C   LIG    1        5.052  -2.105  -6.734  0.00  0.00    -0.060 A 
ATOM     19 CL   LIG    1        6.482  -1.247  -7.215  0.00  0.00    -0.020 Cl
ATOM     20  F   LIG    1        4.484  -2.466  -9.007  0.00  0.00    -0.110 F 
ATOM     21  C   LIG    1        4.762  -2.268  -5.393  0.00  0.00    +0.080 A 
ENDBRANCH   5  14
BRANCH   1  22
ATOM     22  S   LIG    1        2.848  -0.420  -3.081  0.00  0.00    +0.040 S 
BRANCH  22  29
ATOM     23  O   LIG    1        0.492  -1.223  -1.739  0.00  0.00    -0.420 OA
ATOM     24  C   LIG    1        1.024  -0.375  -1.062  0.00  0.00    +0.370 C 
ATOM     25  C   LIG    1        0.352   0.158   0.183  0.00  0.00    +0.030 C 
ATOM     26  C   LIG    1        0.340   1.688   0.113  0.00  0.00    +0.030 C 
ATOM     27  C   LIG    1        1.766   2.199  -0.101  0.00  0.00    +0.030 C 
ATOM     28  C   LIG    1        2.295   1.709  -1.450  0.00  0.00    +0.070 C 
ATOM     29  C   LIG    1        2.380   0.179  -1.439  0.00  0.00    +0.010 C 
ENDBRANCH  22  29
ENDBRANCH   1  22
TORSDOF 4
