REMARK  Name = ZINCrH000001kV3n.0
REMARK                            x       y       z     vdW  Elec       q    Type
REMARK                         _______ _______ _______ _____ _____    ______ ____
ROOT
ATOM      1  C   LIG    1       -2.633   0.336   7.061  0.00  0.00    +0.240 C 
ATOM      2  C   LIG    1       -3.649   1.464   7.287  0.00  0.00    +0.270 C 
ATOM      3  N   LIG    1       -3.073   2.147   6.119  0.00  0.00    -0.650 N 
ATOM      4  C   LIG    1       -2.955   3.423   5.702  0.00  0.00    +0.550 C 
ATOM      5  O   LIG    1       -3.324   4.331   6.415  0.00  0.00    -0.530 OA
ATOM      6  C   LIG    1       -2.688   0.824   5.604  0.00  0.00    +0.270 C 
ENDROOT
BRANCH   1   9
ATOM      7  O   LIG    1       -0.864  -1.618   7.634  0.00  0.00    -0.530 OA
ATOM      8  C   LIG    1       -0.550  -0.506   8.004  0.00  0.00    +0.530 C 
ATOM      9  N   LIG    1       -1.345   0.546   7.726  0.00  0.00    -0.710 N 
ATOM     10  H   LIG    1       -1.063   1.443   7.966  0.00  0.00    +0.400 HD
BRANCH   8  11
ATOM     11  C   LIG    1        0.729  -0.302   8.775  0.00  0.00    +0.010 C 
BRANCH  11  12
ATOM     12  C   LIG    1        1.886  -0.093   7.796  0.00  0.00    +0.010 C 
ATOM     13  C   LIG    1        3.029   0.762   8.367  0.00  0.00    +0.020 C 
ATOM     14  C   LIG    1        3.120   1.424   6.980  0.00  0.00    +0.010 C 
ATOM     15  C   LIG    1        1.643   1.042   6.787  0.00  0.00    +0.010 C 
ENDBRANCH  11  12
BRANCH  11  16
ATOM     16  C   LIG    1        1.007  -1.535   9.637  0.00  0.00    +0.010 C 
ATOM     17  C   LIG    1        0.211  -1.558  10.953  0.00  0.00    +0.010 C 
ATOM     18  C   LIG    1        1.487  -2.101  11.622  0.00  0.00    +0.010 C 
ATOM     19  C   LIG    1        2.277  -1.412  10.496  0.00  0.00    +0.020 C 
ENDBRANCH  11  16
ENDBRANCH   8  11
ENDBRANCH   1   9
BRANCH   4  20
ATOM     20  C   LIG    1       -2.365   3.721   4.348  0.00  0.00    +0.010 C 
BRANCH  20  21
ATOM     21  C   LIG    1       -1.518   4.993   4.429  0.00  0.00    +0.010 C 
ATOM     22  C   LIG    1       -0.382   5.044   3.393  0.00  0.00    +0.020 C 
ATOM     23  C   LIG    1        0.496   5.647   4.503  0.00  0.00    +0.010 C 
ATOM     24  C   LIG    1       -0.424   4.936   5.509  0.00  0.00    +0.000 C 
ENDBRANCH  20  21
BRANCH  20  25
ATOM     25  C   LIG    1       -3.491   3.924   3.333  0.00  0.00    -0.010 C 
ATOM     26  C   LIG    1       -2.993   4.235   1.912  0.00  0.00    +0.020 C 
ATOM     27  C   LIG    1       -4.117   3.320   1.399  0.00  0.00    +0.010 C 
ATOM     28  C   LIG    1       -4.052   2.608   2.760  0.00  0.00    +0.010 C 
ENDBRANCH  20  25
ENDBRANCH   4  20
TORSDOF 7
