REMARK  Name = ZINCrg000000rFWK.0
REMARK                            x       y       z     vdW  Elec       q    Type
REMARK                         _______ _______ _______ _____ _____    ______ ____
ROOT
ATOM      1  C   LIG    1       -7.911   3.973  -1.296  0.00  0.00    +0.150 A 
ATOM      2  C   LIG    1       -7.261   5.091  -1.802  0.00  0.00    -0.010 A 
ATOM      3  C   LIG    1       -7.986   6.082  -2.434  0.00  0.00    +0.050 A 
ATOM      4  C   LIG    1       -9.359   5.967  -2.554  0.00  0.00    -0.120 A 
ATOM      5  C   LIG    1      -10.010   4.858  -2.046  0.00  0.00    +0.070 A 
ATOM      6  C   LIG    1       -9.290   3.861  -1.418  0.00  0.00    +0.020 A 
ENDROOT
BRANCH   4   7
ATOM      7  C   LIG    1      -10.148   7.054  -3.238  0.00  0.00    +0.170 C 
ATOM      8  N   LIG    1       -9.255   8.132  -3.697  0.00  0.00    -0.720 N 
ATOM      9  H   LIG    1       -8.691   8.693  -3.142  0.00  0.00    +0.440 HD
ATOM     10  C   LIG    1       -9.376   8.188  -5.036  0.00  0.00    +0.710 C 
ATOM     11  N   LIG    1      -10.237   7.280  -5.510  0.00  0.00    -0.680 N 
ATOM     12  H   LIG    1      -10.453   7.172  -6.449  0.00  0.00    +0.440 HD
ATOM     13  O   LIG    1       -8.771   8.975  -5.737  0.00  0.00    -0.540 OA
ATOM     14  C   LIG    1      -11.223   7.607  -2.302  0.00  0.00    +0.090 C 
ATOM     15  C   LIG    1      -10.768   6.535  -4.521  0.00  0.00    +0.540 C 
ATOM     16  O   LIG    1      -11.574   5.636  -4.633  0.00  0.00    -0.450 OA
ENDBRANCH   4   7
BRANCH   1  18
ATOM     17  C   LIG    1       -7.555   1.677  -0.785  0.00  0.00    +0.510 C 
ATOM     18  N   LIG    1       -7.179   2.965  -0.659  0.00  0.00    -0.670 N 
ATOM     19  H   LIG    1       -6.400   3.194  -0.127  0.00  0.00    +0.420 HD
ATOM     20  O   LIG    1       -8.574   1.399  -1.379  0.00  0.00    -0.510 OA
BRANCH  17  22
ATOM     21  C   LIG    1       -5.311   0.623  -0.808  0.00  0.00    +0.060 C 
ATOM     22  C   LIG    1       -6.708   0.583  -0.187  0.00  0.00    +0.250 C 
BRANCH  22  23
ATOM     23  N   LIG    1       -7.327  -0.717  -0.459  0.00  0.00    -0.710 N 
ATOM     24  H   LIG    1       -7.916  -0.824  -1.222  0.00  0.00    +0.410 HD
ATOM     25  C   LIG    1       -7.078  -1.764   0.352  0.00  0.00    +0.600 C 
ATOM     26  O   LIG    1       -6.340  -1.630   1.309  0.00  0.00    -0.530 OA
BRANCH  25  27
ATOM     27  C   LIG    1       -7.700  -3.072   0.079  0.00  0.00    -0.240 A 
ATOM     28  C   LIG    1       -8.543  -3.386  -0.947  0.00  0.00    +0.240 A 
ATOM     29  O   LIG    1       -8.887  -4.672  -0.831  0.00  0.00    -0.170 OA
ATOM     30  C   LIG    1       -8.296  -5.232   0.236  0.00  0.00    +0.170 A 
ATOM     31  C   LIG    1       -7.540  -4.311   0.853  0.00  0.00    +0.000 A 
ENDBRANCH  25  27
ENDBRANCH  22  23
ENDBRANCH  17  22
ENDBRANCH   1  18
TORSDOF 5
