REMARK  Name = ZINCpk00000KfL91.0
REMARK                            x       y       z     vdW  Elec       q    Type
REMARK                         _______ _______ _______ _____ _____    ______ ____
ROOT
ATOM      1  N   LIG    1       -0.018   1.481   0.010  0.00  0.00    -0.450 N 
ATOM      2  C   LIG    1        1.417   1.866  -0.001  0.00  0.00    +0.200 C 
ATOM      3  C   LIG    1        2.100   0.848   0.937  0.00  0.00    +0.040 C 
ATOM      4  C   LIG    1        1.169  -0.382   0.939  0.00  0.00    +0.240 C 
ATOM      5  C   LIG    1        0.002  -0.004   0.002  0.00  0.00    +0.160 C 
ATOM      6  C   LIG    1       -1.319  -0.559   0.540  0.00  0.00    +0.070 C 
ENDROOT
BRANCH   1  11
ATOM      7  C   LIG    1       -1.810   1.614  -3.078  0.00  0.00    +0.530 A 
ATOM      8  N   LIG    1       -1.952   2.913  -3.285  0.00  0.00    -0.580 NA
ATOM      9  C   LIG    1       -1.468   3.798  -2.425  0.00  0.00    +0.230 A 
ATOM     10  C   LIG    1       -0.808   3.352  -1.298  0.00  0.00    -0.120 A 
ATOM     11  C   LIG    1       -0.673   1.975  -1.106  0.00  0.00    +0.390 A 
ATOM     12  C   LIG    1       -1.637   5.274  -2.675  0.00  0.00    +0.140 C 
ATOM     13  N   LIG    1       -1.179   1.146  -2.013  0.00  0.00    -0.560 NA
BRANCH   7  15
ATOM     14  C   LIG    1       -2.985   1.298  -5.116  0.00  0.00    +0.270 C 
ATOM     15  O   LIG    1       -2.318   0.742  -3.981  0.00  0.00    -0.290 OA
ENDBRANCH   7  15
ENDBRANCH   1  11
BRANCH   4  16
ATOM     16  N   LIG    1        0.672  -0.642   2.292  0.00  0.00    -0.720 N 
ATOM     17  H   LIG    1       -0.157  -0.236   2.590  0.00  0.00    +0.400 HD
ATOM     18  C   LIG    1        1.367  -1.444   3.123  0.00  0.00    +0.520 C 
ATOM     19  O   LIG    1        2.403  -1.951   2.751  0.00  0.00    -0.520 OA
BRANCH  18  20
ATOM     20  C   LIG    1        0.855  -1.711   4.515  0.00  0.00    +0.170 C 
BRANCH  20  21
ATOM     21  C   LIG    1        1.808  -2.631   5.233  0.00  0.00    +0.020 A 
ATOM     22  N   LIG    1        2.212  -3.802   4.833  0.00  0.00    -0.340 NA
ATOM     23  O   LIG    1        2.981  -4.302   5.622  0.00  0.00    +0.100 OA
ATOM     24  C   LIG    1        3.184  -3.507   6.682  0.00  0.00    -0.030 A 
ATOM     25  C   LIG    1        4.069  -3.794   7.868  0.00  0.00    +0.180 C 
ATOM     26  C   LIG    1        2.437  -2.396   6.478  0.00  0.00    -0.060 A 
ENDBRANCH  20  21
ENDBRANCH  18  20
ENDBRANCH   4  16
TORSDOF 5
