REMARK  Name = ZINCvU0000000CAz.0
REMARK                            x       y       z     vdW  Elec       q    Type
REMARK                         _______ _______ _______ _____ _____    ______ ____
ROOT
ATOM      1  C   LIG    1       -4.757  -2.846  -1.904  0.00  0.00    -0.070 A 
ATOM      2  C   LIG    1       -5.950  -2.146  -1.890  0.00  0.00    +0.040 A 
ATOM      3  C   LIG    1       -5.966  -0.810  -1.547  0.00  0.00    +0.080 A 
ATOM      4  C   LIG    1       -4.774  -0.164  -1.214  0.00  0.00    -0.120 A 
ATOM      5  C   LIG    1       -3.572  -0.875  -1.236  0.00  0.00    +0.040 A 
ATOM      6  C   LIG    1       -3.572  -2.212  -1.575  0.00  0.00    +0.030 A 
ENDROOT
BRANCH   4   7
ATOM      7  C   LIG    1       -4.783   1.267  -0.846  0.00  0.00    +0.570 C 
ATOM      8  N   LIG    1       -3.631   1.888  -0.525  0.00  0.00    -0.580 N 
ATOM      9  H   LIG    1       -2.795   1.395  -0.536  0.00  0.00    +0.390 HD
ATOM     10  O   LIG    1       -5.830   1.885  -0.833  0.00  0.00    -0.490 OA
BRANCH   8  11
ATOM     11  N   LIG    1       -3.639   3.245  -0.176  0.00  0.00    -0.230 NA
ATOM     12  C   LIG    1       -2.554   3.811   0.255  0.00  0.00    +0.140 C 
ATOM     13  C   LIG    1       -2.365   5.312   0.171  0.00  0.00    +0.120 C 
ATOM     14  C   LIG    1       -0.925   5.567  -0.292  0.00  0.00    +0.050 C 
ATOM     15  C   LIG    1        0.046   5.049   0.765  0.00  0.00    +0.080 C 
ATOM     16  C   LIG    1       -0.215   3.602   1.085  0.00  0.00    -0.050 A 
ATOM     17  C   LIG    1        0.800   2.839   1.632  0.00  0.00    +0.010 A 
ATOM     18  C   LIG    1        0.586   1.509   1.940  0.00  0.00    +0.030 A 
ATOM     19  C   LIG    1       -0.646   0.924   1.708  0.00  0.00    +0.010 A 
ATOM     20  C   LIG    1       -1.669   1.670   1.157  0.00  0.00    +0.000 A 
ATOM     21  C   LIG    1       -1.457   3.014   0.846  0.00  0.00    -0.090 A 
ENDBRANCH   8  11
ENDBRANCH   4   7
BRANCH   1  22
ATOM     22  C   LIG    1       -4.747  -4.305  -2.280  0.00  0.00    +0.250 C 
BRANCH  22  23
ATOM     23  O   LIG    1       -4.564  -4.433  -3.691  0.00  0.00    -0.310 OA
BRANCH  23  27
ATOM     24  C   LIG    1       -4.466  -8.262  -5.230  0.00  0.00    +0.100 A 
ATOM     25  C   LIG    1       -4.324  -7.171  -6.075  0.00  0.00    +0.030 A 
ATOM     26  C   LIG    1       -4.357  -5.890  -5.560  0.00  0.00    +0.030 A 
ATOM     27  C   LIG    1       -4.532  -5.694  -4.198  0.00  0.00    +0.090 A 
ATOM     28  C   LIG    1       -4.668  -6.785  -3.353  0.00  0.00    -0.040 A 
ATOM     29  C   LIG    1       -4.640  -8.066  -3.868  0.00  0.00    -0.040 A 
BRANCH  24  30
ATOM     30  O   LIG    1       -4.433  -9.523  -5.737  0.00  0.00    -0.320 OA
BRANCH  30  32
ATOM     31  C   LIG    1       -4.521 -11.932  -5.559  0.00  0.00    +0.070 C 
ATOM     32  C   LIG    1       -4.585 -10.599  -4.809  0.00  0.00    +0.170 C 
ENDBRANCH  30  32
ENDBRANCH  24  30
ENDBRANCH  23  27
ENDBRANCH  22  23
ENDBRANCH   1  22
TORSDOF 7
