REMARK  Name = ZINCrD000001YLMM.0
REMARK                            x       y       z     vdW  Elec       q    Type
REMARK                         _______ _______ _______ _____ _____    ______ ____
ROOT
ATOM      1  C   LIG    1        4.087   0.186  -1.643  0.00  0.00    +0.560 C 
ATOM      2  N   LIG    1        2.939   0.841  -1.381  0.00  0.00    -0.720 N 
ATOM      3  H   LIG    1        2.382   1.154  -2.111  0.00  0.00    +0.400 HD
ATOM      4  O   LIG    1        4.785  -0.207  -0.728  0.00  0.00    -0.530 OA
ENDROOT
BRANCH   1   7
ATOM      5  C   LIG    1        6.067  -0.958  -4.624  0.00  0.00    +0.120 A 
ATOM      6  C   LIG    1        5.687  -0.735  -3.313  0.00  0.00    +0.110 A 
ATOM      7  C   LIG    1        4.497  -0.056  -3.040  0.00  0.00    -0.120 A 
ATOM      8  C   LIG    1        3.693   0.390  -4.092  0.00  0.00    +0.040 A 
ATOM      9  C   LIG    1        4.079   0.169  -5.397  0.00  0.00    +0.010 A 
ATOM     10  C   LIG    1        5.261  -0.505  -5.670  0.00  0.00    +0.100 A 
BRANCH   5  12
ATOM     11  C   LIG    1        7.776  -2.491  -3.995  0.00  0.00    +0.540 C 
ATOM     12  N   LIG    1        7.259  -1.638  -4.902  0.00  0.00    -0.660 N 
ATOM     13  H   LIG    1        7.713  -1.495  -5.747  0.00  0.00    +0.420 HD
ATOM     14  O   LIG    1        7.157  -2.748  -2.980  0.00  0.00    -0.520 OA
BRANCH  11  16
ATOM     15  C   LIG    1        9.597  -3.954  -3.339  0.00  0.00    +0.160 C 
ATOM     16  C   LIG    1        9.087  -3.112  -4.234  0.00  0.00    -0.090 C 
ENDBRANCH  11  16
ENDBRANCH   5  12
BRANCH  10  17
ATOM     17  O   LIG    1        5.634  -0.724  -6.957  0.00  0.00    -0.490 OA
ATOM     18  H   LIG    1        5.305  -1.555  -7.326  0.00  0.00    +0.390 HD
ENDBRANCH  10  17
ENDBRANCH   1   7
BRANCH   2  19
ATOM     19  C   LIG    1        2.532   1.080   0.006  0.00  0.00    +0.330 C 
BRANCH  19  20
ATOM     20  C   LIG    1        1.222   1.826   0.024  0.00  0.00    -0.140 A 
ATOM     21  C   LIG    1        0.028   1.130   0.037  0.00  0.00    +0.070 A 
ATOM     22  C   LIG    1       -1.174   1.808   0.051  0.00  0.00    -0.010 A 
ATOM     23  C   LIG    1       -1.193   3.201   0.062  0.00  0.00    +0.120 A 
ATOM     24  O   LIG    1       -2.249   4.059   0.091  0.00  0.00    -0.300 OA
ATOM     25  C   LIG    1       -1.817   5.356  -0.354  0.00  0.00    +0.200 C 
ATOM     26  C   LIG    1       -0.319   5.368   0.029  0.00  0.00    +0.020 C 
ATOM     27  C   LIG    1       -0.113   5.986   1.414  0.00  0.00    +0.040 C 
ATOM     28  C   LIG    1       -1.991   5.496  -1.868  0.00  0.00    +0.040 C 
ATOM     29  C   LIG    1        0.014   3.889   0.041  0.00  0.00    -0.170 A 
ATOM     30  C   LIG    1        1.212   3.210   0.026  0.00  0.00    +0.080 A 
ENDBRANCH  19  20
ENDBRANCH   2  19
TORSDOF 6
