REMARK  Name = ZINCpe00000yUOds.0
REMARK                            x       y       z     vdW  Elec       q    Type
REMARK                         _______ _______ _______ _____ _____    ______ ____
ROOT
ATOM      1  C   LIG    1       -0.686  -0.695  -0.928  0.00  0.00    +0.610 C 
ATOM      2  N   LIG    1        0.184  -0.005  -0.164  0.00  0.00    -0.600 N 
ATOM      3  C   LIG    1        0.387   1.435  -0.376  0.00  0.00    +0.290 C 
ATOM      4  C   LIG    1        1.884   1.698  -0.568  0.00  0.00    +0.020 C 
ATOM      5  C   LIG    1        2.656   1.122   0.622  0.00  0.00    +0.250 C 
ATOM      6  C   LIG    1        2.437  -0.391   0.690  0.00  0.00    +0.160 C 
ATOM      7  C   LIG    1        0.946  -0.678   0.896  0.00  0.00    +0.260 C 
ATOM      8  O   LIG    1       -0.753  -1.905  -0.831  0.00  0.00    -0.530 OA
ENDROOT
BRANCH   1  16
ATOM      9  C   LIG    1       -3.157   3.835  -2.130  0.00  0.00    +0.070 C 
ATOM     10  C   LIG    1       -2.937   2.952  -3.360  0.00  0.00    +0.250 C 
ATOM     11  C   LIG    1       -4.241   2.843  -4.154  0.00  0.00    +0.050 C 
ATOM     12  C   LIG    1       -4.088   1.786  -5.252  0.00  0.00    +0.020 C 
ATOM     13  C   LIG    1       -4.006   0.399  -4.603  0.00  0.00    +0.130 C 
ATOM     14  C   LIG    1       -3.000   0.462  -3.481  0.00  0.00    +0.020 A 
ATOM     15  C   LIG    1       -2.413  -0.571  -2.847  0.00  0.00    -0.010 A 
ATOM     16  C   LIG    1       -1.557   0.019  -1.884  0.00  0.00    -0.020 A 
ATOM     17  N   LIG    1       -1.690   1.326  -1.999  0.00  0.00    -0.260 NA
ATOM     18  N   LIG    1       -2.527   1.606  -2.932  0.00  0.00    -0.280 N 
ENDBRANCH   1  16
BRANCH   5  19
ATOM     19  N   LIG    1        4.085   1.401   0.457  0.00  0.00    -0.720 N 
ATOM     20  H   LIG    1        4.666   0.737   0.056  0.00  0.00    +0.400 HD
ATOM     21  C   LIG    1        4.592   2.582   0.864  0.00  0.00    +0.550 C 
ATOM     22  O   LIG    1        3.865   3.414   1.365  0.00  0.00    -0.540 OA
BRANCH  21  23
ATOM     23  C   LIG    1        6.062   2.869   0.695  0.00  0.00    -0.080 C 
ATOM     24  C   LIG    1        6.915   2.956   1.962  0.00  0.00    +0.060 C 
ATOM     25  C   LIG    1        6.576   4.227   1.178  0.00  0.00    +0.060 C 
ENDBRANCH  21  23
ENDBRANCH   5  19
BRANCH   6  26
ATOM     26  O   LIG    1        3.182  -0.933   1.782  0.00  0.00    -0.550 OA
ATOM     27  H   LIG    1        3.088  -1.889   1.886  0.00  0.00    +0.380 HD
ENDBRANCH   6  26
TORSDOF 4
