REMARK  Name = ZINCpk00000y4P33.0
REMARK                            x       y       z     vdW  Elec       q    Type
REMARK                         _______ _______ _______ _____ _____    ______ ____
ROOT
ATOM      1  C   LIG    1        3.669   5.454   1.569  0.00  0.00    +0.500 C 
ATOM      2  N   LIG    1        4.021   6.746   1.721  0.00  0.00    -0.460 N 
ATOM      3  O   LIG    1        3.577   4.732   2.540  0.00  0.00    -0.510 OA
ENDROOT
BRANCH   2   4
ATOM      4  C   LIG    1        4.399   7.252   3.043  0.00  0.00    +0.300 C 
ATOM      5  C   LIG    1        5.871   7.699   3.024  0.00  0.00    +0.070 C 
ATOM      6  C   LIG    1        6.105   8.513   4.322  0.00  0.00    -0.310 C 
ATOM      7  S   LIG    1        4.593   9.545   4.420  0.00  0.00    +2.400 S 
ATOM      8  O   LIG    1        4.116   9.555   5.758  0.00  0.00    -0.930 OA
ATOM      9  O   LIG    1        4.814  10.771   3.736  0.00  0.00    -0.930 OA
ATOM     10  C   LIG    1        3.521   8.467   3.403  0.00  0.00    -0.320 C 
ENDBRANCH   2   4
BRANCH   2  11
ATOM     11  N   LIG    1        4.024   7.583   0.642  0.00  0.00    -0.300 NA
ATOM     12  C   LIG    1        2.655   7.873   0.195  0.00  0.00    +0.210 C 
ATOM     13  C   LIG    1        4.829   7.027  -0.454  0.00  0.00    +0.210 C 
ENDBRANCH   2  11
BRANCH   1  14
ATOM     14  C   LIG    1        3.391   4.904   0.194  0.00  0.00    +0.140 C 
BRANCH  14  19
ATOM     15  C   LIG    1       -0.670   1.448   0.992  0.00  0.00    +0.160 A 
ATOM     16  C   LIG    1       -0.759   2.837   0.982  0.00  0.00    -0.070 A 
ATOM     17  C   LIG    1        0.356   3.599   0.765  0.00  0.00    +0.090 A 
ATOM     18  C   LIG    1        1.588   2.981   0.560  0.00  0.00    -0.150 A 
ATOM     19  C   LIG    1        2.950   3.468   0.306  0.00  0.00    -0.160 A 
ATOM     20  C   LIG    1        3.721   2.378   0.195  0.00  0.00    +0.230 A 
ATOM     21  O   LIG    1        2.980   1.267   0.352  0.00  0.00    -0.190 OA
ATOM     22  C   LIG    1        1.688   1.579   0.575  0.00  0.00    +0.100 A 
ATOM     23  C   LIG    1        0.546   0.820   0.796  0.00  0.00    -0.010 A 
BRANCH  15  25
ATOM     24  C   LIG    1       -3.013   1.413   1.399  0.00  0.00    +0.250 C 
ATOM     25  O   LIG    1       -1.788   0.704   1.203  0.00  0.00    -0.310 OA
ENDBRANCH  15  25
ENDBRANCH  14  19
ENDBRANCH   1  14
TORSDOF 5
