REMARK  Name = ZINCpe00000gMlLZ.0
REMARK                            x       y       z     vdW  Elec       q    Type
REMARK                         _______ _______ _______ _____ _____    ______ ____
ROOT
ATOM      1  N   LIG    1       -2.442  -0.451   0.035  0.00  0.00    -0.640 N 
ATOM      2  H   LIG    1       -2.672   0.491   0.043  0.00  0.00    +0.420 HD
ATOM      3  C   LIG    1       -3.417  -1.383   0.044  0.00  0.00    +0.570 C 
ATOM      4  O   LIG    1       -3.129  -2.564   0.034  0.00  0.00    -0.500 OA
ENDROOT
BRANCH   3   5
ATOM      5  C   LIG    1       -4.833  -0.968   0.067  0.00  0.00    -0.170 A 
ATOM      6  C   LIG    1       -5.164   0.392   0.079  0.00  0.00    +0.130 A 
ATOM      7  C   LIG    1       -6.481   0.791   0.101  0.00  0.00    -0.020 A 
ATOM      8  C   LIG    1       -7.494  -0.160   0.110  0.00  0.00    +0.230 A 
ATOM      9  N   LIG    1       -8.828   0.208   0.131  0.00  0.00    -0.640 N 
ATOM     10  H   LIG    1       -9.066   1.148   0.140  0.00  0.00    +0.440 HD
ATOM     11  C   LIG    1       -9.796  -0.723   0.140  0.00  0.00    +0.710 A 
ATOM     12  N   LIG    1       -9.540  -2.041   0.129  0.00  0.00    -0.660 N 
ATOM     13  H   LIG    1      -10.279  -2.669   0.136  0.00  0.00    +0.440 HD
ATOM     14  C   LIG    1       -8.273  -2.508   0.109  0.00  0.00    +0.570 A 
ATOM     15  O   LIG    1       -8.049  -3.703   0.099  0.00  0.00    -0.480 OA
ATOM     16  O   LIG    1      -10.955  -0.356   0.159  0.00  0.00    -0.530 OA
ATOM     17  C   LIG    1       -7.169  -1.530   0.098  0.00  0.00    -0.210 A 
ATOM     18  C   LIG    1       -5.841  -1.933   0.071  0.00  0.00    +0.210 A 
ENDBRANCH   3   5
BRANCH   1  20
ATOM     19  C   LIG    1        0.002  -0.004   0.002  0.00  0.00    -0.100 A 
ATOM     20  C   LIG    1       -1.105  -0.843   0.014  0.00  0.00    +0.190 A 
ATOM     21  C   LIG    1       -0.618  -2.160  -0.004  0.00  0.00    -0.040 A 
ATOM     22  C   LIG    1        0.733  -2.106  -0.016  0.00  0.00    +0.100 A 
ATOM     23  C   LIG    1        1.654  -3.299  -0.030  0.00  0.00    +0.140 C 
ATOM     24  N   LIG    1        1.127  -0.809  -0.013  0.00  0.00    -0.530 N 
ATOM     25  H   LIG    1        2.045  -0.497  -0.019  0.00  0.00    +0.430 HD
BRANCH  19  26
ATOM     26  C   LIG    1       -0.017   1.411   0.010  0.00  0.00    +0.540 C 
ATOM     27  O   LIG    1       -1.079   2.005   0.018  0.00  0.00    -0.520 OA
BRANCH  26  29
ATOM     28  C   LIG    1        1.048   3.528   0.011  0.00  0.00    +0.260 C 
ATOM     29  O   LIG    1        1.143   2.102   0.002  0.00  0.00    -0.360 OA
ENDBRANCH  26  29
ENDBRANCH  19  26
ENDBRANCH   1  20
TORSDOF 4
