REMARK  Name = ZINCqH0000007UhK.0
REMARK                            x       y       z     vdW  Elec       q    Type
REMARK                         _______ _______ _______ _____ _____    ______ ____
ROOT
ATOM      1  C   LIG    1        5.583  -3.625  -0.070  0.00  0.00    +0.600 C 
ATOM      2  N   LIG    1        4.754  -4.688  -0.068  0.00  0.00    -0.630 N 
ATOM      3  H   LIG    1        3.793  -4.553  -0.059  0.00  0.00    +0.430 HD
ATOM      4  O   LIG    1        6.787  -3.794  -0.081  0.00  0.00    -0.440 OA
ENDROOT
BRANCH   2   5
ATOM      5  C   LIG    1        5.274  -5.975  -0.080  0.00  0.00    +0.270 A 
ATOM      6  N   LIG    1        6.534  -6.265  -0.098  0.00  0.00    -0.470 NA
ATOM      7  C   LIG    1        6.871  -7.549  -0.104  0.00  0.00    +0.100 A 
ATOM      8  C   LIG    1        5.811  -8.376  -0.099  0.00  0.00    -0.240 A 
ATOM      9  C   LIG    1        5.884  -9.884  -0.109  0.00  0.00    +0.130 C 
ATOM     10  C   LIG    1        7.297 -10.303  -0.527  0.00  0.00    -0.010 C 
ATOM     11  C   LIG    1        8.316  -9.522   0.309  0.00  0.00    +0.030 C 
ATOM     12  C   LIG    1        7.481 -11.803  -0.287  0.00  0.00    +0.030 C 
ATOM     13  C   LIG    1        8.306  -8.053  -0.120  0.00  0.00    +0.130 C 
ATOM     14  S   LIG    1        4.343  -7.408  -0.080  0.00  0.00    +0.120 S 
ENDBRANCH   2   5
BRANCH   1  19
ATOM     15  C   LIG    1        5.773  -1.050  -0.057  0.00  0.00    +0.080 A 
ATOM     16  C   LIG    1        4.847  -0.057  -0.049  0.00  0.00    +0.090 A 
ATOM     17  N   LIG    1        3.623  -0.651  -0.035  0.00  0.00    -0.210 N 
ATOM     18  N   LIG    1        3.752  -1.929  -0.044  0.00  0.00    -0.230 NA
ATOM     19  C   LIG    1        5.031  -2.259  -0.057  0.00  0.00    -0.020 A 
BRANCH  17  20
ATOM     20  C   LIG    1        2.400   0.031  -0.021  0.00  0.00    +0.130 A 
ATOM     21  C   LIG    1        1.206  -0.680  -0.013  0.00  0.00    +0.030 A 
ATOM     22  C   LIG    1        0.002  -0.004   0.002  0.00  0.00    +0.040 A 
ATOM     23  C   LIG    1       -0.017   1.379   0.010  0.00  0.00    +0.010 A 
ATOM     24  C   LIG    1        1.170   2.089   0.002  0.00  0.00    +0.050 A 
ATOM     25  C   LIG    1        2.377   1.419  -0.013  0.00  0.00    +0.010 A 
ENDBRANCH  17  20
BRANCH  15  27
ATOM     26  C   LIG    1        7.645   0.417  -0.067  0.00  0.00    +0.250 C 
ATOM     27  O   LIG    1        7.127  -0.914  -0.069  0.00  0.00    -0.270 OA
ENDBRANCH  15  27
ENDBRANCH   1  19
TORSDOF 4
