REMARK  Name = ZINCpe000000UwXp.0
REMARK                            x       y       z     vdW  Elec       q    Type
REMARK                         _______ _______ _______ _____ _____    ______ ____
ROOT
ATOM      1  N   LIG    1        1.143   1.899   0.001  0.00  0.00    -0.560 N 
ATOM      2  C   LIG    1       -0.015   1.213   0.054  0.00  0.00    +0.500 C 
ATOM      3  O   LIG    1       -0.002   0.000   0.083  0.00  0.00    -0.510 OA
ATOM      4  C   LIG    1        1.126   3.356  -0.150  0.00  0.00    +0.300 C 
ENDROOT
BRANCH   1   8
ATOM      5  C   LIG    1        4.780  -0.126   0.270  0.00  0.00    +0.220 A 
ATOM      6  C   LIG    1        3.964  -0.308  -0.839  0.00  0.00    -0.060 A 
ATOM      7  C   LIG    1        2.760   0.362  -0.928  0.00  0.00    +0.070 A 
ATOM      8  C   LIG    1        2.365   1.218   0.092  0.00  0.00    +0.070 A 
ATOM      9  C   LIG    1        3.183   1.403   1.198  0.00  0.00    +0.050 A 
ATOM     10  C   LIG    1        4.385   0.729   1.290  0.00  0.00    -0.060 A 
BRANCH   5  12
ATOM     11  C   LIG    1        6.417  -1.707  -0.717  0.00  0.00    +0.280 C 
ATOM     12  N   LIG    1        6.000  -0.805   0.360  0.00  0.00    -0.640 N 
ATOM     13  C   LIG    1        6.861  -0.613   1.530  0.00  0.00    +0.280 C 
ENDBRANCH   5  12
ENDBRANCH   1   8
BRANCH   2  14
ATOM     14  C   LIG    1       -1.329   1.952   0.070  0.00  0.00    +0.340 C 
BRANCH  14  15
ATOM     15  N   LIG    1       -2.431   0.989   0.122  0.00  0.00    -0.530 N 
ATOM     16  C   LIG    1       -2.909   0.573   1.323  0.00  0.00    +0.640 A 
ATOM     17  N   LIG    1       -3.884  -0.279   1.441  0.00  0.00    -0.530 NA
ATOM     18  C   LIG    1       -4.494  -0.813   0.371  0.00  0.00    +0.330 A 
ATOM     19  C   LIG    1       -4.068  -0.442  -0.914  0.00  0.00    -0.340 A 
ATOM     20  C   LIG    1       -4.867  -1.142  -1.837  0.00  0.00    +0.330 A 
ATOM     21  N   LIG    1       -5.712  -1.880  -1.171  0.00  0.00    -0.270 NA
ATOM     22  N   LIG    1       -5.508  -1.700   0.203  0.00  0.00    -0.350 N 
ATOM     23  C   LIG    1       -6.260  -2.357   1.275  0.00  0.00    +0.360 C 
ATOM     24  C   LIG    1       -2.973   0.521  -1.027  0.00  0.00    +0.580 A 
ATOM     25  O   LIG    1       -2.560   0.886  -2.114  0.00  0.00    -0.510 OA
ENDBRANCH  14  15
ENDBRANCH   2  14
TORSDOF 4
