REMARK  Name = ZINCvU0000000JVg.0
REMARK                            x       y       z     vdW  Elec       q    Type
REMARK                         _______ _______ _______ _____ _____    ______ ____
ROOT
ATOM      1  C   LIG    1       -5.570   8.166   2.738  0.00  0.00    +0.110 A 
ATOM      2  C   LIG    1       -5.156   6.898   2.376  0.00  0.00    -0.030 A 
ATOM      3  C   LIG    1       -4.076   6.724   1.518  0.00  0.00    -0.070 A 
ATOM      4  C   LIG    1       -3.417   7.826   1.020  0.00  0.00    -0.080 A 
ATOM      5  C   LIG    1       -2.258   7.707   0.069  0.00  0.00    +0.350 C 
ATOM      6  N   LIG    1       -1.810   6.313  -0.002  0.00  0.00    -0.600 N 
ATOM      7  C   LIG    1       -2.848   5.274  -0.104  0.00  0.00    +0.270 C 
ATOM      8  C   LIG    1       -0.500   5.995   0.032  0.00  0.00    +0.540 C 
ATOM      9  O   LIG    1        0.335   6.870   0.116  0.00  0.00    -0.510 OA
ATOM     10  C   LIG    1       -3.826   9.102   1.385  0.00  0.00    -0.020 A 
ATOM     11  C   LIG    1       -3.678   5.312   1.179  0.00  0.00    +0.080 C 
ATOM     12  C   LIG    1       -4.898   9.279   2.240  0.00  0.00    +0.110 A 
ENDROOT
BRANCH   5  13
ATOM     13  C   LIG    1       -2.690   8.165  -1.301  0.00  0.00    -0.100 A 
ATOM     14  C   LIG    1       -1.991   9.167  -1.947  0.00  0.00    +0.020 A 
ATOM     15  C   LIG    1       -2.384   9.583  -3.205  0.00  0.00    +0.000 A 
ATOM     16  C   LIG    1       -3.482   9.004  -3.813  0.00  0.00    +0.010 A 
ATOM     17  C   LIG    1       -4.185   8.006  -3.164  0.00  0.00    +0.000 A 
ATOM     18  C   LIG    1       -3.788   7.586  -1.908  0.00  0.00    +0.020 A 
ENDBRANCH   5  13
BRANCH   1  20
ATOM     19  C   LIG    1       -7.270   7.138   4.045  0.00  0.00    +0.250 C 
ATOM     20  O   LIG    1       -6.629   8.326   3.575  0.00  0.00    -0.300 OA
ENDBRANCH   1  20
BRANCH  12  21
ATOM     21  O   LIG    1       -5.293  10.532   2.593  0.00  0.00    -0.300 OA
ATOM     22  C   LIG    1       -4.554  11.624   2.042  0.00  0.00    +0.240 C 
ENDBRANCH  12  21
BRANCH   8  23
ATOM     23  C   LIG    1       -0.073   4.551  -0.036  0.00  0.00    +0.080 C 
BRANCH  23  24
ATOM     24  S   LIG    1        1.737   4.452   0.030  0.00  0.00    -0.000 S 
BRANCH  24  25
ATOM     25  C   LIG    1        2.042   2.719  -0.060  0.00  0.00    -0.140 A 
ATOM     26  C   LIG    1        0.980   1.829  -0.154  0.00  0.00    +0.020 A 
ATOM     27  C   LIG    1        1.223   0.470  -0.225  0.00  0.00    +0.020 A 
ATOM     28  C   LIG    1        2.522  -0.004  -0.201  0.00  0.00    +0.040 A 
ATOM     29  C   LIG    1        3.583   0.878  -0.107  0.00  0.00    +0.010 A 
ATOM     30  C   LIG    1        3.348   2.238  -0.036  0.00  0.00    +0.120 A 
ATOM     31  F   LIG    1        4.384   3.100   0.056  0.00  0.00    -0.130 F 
ENDBRANCH  24  25
ENDBRANCH  23  24
ENDBRANCH   8  23
TORSDOF 6
