REMARK  Name = ZINCrH00000No4T8.0
REMARK                            x       y       z     vdW  Elec       q    Type
REMARK                         _______ _______ _______ _____ _____    ______ ____
ROOT
ATOM      1  O   LIG    1        5.970  -2.324  -0.064  0.00  0.00    -0.510 OA
ATOM      2  C   LIG    1        4.906  -2.916  -0.057  0.00  0.00    +0.550 C 
ATOM      3  N   LIG    1        4.884  -4.263  -0.064  0.00  0.00    -0.620 N 
ATOM      4  H   LIG    1        4.037  -4.735  -0.059  0.00  0.00    +0.430 HD
ENDROOT
BRANCH   3   5
ATOM      5  C   LIG    1        6.075  -4.977  -0.078  0.00  0.00    +0.240 A 
ATOM      6  N   LIG    1        6.166  -6.270  -0.086  0.00  0.00    -0.500 NA
ATOM      7  C   LIG    1        7.382  -6.783  -0.100  0.00  0.00    +0.100 A 
ATOM      8  C   LIG    1        8.365  -5.881  -0.104  0.00  0.00    -0.150 A 
ATOM      9  S   LIG    1        7.635  -4.278  -0.096  0.00  0.00    +0.250 S 
BRANCH   7  10
ATOM     10  C   LIG    1        7.639  -8.268  -0.109  0.00  0.00    +0.280 C 
BRANCH  10  11
ATOM     11  N   LIG    1        7.617  -8.778   1.269  0.00  0.00    -0.530 NA
ATOM     12  C   LIG    1        8.741  -8.240   2.048  0.00  0.00    +0.140 C 
ATOM     13  C   LIG    1        8.645  -8.747   3.489  0.00  0.00    +0.220 C 
ATOM     14  O   LIG    1        8.624 -10.177   3.485  0.00  0.00    -0.390 OA
ATOM     15  C   LIG    1        7.542 -10.735   2.736  0.00  0.00    +0.220 C 
ATOM     16  C   LIG    1        7.627 -10.248   1.287  0.00  0.00    +0.160 C 
ENDBRANCH  10  11
ENDBRANCH   7  10
ENDBRANCH   3   5
BRANCH   2  17
ATOM     17  C   LIG    1        3.652  -2.165  -0.042  0.00  0.00    -0.080 C 
ATOM     18  C   LIG    1        3.674  -0.813  -0.036  0.00  0.00    +0.150 C 
BRANCH  18  19
ATOM     19  C   LIG    1        2.415  -0.059  -0.021  0.00  0.00    -0.080 A 
ATOM     20  C   LIG    1        1.190  -0.721  -0.013  0.00  0.00    +0.050 A 
ATOM     21  C   LIG    1        0.002  -0.004   0.002  0.00  0.00    +0.000 A 
ATOM     22  C   LIG    1       -0.016   1.357   0.009  0.00  0.00    +0.050 A 
ATOM     23  C   LIG    1        1.182   2.091   0.002  0.00  0.00    -0.060 A 
ATOM     24  C   LIG    1        1.178   3.497   0.009  0.00  0.00    +0.030 A 
ATOM     25  C   LIG    1        2.360   4.173   0.002  0.00  0.00    +0.010 A 
ATOM     26  C   LIG    1        3.575   3.494  -0.013  0.00  0.00    +0.030 A 
ATOM     27  C   LIG    1        3.615   2.131  -0.020  0.00  0.00    +0.020 A 
ATOM     28  C   LIG    1        2.420   1.404  -0.013  0.00  0.00    -0.030 A 
ENDBRANCH  18  19
ENDBRANCH   2  17
TORSDOF 5
