REMARK  Name = ZINCqH0000051hHt.0
REMARK                            x       y       z     vdW  Elec       q    Type
REMARK                         _______ _______ _______ _____ _____    ______ ____
ROOT
ATOM      1  O   LIG    1        3.530   5.611   0.801  0.00  0.00    -0.550 OA
ATOM      2  C   LIG    1        2.463   5.035   0.717  0.00  0.00    +0.710 C 
ATOM      3  N   LIG    1        2.359   3.912  -0.021  0.00  0.00    -0.520 N 
ATOM      4  C   LIG    1        1.130   3.241  -0.081  0.00  0.00    +0.150 A 
ATOM      5  C   LIG    1       -0.055   3.958  -0.124  0.00  0.00    -0.020 A 
ATOM      6  C   LIG    1       -1.266   3.290  -0.189  0.00  0.00    +0.060 A 
ATOM      7  C   LIG    1       -1.302   1.909  -0.215  0.00  0.00    +0.020 A 
ATOM      8  C   LIG    1       -0.124   1.183  -0.165  0.00  0.00    +0.080 A 
ATOM      9  C   LIG    1        1.089   1.845  -0.100  0.00  0.00    -0.130 A 
ATOM     10  S   LIG    1        2.604   0.942  -0.039  0.00  0.00    +0.020 S 
ATOM     11  C   LIG    1        3.725   2.067  -0.808  0.00  0.00    -0.130 A 
ATOM     12  C   LIG    1        4.829   1.599  -1.498  0.00  0.00    +0.070 A 
ATOM     13  C   LIG    1        5.699   2.497  -2.093  0.00  0.00    +0.020 A 
ATOM     14  C   LIG    1        5.464   3.856  -1.997  0.00  0.00    +0.040 A 
ATOM     15  C   LIG    1        4.361   4.329  -1.310  0.00  0.00    +0.040 A 
ATOM     16  C   LIG    1        3.483   3.439  -0.712  0.00  0.00    +0.160 A 
ATOM     17  N   LIG    1        1.383   5.520   1.361  0.00  0.00    -0.740 N 
ATOM     18  H   LIG    1        0.554   5.017   1.365  0.00  0.00    +0.410 HD
ENDROOT
BRANCH  17  19
ATOM     19  C   LIG    1        1.461   6.808   2.056  0.00  0.00    +0.270 C 
BRANCH  19  20
ATOM     20  C   LIG    1        0.110   7.123   2.699  0.00  0.00    +0.020 C 
BRANCH  20  21
ATOM     21  C   LIG    1        0.192   8.468   3.424  0.00  0.00    +0.180 C 
BRANCH  21  22
ATOM     22  N   LIG    1       -1.106   8.771   4.042  0.00  0.00    -0.540 NA
ATOM     23  C   LIG    1       -2.138   8.996   3.018  0.00  0.00    +0.140 C 
ATOM     24  C   LIG    1       -3.483   9.249   3.704  0.00  0.00    +0.220 C 
ATOM     25  O   LIG    1       -3.356  10.358   4.597  0.00  0.00    -0.390 OA
ATOM     26  C   LIG    1       -2.361  10.173   5.607  0.00  0.00    +0.220 C 
ATOM     27  C   LIG    1       -1.004   9.930   4.941  0.00  0.00    +0.150 C 
ENDBRANCH  21  22
ENDBRANCH  20  21
ENDBRANCH  19  20
ENDBRANCH  17  19
TORSDOF 4
