REMARK  Name = ZINCvU00000005v7.0
REMARK                            x       y       z     vdW  Elec       q    Type
REMARK                         _______ _______ _______ _____ _____    ______ ____
ROOT
ATOM      1  C   LIG    1        2.216   0.989  -0.776  0.00  0.00    -0.130 A 
ATOM      2  C   LIG    1        1.546   2.192  -0.542  0.00  0.00    +0.070 A 
ATOM      3  C   LIG    1        0.195   2.186  -0.273  0.00  0.00    -0.010 A 
ATOM      4  C   LIG    1       -0.506   0.991  -0.233  0.00  0.00    +0.070 A 
ATOM      5  C   LIG    1        0.141  -0.206  -0.461  0.00  0.00    -0.020 A 
ATOM      6  C   LIG    1        1.503  -0.221  -0.735  0.00  0.00    -0.060 A 
ENDROOT
BRANCH   1   9
ATOM      7  N   LIG    1        4.341   2.151  -1.104  0.00  0.00    -0.670 N 
ATOM      8  H   LIG    1        3.867   2.993  -1.016  0.00  0.00    +0.410 HD
ATOM      9  C   LIG    1        3.661   0.988  -1.065  0.00  0.00    +0.550 C 
ATOM     10  O   LIG    1        4.240  -0.062  -1.268  0.00  0.00    -0.480 OA
BRANCH   7  16
ATOM     11  C   LIG    1       11.338   0.082  -0.708  0.00  0.00    +0.230 C 
ATOM     12  C   LIG    1        9.999   0.734  -0.939  0.00  0.00    +0.250 A 
ATOM     13  N   LIG    1        8.863   0.268  -0.515  0.00  0.00    -0.480 NA
ATOM     14  C   LIG    1        7.869   1.112  -0.905  0.00  0.00    +0.050 A 
ATOM     15  C   LIG    1        6.485   1.117  -0.732  0.00  0.00    +0.090 A 
ATOM     16  C   LIG    1        5.731   2.145  -1.271  0.00  0.00    +0.150 A 
ATOM     17  C   LIG    1        6.350   3.175  -1.974  0.00  0.00    +0.040 A 
ATOM     18  C   LIG    1        7.718   3.179  -2.146  0.00  0.00    +0.070 A 
ATOM     19  C   LIG    1        8.486   2.153  -1.616  0.00  0.00    -0.010 A 
ATOM     20  O   LIG    1        9.810   1.880  -1.613  0.00  0.00    -0.210 OA
ENDBRANCH   7  16
ENDBRANCH   1   9
BRANCH   6  21
ATOM     21  S   LIG    1        2.332  -1.748  -1.027  0.00  0.00    +0.090 S 
BRANCH  21  22
ATOM     22  C   LIG    1        1.003  -2.972  -0.863  0.00  0.00    +0.030 C 
BRANCH  22  23
ATOM     23  C   LIG    1        1.561  -4.353  -1.089  0.00  0.00    +0.540 C 
ATOM     24  N   LIG    1        0.750  -5.428  -1.016  0.00  0.00    -0.670 N 
ATOM     25  H   LIG    1       -0.204  -5.308  -0.892  0.00  0.00    +0.410 HD
ATOM     26  O   LIG    1        2.739  -4.498  -1.337  0.00  0.00    -0.490 OA
BRANCH  24  27
ATOM     27  C   LIG    1        1.286  -6.717  -1.119  0.00  0.00    +0.140 A 
ATOM     28  C   LIG    1        0.545  -7.733  -1.708  0.00  0.00    +0.020 A 
ATOM     29  C   LIG    1        1.078  -9.003  -1.813  0.00  0.00    +0.010 A 
ATOM     30  C   LIG    1        2.346  -9.266  -1.322  0.00  0.00    +0.090 A 
ATOM     31  C   LIG    1        3.084  -8.256  -0.730  0.00  0.00    +0.010 A 
ATOM     32  F   LIG    1        2.862 -10.510  -1.421  0.00  0.00    -0.140 F 
ATOM     33  C   LIG    1        2.558  -6.983  -0.627  0.00  0.00    +0.060 A 
ENDBRANCH  24  27
ENDBRANCH  22  23
ENDBRANCH  21  22
ENDBRANCH   6  21
TORSDOF 6
