REMARK  Name = ZINCpe00000gN8P9.0
REMARK                            x       y       z     vdW  Elec       q    Type
REMARK                         _______ _______ _______ _____ _____    ______ ____
ROOT
ATOM      1  C   LIG    1        6.672   0.807  -4.372  0.00  0.00    +0.560 A 
ATOM      2  C   LIG    1        6.190   0.960  -3.060  0.00  0.00    -0.450 A 
ATOM      3  C   LIG    1        7.099   0.638  -1.953  0.00  0.00    +0.580 A 
ATOM      4  N   LIG    1        8.348   0.220  -2.243  0.00  0.00    -0.660 N 
ATOM      5  H   LIG    1        8.960   0.004  -1.522  0.00  0.00    +0.440 HD
ATOM      6  C   LIG    1        8.755   0.099  -3.517  0.00  0.00    +0.710 A 
ATOM      7  O   LIG    1        9.889  -0.281  -3.736  0.00  0.00    -0.520 OA
ATOM      8  O   LIG    1        6.734   0.748  -0.797  0.00  0.00    -0.510 OA
ATOM      9  N   LIG    1        7.957   0.382  -4.558  0.00  0.00    -0.520 N 
ENDROOT
BRANCH   1  10
ATOM     10  N   LIG    1        5.874   1.083  -5.438  0.00  0.00    -0.800 N 
ATOM     11  H   LIG    1        4.910   1.026  -5.350  0.00  0.00    +0.440 HD
ATOM     12  H   LIG    1        6.269   1.338  -6.287  0.00  0.00    +0.410 HD
ENDBRANCH   1  10
BRANCH   9  13
ATOM     13  C   LIG    1        8.471   0.226  -5.921  0.00  0.00    +0.180 C 
ATOM     14  C   LIG    1        7.596  -0.528  -6.924  0.00  0.00    +0.050 C 
ATOM     15  C   LIG    1        8.865  -1.182  -6.371  0.00  0.00    +0.090 C 
ENDBRANCH   9  13
BRANCH   2  16
ATOM     16  C   LIG    1        4.872   1.402  -2.816  0.00  0.00    +0.440 C 
ATOM     17  O   LIG    1        4.170   1.759  -3.740  0.00  0.00    -0.480 OA
BRANCH  16  18
ATOM     18  C   LIG    1        4.336   1.431  -1.407  0.00  0.00    +0.220 C 
BRANCH  18  19
ATOM     19  N   LIG    1        2.920   1.821  -1.430  0.00  0.00    -0.490 NA
BRANCH  19  20
ATOM     20  C   LIG    1        2.244   1.423  -0.188  0.00  0.00    +0.150 C 
ATOM     21  C   LIG    1        3.122   0.966   0.979  0.00  0.00    -0.020 C 
ATOM     22  C   LIG    1        2.292  -0.056   0.199  0.00  0.00    +0.020 C 
ENDBRANCH  19  20
BRANCH  19  23
ATOM     23  C   LIG    1        2.775   3.263  -1.670  0.00  0.00    +0.300 C 
BRANCH  23  24
ATOM     24  C   LIG    1        1.326   3.586  -1.931  0.00  0.00    +0.010 A 
ATOM     25  C   LIG    1        0.414   3.916  -0.999  0.00  0.00    -0.070 A 
ATOM     26  C   LIG    1       -0.807   4.129  -1.679  0.00  0.00    -0.070 A 
ATOM     27  C   LIG    1       -0.566   3.926  -2.987  0.00  0.00    +0.160 A 
ATOM     28  O   LIG    1        0.728   3.594  -3.133  0.00  0.00    -0.160 OA
ENDBRANCH  23  24
ENDBRANCH  19  23
ENDBRANCH  18  19
ENDBRANCH  16  18
ENDBRANCH   2  16
TORSDOF 8
