REMARK  Name = ZINCvU0000000E7b.0
REMARK                            x       y       z     vdW  Elec       q    Type
REMARK                         _______ _______ _______ _____ _____    ______ ____
ROOT
ATOM      1  C   LIG    1       -1.160   7.408  -0.457  0.00  0.00    +0.270 C 
ENDROOT
BRANCH   1   3
ATOM      2  O   LIG    1       -2.187   5.289  -0.622  0.00  0.00    -0.480 OA
ATOM      3  C   LIG    1       -1.176   5.904  -0.356  0.00  0.00    +0.530 C 
ATOM      4  N   LIG    1       -0.067   5.243   0.029  0.00  0.00    -0.690 N 
ATOM      5  H   LIG    1        0.719   5.737   0.311  0.00  0.00    +0.420 HD
BRANCH   4   6
ATOM      6  C   LIG    1       -0.049   3.843   0.022  0.00  0.00    +0.200 A 
ATOM      7  C   LIG    1       -0.556   3.135   1.105  0.00  0.00    -0.030 A 
ATOM      8  C   LIG    1       -0.541   1.753   1.092  0.00  0.00    +0.080 A 
ATOM      9  C   LIG    1       -0.013   1.076   0.008  0.00  0.00    +0.050 A 
ATOM     10  C   LIG    1        0.492   1.778  -1.071  0.00  0.00    +0.090 A 
ATOM     11 CL   LIG    1       -1.213   3.985   2.469  0.00  0.00    -0.040 Cl
ATOM     12  C   LIG    1        0.476   3.159  -1.067  0.00  0.00    -0.170 A 
BRANCH  12  13
ATOM     13  C   LIG    1        1.027   3.923  -2.243  0.00  0.00    +0.510 C 
ATOM     14  F   LIG    1        2.081   4.739  -1.816  0.00  0.00    -0.170 F 
ATOM     15  F   LIG    1        0.018   4.718  -2.797  0.00  0.00    -0.170 F 
ATOM     16  F   LIG    1        1.495   3.023  -3.206  0.00  0.00    -0.170 F 
ENDBRANCH  12  13
ENDBRANCH   4   6
ENDBRANCH   1   3
BRANCH   1  17
ATOM     17  O   LIG    1       -2.443   7.870  -0.882  0.00  0.00    -0.330 OA
BRANCH  17  18
ATOM     18  C   LIG    1       -2.598   9.203  -1.023  0.00  0.00    +0.550 C 
ATOM     19  O   LIG    1       -1.668   9.952  -0.791  0.00  0.00    -0.490 OA
BRANCH  18  20
ATOM     20  C   LIG    1       -3.885   9.748  -1.455  0.00  0.00    -0.270 A 
ATOM     21  C   LIG    1       -4.157  11.077  -1.631  0.00  0.00    +0.150 A 
ATOM     22  C   LIG    1       -5.428  11.364  -2.040  0.00  0.00    -0.180 A 
ATOM     23  C   LIG    1       -6.222  10.237  -2.207  0.00  0.00    -0.130 A 
ATOM     24  C   LIG    1       -7.622  10.379  -2.655  0.00  0.00    -0.100 A 
ATOM     25  C   LIG    1       -8.547   9.352  -2.574  0.00  0.00    +0.060 A 
ATOM     26  C   LIG    1       -9.844   9.570  -3.002  0.00  0.00    -0.010 A 
ATOM     27  C   LIG    1      -10.209  10.807  -3.505  0.00  0.00    +0.070 A 
ATOM     28  C   LIG    1       -9.289  11.835  -3.594  0.00  0.00    +0.000 A 
ATOM     29  C   LIG    1       -7.984  11.636  -3.177  0.00  0.00    +0.150 A 
ATOM     30  O   LIG    1       -7.062  12.622  -3.275  0.00  0.00    -0.310 OA
ATOM     31  C   LIG    1       -6.019  12.741  -2.307  0.00  0.00    +0.340 C 
ATOM     32  S   LIG    1       -5.314   8.794  -1.832  0.00  0.00    +0.280 S 
ENDBRANCH  18  20
ENDBRANCH  17  18
ENDBRANCH   1  17
TORSDOF 6
