REMARK  Name = ZINCpe000000Yzkz.0
REMARK                            x       y       z     vdW  Elec       q    Type
REMARK                         _______ _______ _______ _____ _____    ______ ____
ROOT
ATOM      1  N   LIG    1        1.359   2.035   0.005  0.00  0.00    -0.510 NA
ATOM      2  C   LIG    1        2.001   1.863   1.325  0.00  0.00    +0.170 C 
ATOM      3  C   LIG    1        2.945   3.082   1.470  0.00  0.00    +0.030 C 
ATOM      4  C   LIG    1        2.110   4.205   0.800  0.00  0.00    +0.020 C 
ATOM      5  C   LIG    1        1.392   3.466  -0.349  0.00  0.00    +0.220 C 
ENDROOT
BRANCH   5   6
ATOM      6  C   LIG    1       -0.014   3.990  -0.496  0.00  0.00    -0.100 A 
ATOM      7  C   LIG    1       -0.854   4.028   0.601  0.00  0.00    +0.010 A 
ATOM      8  C   LIG    1       -2.144   4.507   0.470  0.00  0.00    +0.030 A 
ATOM      9  C   LIG    1       -2.598   4.952  -0.762  0.00  0.00    +0.050 A 
ATOM     10  O   LIG    1       -3.872   5.417  -0.876  0.00  0.00    -0.310 OA
ATOM     11  C   LIG    1       -4.170   6.198  -2.039  0.00  0.00    +0.220 C 
ATOM     12  C   LIG    1       -3.592   5.476  -3.264  0.00  0.00    +0.220 C 
ATOM     13  O   LIG    1       -2.177   5.351  -3.083  0.00  0.00    -0.310 OA
ATOM     14  C   LIG    1       -1.753   4.915  -1.865  0.00  0.00    +0.050 A 
ATOM     15  C   LIG    1       -0.459   4.437  -1.726  0.00  0.00    +0.040 A 
ENDBRANCH   5   6
BRANCH   1  16
ATOM     16  C   LIG    1       -0.019   1.528   0.019  0.00  0.00    +0.220 C 
BRANCH  16  17
ATOM     17  C   LIG    1        0.001  -0.002  -0.003  0.00  0.00    -0.340 C 
BRANCH  17  18
ATOM     18  S   LIG    1       -1.701  -0.629   0.014  0.00  0.00    +2.410 S 
ATOM     19  O   LIG    1       -2.337  -0.245  -1.197  0.00  0.00    -0.930 OA
ATOM     20  O   LIG    1       -2.300  -0.279   1.254  0.00  0.00    -0.930 OA
BRANCH  18  21
ATOM     21  C   LIG    1       -1.439  -2.424  -0.015  0.00  0.00    -0.320 C 
BRANCH  21  22
ATOM     22  C   LIG    1       -2.793  -3.137  -0.004  0.00  0.00    +0.080 C 
BRANCH  22  26
ATOM     23  N   LIG    1       -3.633  -5.464  -0.024  0.00  0.00    -0.850 N 
ATOM     24  H   LIG    1       -3.493  -6.423  -0.040  0.00  0.00    +0.410 HD
ATOM     25  H   LIG    1       -4.534  -5.105  -0.006  0.00  0.00    +0.400 HD
ATOM     26  C   LIG    1       -2.575  -4.628  -0.029  0.00  0.00    +0.530 C 
ATOM     27  O   LIG    1       -1.449  -5.077  -0.052  0.00  0.00    -0.540 OA
ENDBRANCH  22  26
ENDBRANCH  21  22
ENDBRANCH  18  21
ENDBRANCH  17  18
ENDBRANCH  16  17
ENDBRANCH   1  16
TORSDOF 7
