REMARK  Name = ZINCqH0000051kT8.0
REMARK                            x       y       z     vdW  Elec       q    Type
REMARK                         _______ _______ _______ _____ _____    ______ ____
ROOT
ATOM      1  C   LIG    1       -5.001   3.808   0.053  0.00  0.00    +0.290 C 
ENDROOT
BRANCH   1   2
ATOM      2  C   LIG    1       -6.133   2.779   0.073  0.00  0.00    +0.000 C 
ATOM      3  C   LIG    1       -6.140   1.991   1.404  0.00  0.00    +0.080 C 
ATOM      4  C   LIG    1       -7.609   1.790   1.708  0.00  0.00    +0.520 C 
ATOM      5  N   LIG    1       -8.353   2.629   0.967  0.00  0.00    -0.560 N 
ATOM      6  O   LIG    1       -8.050   0.989   2.504  0.00  0.00    -0.500 OA
ATOM      7  C   LIG    1       -7.511   3.474   0.111  0.00  0.00    +0.290 C 
BRANCH   5   8
ATOM      8  C   LIG    1       -9.751   2.689   1.006  0.00  0.00    +0.170 A 
ATOM      9  C   LIG    1      -10.466   1.763   1.754  0.00  0.00    +0.020 A 
ATOM     10  C   LIG    1      -11.845   1.827   1.794  0.00  0.00    +0.060 A 
ATOM     11  C   LIG    1      -12.515   2.806   1.081  0.00  0.00    -0.060 A 
ATOM     12  C   LIG    1      -11.805   3.727   0.331  0.00  0.00    +0.060 A 
ATOM     13 CL   LIG    1      -14.248   2.880   1.129  0.00  0.00    -0.070 Cl
ATOM     14  C   LIG    1      -10.425   3.670   0.291  0.00  0.00    -0.010 A 
ENDBRANCH   5   8
ENDBRANCH   1   2
BRANCH   1  17
ATOM     15  O   LIG    1       -2.601   5.039   0.018  0.00  0.00    -0.520 OA
ATOM     16  C   LIG    1       -2.564   3.824   0.028  0.00  0.00    +0.560 C 
ATOM     17  N   LIG    1       -3.710   3.114   0.046  0.00  0.00    -0.720 N 
ATOM     18  H   LIG    1       -3.680   2.145   0.054  0.00  0.00    +0.400 HD
BRANCH  16  19
ATOM     19  C   LIG    1       -1.265   3.126   0.020  0.00  0.00    -0.070 A 
ATOM     20  C   LIG    1       -0.053   3.875   0.001  0.00  0.00    -0.090 A 
ATOM     21  C   LIG    1        0.155   5.262  -0.012  0.00  0.00    +0.330 A 
ATOM     22  N   LIG    1        1.363   5.711  -0.028  0.00  0.00    -0.430 NA
ATOM     23  S   LIG    1        2.425   4.388  -0.028  0.00  0.00    +0.200 S 
ATOM     24  C   LIG    1        1.158   3.157  -0.005  0.00  0.00    -0.140 A 
ATOM     25  C   LIG    1        1.173   1.771   0.007  0.00  0.00    +0.090 A 
ATOM     26  C   LIG    1       -0.013   1.066   0.025  0.00  0.00    +0.060 A 
ATOM     27  C   LIG    1       -1.222   1.740   0.025  0.00  0.00    +0.060 A 
ENDBRANCH  16  19
ENDBRANCH   1  17
TORSDOF 4
