REMARK  Name = ZINCpk00000xPh4e.0
REMARK                            x       y       z     vdW  Elec       q    Type
REMARK                         _______ _______ _______ _____ _____    ______ ____
ROOT
ATOM      1  C   LIG    1       -4.845   1.131   0.910  0.00  0.00    +0.120 C 
ATOM      2  C   LIG    1       -5.753   1.870   1.916  0.00  0.00    +0.030 C 
ATOM      3  C   LIG    1       -4.814   2.303   3.061  0.00  0.00    +0.030 C 
ATOM      4  C   LIG    1       -3.417   1.789   2.650  0.00  0.00    +0.160 C 
ATOM      5  N   LIG    1       -3.484   1.666   1.171  0.00  0.00    -0.470 NA
ENDROOT
BRANCH   1  12
ATOM      6  C   LIG    1       -3.376  -1.306  -2.482  0.00  0.00    +0.090 C 
ATOM      7  C   LIG    1       -4.367  -0.660  -1.549  0.00  0.00    +0.520 C 
ATOM      8  N   LIG    1       -4.443   0.683  -1.471  0.00  0.00    -0.620 N 
ATOM      9  C   LIG    1       -3.707   1.636  -2.322  0.00  0.00    +0.250 C 
ATOM     10  C   LIG    1       -4.555   2.932  -2.291  0.00  0.00    +0.030 C 
ATOM     11  C   LIG    1       -5.059   2.940  -0.824  0.00  0.00    +0.070 C 
ATOM     12  C   LIG    1       -5.275   1.441  -0.525  0.00  0.00    +0.230 C 
ATOM     13  O   LIG    1       -5.097  -1.349  -0.868  0.00  0.00    -0.540 OA
ENDBRANCH   1  12
BRANCH   5  14
ATOM     14  C   LIG    1       -2.452   0.747   0.672  0.00  0.00    +0.190 C 
BRANCH  14  15
ATOM     15  C   LIG    1       -1.127   1.463   0.614  0.00  0.00    +0.510 C 
ATOM     16  N   LIG    1       -0.028   0.812   0.183  0.00  0.00    -0.650 N 
ATOM     17  H   LIG    1       -0.106  -0.086  -0.176  0.00  0.00    +0.400 HD
ATOM     18  O   LIG    1       -1.050   2.625   0.954  0.00  0.00    -0.500 OA
BRANCH  16  19
ATOM     19  C   LIG    1        1.231   1.438   0.249  0.00  0.00    -0.010 A 
ATOM     20  C   LIG    1        2.373   0.888   0.734  0.00  0.00    +0.070 A 
ATOM     21  N   LIG    1        3.358   1.815   0.615  0.00  0.00    -0.370 N 
ATOM     22  N   LIG    1        2.797   2.967   0.049  0.00  0.00    -0.290 NA
ATOM     23  C   LIG    1        4.757   1.643   1.013  0.00  0.00    +0.360 C 
ATOM     24  C   LIG    1        2.521  -0.501   1.300  0.00  0.00    +0.140 C 
ATOM     25  C   LIG    1        1.527   2.743  -0.171  0.00  0.00    +0.100 A 
ATOM     26  C   LIG    1        0.550   3.721  -0.770  0.00  0.00    +0.160 C 
ENDBRANCH  16  19
ENDBRANCH  14  15
ENDBRANCH   5  14
TORSDOF 4
