REMARK  Name = ZINCrD000001YK2r.0
REMARK                            x       y       z     vdW  Elec       q    Type
REMARK                         _______ _______ _______ _____ _____    ______ ____
ROOT
ATOM      1  C   LIG    1       -1.187   1.619   0.028  0.00  0.00    +0.520 C 
ATOM      2  N   LIG    1       -0.011   0.961   0.018  0.00  0.00    -0.640 N 
ATOM      3  H   LIG    1        0.002  -0.009   0.010  0.00  0.00    +0.410 HD
ATOM      4  O   LIG    1       -1.203   2.832   0.038  0.00  0.00    -0.520 OA
ENDROOT
BRANCH   1  10
ATOM      5  C   LIG    1       -3.985  -2.004  -1.411  0.00  0.00    +0.550 C 
ATOM      6  N   LIG    1       -3.877  -0.667  -1.281  0.00  0.00    -0.610 N 
ATOM      7  C   LIG    1       -5.078   0.175  -1.189  0.00  0.00    +0.260 C 
ATOM      8  C   LIG    1       -4.974   1.045   0.068  0.00  0.00    +0.020 C 
ATOM      9  C   LIG    1       -3.659   1.827   0.036  0.00  0.00    +0.060 C 
ATOM     10  C   LIG    1       -2.482   0.848   0.027  0.00  0.00    -0.010 C 
ATOM     11  C   LIG    1       -2.557  -0.024  -1.230  0.00  0.00    +0.300 C 
ATOM     12  O   LIG    1       -2.989  -2.681  -1.579  0.00  0.00    -0.540 OA
BRANCH   5  14
ATOM     13  C   LIG    1       -5.406  -3.971  -1.371  0.00  0.00    +0.140 C 
ATOM     14  C   LIG    1       -5.308  -2.645  -1.347  0.00  0.00    -0.090 C 
ENDBRANCH   5  14
ENDBRANCH   1  10
BRANCH   2  15
ATOM     15  C   LIG    1        1.198   1.680   0.013  0.00  0.00    +0.010 A 
ATOM     16  C   LIG    1        2.446   1.146  -0.003  0.00  0.00    +0.060 A 
ATOM     17  N   LIG    1        3.334   2.178  -0.003  0.00  0.00    -0.320 N 
ATOM     18  N   LIG    1        2.603   3.373   0.013  0.00  0.00    -0.280 NA
ATOM     19  C   LIG    1        1.328   3.078   0.017  0.00  0.00    +0.270 A 
BRANCH  17  20
ATOM     20  C   LIG    1        4.731   2.065  -0.016  0.00  0.00    +0.160 A 
ATOM     21  C   LIG    1        5.351   1.026   0.665  0.00  0.00    -0.010 A 
ATOM     22  C   LIG    1        6.728   0.914   0.645  0.00  0.00    +0.030 A 
ATOM     23  C   LIG    1        7.488   1.843  -0.042  0.00  0.00    +0.010 A 
ATOM     24  C   LIG    1        6.874   2.881  -0.716  0.00  0.00    +0.030 A 
ATOM     25  C   LIG    1        5.497   2.995  -0.706  0.00  0.00    +0.020 A 
ENDBRANCH  17  20
BRANCH  16  26
ATOM     26  C   LIG    1        2.787  -0.322  -0.018  0.00  0.00    +0.060 C 
ATOM     27  C   LIG    1        2.188  -0.971  -1.266  0.00  0.00    +0.050 C 
ATOM     28  C   LIG    1        2.212  -0.992   1.232  0.00  0.00    +0.040 C 
ENDBRANCH  16  26
ENDBRANCH   2  15
TORSDOF 5
