REMARK  Name = ZINCtV00000L6lcQ.0
REMARK                            x       y       z     vdW  Elec       q    Type
REMARK                         _______ _______ _______ _____ _____    ______ ____
ROOT
ATOM      1  P   LIG    1       -0.910  -0.948   0.210  0.00  0.00    +2.770 P 
ATOM      2  N   LIG    1       -1.736  -0.044   1.165  0.00  0.00    -1.180 NA
ENDROOT
BRANCH   1   3
ATOM      3  N   LIG    1       -1.454  -0.740  -1.369  0.00  0.00    -0.890 NA
ATOM      4  C   LIG    1       -0.552  -1.395  -2.328  0.00  0.00    +0.140 C 
ATOM      5  C   LIG    1       -1.115  -1.234  -3.742  0.00  0.00    +0.240 C 
ATOM      6  O   LIG    1       -1.287   0.158  -4.025  0.00  0.00    -0.380 OA
ATOM      7  C   LIG    1       -2.160   0.827  -3.111  0.00  0.00    +0.250 C 
ATOM      8  C   LIG    1       -1.608   0.686  -1.690  0.00  0.00    +0.170 C 
ENDBRANCH   1   3
BRANCH   1   9
ATOM      9  C   LIG    1        0.843  -0.490   0.310  0.00  0.00    -0.750 A 
ATOM     10  C   LIG    1        1.258   0.755  -0.121  0.00  0.00    +0.080 A 
ATOM     11  C   LIG    1        2.593   1.104  -0.044  0.00  0.00    +0.010 A 
ATOM     12  C   LIG    1        3.514   0.206   0.463  0.00  0.00    +0.060 A 
ATOM     13  C   LIG    1        3.099  -1.039   0.895  0.00  0.00    +0.000 A 
ATOM     14  C   LIG    1        1.763  -1.387   0.819  0.00  0.00    +0.070 A 
ENDBRANCH   1   9
BRANCH   1  16
ATOM     15  C   LIG    1       -0.534  -2.900   2.099  0.00  0.00    +0.060 C 
ATOM     16  C   LIG    1       -1.111  -2.692   0.698  0.00  0.00    -0.680 C 
ATOM     17  C   LIG    1       -0.371  -3.589  -0.297  0.00  0.00    +0.050 C 
ATOM     18  C   LIG    1       -2.598  -3.053   0.700  0.00  0.00    +0.110 C 
ENDBRANCH   1  16
BRANCH   2  19
ATOM     19  C   LIG    1       -3.050  -0.085   1.136  0.00  0.00    +0.590 C 
ATOM     20  S   LIG    1       -3.849  -1.149   0.059  0.00  0.00    -0.720 S 
BRANCH  19  21
ATOM     21  N   LIG    1       -3.767   0.711   1.954  0.00  0.00    -0.630 N 
ATOM     22  H   LIG    1       -3.317   1.362   2.515  0.00  0.00    +0.410 HD
BRANCH  21  23
ATOM     23  C   LIG    1       -5.161   0.599   1.993  0.00  0.00    +0.150 A 
ATOM     24  C   LIG    1       -5.811   0.428   3.208  0.00  0.00    +0.030 A 
ATOM     25  C   LIG    1       -7.187   0.318   3.245  0.00  0.00    +0.060 A 
ATOM     26  C   LIG    1       -7.919   0.378   2.072  0.00  0.00    -0.030 A 
ATOM     27  C   LIG    1       -7.274   0.548   0.858  0.00  0.00    -0.020 A 
ATOM     28 CL   LIG    1       -8.195   0.623  -0.611  0.00  0.00    -0.040 Cl
ATOM     29 CL   LIG    1       -9.649   0.239   2.122  0.00  0.00    -0.050 Cl
ATOM     30  C   LIG    1       -5.897   0.665   0.817  0.00  0.00    +0.110 A 
ENDBRANCH  21  23
ENDBRANCH  19  21
ENDBRANCH   2  19
TORSDOF 6
