REMARK  Name = ZINCqH0000031Gp0.0
REMARK                            x       y       z     vdW  Elec       q    Type
REMARK                         _______ _______ _______ _____ _____    ______ ____
ROOT
ATOM      1  N   LIG    1       -9.528  -0.726  -0.730  0.00  0.00    -0.720 N 
ATOM      2  H   LIG    1       -9.330  -0.070  -1.416  0.00  0.00    +0.400 HD
ATOM      3  C   LIG    1       -8.557  -1.136   0.111  0.00  0.00    +0.520 C 
ATOM      4  O   LIG    1       -8.804  -1.957   0.969  0.00  0.00    -0.510 OA
ENDROOT
BRANCH   1   5
ATOM      5  C   LIG    1      -10.882  -1.272  -0.606  0.00  0.00    +0.330 C 
BRANCH   5   9
ATOM      6  C   LIG    1      -13.401   0.478  -3.582  0.00  0.00    +0.160 A 
ATOM      7  C   LIG    1      -12.704  -0.690  -3.860  0.00  0.00    +0.010 A 
ATOM      8  C   LIG    1      -11.890  -1.253  -2.897  0.00  0.00    +0.050 A 
ATOM      9  C   LIG    1      -11.770  -0.655  -1.656  0.00  0.00    -0.130 A 
ATOM     10  C   LIG    1      -12.467   0.506  -1.374  0.00  0.00    +0.050 A 
ATOM     11  C   LIG    1      -13.278   1.077  -2.335  0.00  0.00    -0.020 A 
BRANCH   6  14
ATOM     12  C   LIG    1      -15.700   0.877  -6.535  0.00  0.00    +0.110 C 
ATOM     13  C   LIG    1      -14.908   0.262  -5.410  0.00  0.00    +0.510 C 
ATOM     14  N   LIG    1      -14.226   1.051  -4.556  0.00  0.00    -0.680 N 
ATOM     15  H   LIG    1      -14.308   2.015  -4.617  0.00  0.00    +0.410 HD
ATOM     16  O   LIG    1      -14.884  -0.943  -5.274  0.00  0.00    -0.520 OA
ENDBRANCH   6  14
ENDBRANCH   5   9
ENDBRANCH   1   5
BRANCH   3  17
ATOM     17  C   LIG    1       -7.164  -0.575  -0.016  0.00  0.00    +0.220 C 
BRANCH  17  18
ATOM     18  O   LIG    1       -6.322  -1.160   0.979  0.00  0.00    -0.290 OA
BRANCH  18  19
ATOM     19  C   LIG    1       -5.024  -0.759   1.002  0.00  0.00    +0.130 A 
ATOM     20  C   LIG    1       -4.570   0.179   0.086  0.00  0.00    -0.080 A 
ATOM     21  C   LIG    1       -3.249   0.585   0.112  0.00  0.00    +0.050 A 
ATOM     22  C   LIG    1       -2.381   0.057   1.049  0.00  0.00    -0.110 A 
ATOM     23  C   LIG    1       -2.830  -0.882   1.959  0.00  0.00    -0.040 A 
ATOM     24  C   LIG    1       -1.878  -1.460   2.975  0.00  0.00    +0.090 C 
ATOM     25  C   LIG    1       -4.150  -1.287   1.942  0.00  0.00    -0.020 A 
BRANCH  22  26
ATOM     26  C   LIG    1       -0.941   0.501   1.074  0.00  0.00    +0.020 C 
ATOM     27  C   LIG    1       -0.880   2.026   1.192  0.00  0.00    +0.040 C 
ATOM     28  C   LIG    1       -0.249   0.061  -0.217  0.00  0.00    +0.040 C 
ENDBRANCH  22  26
ENDBRANCH  18  19
ENDBRANCH  17  18
ENDBRANCH   3  17
TORSDOF 7
