REMARK  Name = ZINCtV00000L6kR1.0
REMARK                            x       y       z     vdW  Elec       q    Type
REMARK                         _______ _______ _______ _____ _____    ______ ____
ROOT
ATOM      1  O   LIG    1       -7.662   4.710   0.063  0.00  0.00    -0.480 OA
ATOM      2  C   LIG    1       -8.164   3.606   0.056  0.00  0.00    +0.520 C 
ATOM      3  N   LIG    1       -9.505   3.475   0.067  0.00  0.00    -0.670 N 
ATOM      4  H   LIG    1       -9.907   2.595  -0.004  0.00  0.00    +0.420 HD
ENDROOT
BRANCH   3   5
ATOM      5  C   LIG    1      -10.318   4.608   0.183  0.00  0.00    +0.200 A 
ATOM      6  C   LIG    1       -9.930   5.805  -0.404  0.00  0.00    +0.050 A 
ATOM      7  C   LIG    1      -10.737   6.921  -0.293  0.00  0.00    +0.100 A 
ATOM      8  C   LIG    1      -11.925   6.849   0.412  0.00  0.00    -0.050 A 
ATOM      9  C   LIG    1      -12.312   5.659   1.003  0.00  0.00    +0.120 A 
ATOM     10 CL   LIG    1      -12.934   8.255   0.556  0.00  0.00    -0.050 Cl
ATOM     11  C   LIG    1      -11.512   4.539   0.890  0.00  0.00    -0.200 A 
BRANCH  11  12
ATOM     12  C   LIG    1      -11.933   3.243   1.534  0.00  0.00    +0.510 C 
ATOM     13  F   LIG    1      -10.966   2.849   2.464  0.00  0.00    -0.170 F 
ATOM     14  F   LIG    1      -12.065   2.256   0.551  0.00  0.00    -0.180 F 
ATOM     15  F   LIG    1      -13.159   3.422   2.183  0.00  0.00    -0.170 F 
ENDBRANCH  11  12
ENDBRANCH   3   5
BRANCH   2  16
ATOM     16  C   LIG    1       -7.287   2.381   0.034  0.00  0.00    +0.290 C 
BRANCH  16  17
ATOM     17  O   LIG    1       -5.892   2.784   0.025  0.00  0.00    -0.330 OA
BRANCH  17  18
ATOM     18  C   LIG    1       -4.970   1.799   0.005  0.00  0.00    +0.540 C 
ATOM     19  O   LIG    1       -5.324   0.636  -0.004  0.00  0.00    -0.470 OA
BRANCH  18  20
ATOM     20  C   LIG    1       -3.543   2.132  -0.005  0.00  0.00    -0.230 A 
ATOM     21  C   LIG    1       -2.551   1.232  -0.025  0.00  0.00    +0.050 A 
ATOM     22  C   LIG    1       -1.251   1.764  -0.031  0.00  0.00    -0.110 A 
ATOM     23  C   LIG    1       -0.012   1.079  -0.051  0.00  0.00    +0.130 A 
ATOM     24  C   LIG    1        1.158   1.770  -0.059  0.00  0.00    +0.000 A 
ATOM     25  C   LIG    1        1.162   3.162  -0.044  0.00  0.00    +0.150 A 
ATOM     26  C   LIG    1       -0.028   3.855  -0.019  0.00  0.00    +0.020 A 
ATOM     27  F   LIG    1        2.334   3.833  -0.054  0.00  0.00    -0.120 F 
ATOM     28  C   LIG    1       -1.243   3.165  -0.010  0.00  0.00    -0.110 A 
ATOM     29 CL   LIG    1       -2.852  -0.478  -0.041  0.00  0.00    -0.000 Cl
ATOM     30  S   LIG    1       -2.898   3.764   0.021  0.00  0.00    +0.240 S 
ENDBRANCH  18  20
ENDBRANCH  17  18
ENDBRANCH  16  17
ENDBRANCH   2  16
TORSDOF 6
