REMARK  Name = ZINCnE00000dWl2g.0
REMARK                            x       y       z     vdW  Elec       q    Type
REMARK                         _______ _______ _______ _____ _____    ______ ____
ROOT
ATOM      1  C   LIG    1        3.638   3.157  -0.017  0.00  0.00    +0.290 C 
ENDROOT
BRANCH   1   2
ATOM      2  C   LIG    1        4.789   4.165  -0.023  0.00  0.00    +0.130 C 
ATOM      3  C   LIG    1        6.123   3.415  -0.040  0.00  0.00    +0.000 C 
ATOM      4  C   LIG    1        7.275   4.424  -0.063  0.00  0.00    +0.020 C 
ATOM      5  C   LIG    1        7.132   5.314  -1.303  0.00  0.00    +0.030 C 
ATOM      6  C   LIG    1        5.743   5.950  -1.300  0.00  0.00    +0.090 C 
ATOM      7  C   LIG    1        5.531   6.963  -2.432  0.00  0.00    +0.060 C 
ATOM      8  C   LIG    1        6.077   8.031  -1.470  0.00  0.00    -0.090 C 
ATOM      9  C   LIG    1        5.611   7.123  -0.319  0.00  0.00    +0.010 C 
ATOM     10  O   LIG    1        4.693   4.992  -1.186  0.00  0.00    -0.360 OA
BRANCH   8  11
ATOM     11  C   LIG    1        5.338   9.343  -1.541  0.00  0.00    +0.500 C 
ATOM     12  O   LIG    1        4.137   9.377  -1.336  0.00  0.00    -0.690 OA
ATOM     13  O   LIG    1        5.942  10.369  -1.804  0.00  0.00    -0.700 OA
ENDBRANCH   8  11
ENDBRANCH   1   2
BRANCH   1  14
ATOM     14  N   LIG    1        2.361   3.875  -0.000  0.00  0.00    -0.720 N 
ATOM     15  H   LIG    1        2.350   4.845   0.005  0.00  0.00    +0.410 HD
BRANCH  14  22
ATOM     16  C   LIG    1       -0.061   3.851   0.023  0.00  0.00    -0.100 A 
ATOM     17  C   LIG    1       -1.256   3.127   0.031  0.00  0.00    +0.130 A 
ATOM     18  C   LIG    1       -1.225   1.748   0.017  0.00  0.00    -0.100 A 
ATOM     19  C   LIG    1       -0.013   1.076   0.008  0.00  0.00    +0.110 A 
ATOM     20  C   LIG    1        1.176   1.778   0.000  0.00  0.00    -0.050 A 
ATOM     21 CL   LIG    1       -2.711   0.850   0.020  0.00  0.00    -0.070 Cl
ATOM     22  C   LIG    1        1.164   3.166   0.008  0.00  0.00    +0.280 A 
BRANCH  16  24
ATOM     23  N   LIG    1       -0.106   6.419   0.038  0.00  0.00    -0.400 NA
ATOM     24  C   LIG    1       -0.086   5.283   0.032  0.00  0.00    +0.240 C 
ENDBRANCH  16  24
ENDBRANCH  14  22
ENDBRANCH   1  14
TORSDOF 5
