REMARK  Name = ZINCrD000000BtlO.0
REMARK                            x       y       z     vdW  Elec       q    Type
REMARK                         _______ _______ _______ _____ _____    ______ ____
ROOT
ATOM      1  C   LIG    1       -5.018   0.912   0.775  0.00  0.00    -0.150 A 
ATOM      2  C   LIG    1       -5.784   1.935   0.214  0.00  0.00    +0.100 A 
ATOM      3  C   LIG    1       -5.365   2.549  -0.948  0.00  0.00    +0.000 A 
ATOM      4  C   LIG    1       -4.189   2.151  -1.559  0.00  0.00    +0.160 A 
ATOM      5  C   LIG    1       -3.425   1.137  -1.009  0.00  0.00    -0.680 A 
ATOM      6  C   LIG    1       -3.835   0.512   0.150  0.00  0.00    +0.190 A 
ENDROOT
BRANCH   1   8
ATOM      7  O   LIG    1       -4.792  -0.641   2.506  0.00  0.00    -0.530 OA
ATOM      8  C   LIG    1       -5.461   0.250   2.020  0.00  0.00    +0.560 C 
ATOM      9  N   LIG    1       -6.607   0.634   2.617  0.00  0.00    -0.720 N 
ATOM     10  H   LIG    1       -7.141   1.345   2.229  0.00  0.00    +0.400 HD
BRANCH   9  11
ATOM     11  C   LIG    1       -7.045  -0.022   3.851  0.00  0.00    +0.330 C 
BRANCH  11  12
ATOM     12  C   LIG    1       -8.345   0.588   4.310  0.00  0.00    -0.150 A 
ATOM     13  C   LIG    1       -9.530  -0.102   4.141  0.00  0.00    +0.070 A 
ATOM     14  C   LIG    1      -10.722   0.457   4.563  0.00  0.00    +0.000 A 
ATOM     15  C   LIG    1      -10.730   1.708   5.152  0.00  0.00    +0.060 A 
ATOM     16  C   LIG    1       -9.546   2.400   5.321  0.00  0.00    -0.020 A 
ATOM     17  C   LIG    1       -8.351   1.838   4.905  0.00  0.00    +0.110 A 
ATOM     18  F   LIG    1       -7.192   2.511   5.076  0.00  0.00    -0.130 F 
ENDBRANCH  11  12
ENDBRANCH   9  11
ENDBRANCH   1   8
BRANCH   5  19
ATOM     19  S   LIG    1       -1.930   0.638  -1.795  0.00  0.00    +2.690 S 
ATOM     20  O   LIG    1       -1.680  -0.696  -1.373  0.00  0.00    -0.950 OA
ATOM     21  O   LIG    1       -2.051   1.010  -3.161  0.00  0.00    -0.950 OA
BRANCH  19  22
ATOM     22  N   LIG    1       -0.711   1.564  -1.164  0.00  0.00    -0.980 NA
ATOM     23  C   LIG    1       -0.013   1.086   0.008  0.00  0.00    +0.300 C 
ATOM     24  C   LIG    1       -0.737   1.585   1.283  0.00  0.00    -0.010 C 
ATOM     25  C   LIG    1       -0.536   3.033   1.451  0.00  0.00    +0.000 C 
ATOM     26  C   LIG    1       -1.121   3.883   0.327  0.00  0.00    +0.000 C 
ATOM     27  C   LIG    1       -0.127   3.971  -0.804  0.00  0.00    +0.020 C 
ATOM     28  C   LIG    1       -0.382   2.844  -1.822  0.00  0.00    +0.270 C 
ENDBRANCH  19  22
ENDBRANCH   5  19
TORSDOF 5
