REMARK  Name = ZINCrg00000fSAg7.0
REMARK                            x       y       z     vdW  Elec       q    Type
REMARK                         _______ _______ _______ _____ _____    ______ ____
ROOT
ATOM      1  C   LIG    1        2.367   1.117  -0.015  0.00  0.00    +0.270 C 
ENDROOT
BRANCH   1   3
ATOM      2  O   LIG    1        3.375   3.251  -0.013  0.00  0.00    -0.440 OA
ATOM      3  C   LIG    1        3.550   2.051  -0.021  0.00  0.00    +0.510 C 
ATOM      4  N   LIG    1        4.802   1.553  -0.035  0.00  0.00    -0.690 N 
ATOM      5  H   LIG    1        4.942   0.593  -0.042  0.00  0.00    +0.420 HD
ATOM      6  C   LIG    1        5.859   2.388  -0.041  0.00  0.00    +0.510 C 
ATOM      7  O   LIG    1        5.684   3.588  -0.033  0.00  0.00    -0.450 OA
BRANCH   6   8
ATOM      8  C   LIG    1        7.260   1.831  -0.057  0.00  0.00    +0.120 C 
BRANCH   8   9
ATOM      9  C   LIG    1        8.252   2.966  -0.061  0.00  0.00    -0.080 A 
ATOM     10  C   LIG    1        8.699   3.489  -1.260  0.00  0.00    +0.020 A 
ATOM     11  C   LIG    1        9.606   4.533  -1.262  0.00  0.00    +0.000 A 
ATOM     12  C   LIG    1       10.072   5.047  -0.067  0.00  0.00    +0.010 A 
ATOM     13  C   LIG    1        9.628   4.520   1.132  0.00  0.00    +0.000 A 
ATOM     14  C   LIG    1        8.718   3.480   1.135  0.00  0.00    +0.020 A 
ENDBRANCH   8   9
ENDBRANCH   6   8
ENDBRANCH   1   3
BRANCH   1  15
ATOM     15  O   LIG    1        1.139   1.891   0.001  0.00  0.00    -0.330 OA
BRANCH  15  16
ATOM     16  C   LIG    1       -0.014   1.204   0.009  0.00  0.00    +0.450 C 
ATOM     17  O   LIG    1        0.002  -0.004   0.002  0.00  0.00    -0.490 OA
BRANCH  16  18
ATOM     18  C   LIG    1       -1.329   1.940   0.019  0.00  0.00    +0.440 C 
BRANCH  18  19
ATOM     19  N   LIG    1       -2.430   0.973   0.019  0.00  0.00    -0.540 N 
ATOM     20  C   LIG    1       -3.024   0.441   1.106  0.00  0.00    +0.650 A 
ATOM     21  O   LIG    1       -3.991  -0.405   0.718  0.00  0.00    -0.230 OA
ATOM     22  C   LIG    1       -4.040  -0.435  -0.637  0.00  0.00    +0.040 A 
ATOM     23  C   LIG    1       -4.835  -1.124  -1.539  0.00  0.00    +0.060 A 
ATOM     24  C   LIG    1       -4.648  -0.947  -2.896  0.00  0.00    +0.050 A 
ATOM     25  C   LIG    1       -3.671  -0.085  -3.361  0.00  0.00    +0.040 A 
ATOM     26  C   LIG    1       -2.874   0.607  -2.469  0.00  0.00    +0.030 A 
ATOM     27  O   LIG    1       -2.729   0.690   2.259  0.00  0.00    -0.480 OA
ATOM     28  C   LIG    1       -3.058   0.439  -1.106  0.00  0.00    +0.070 A 
ENDBRANCH  18  19
ENDBRANCH  16  18
ENDBRANCH  15  16
ENDBRANCH   1  15
TORSDOF 7
