REMARK  Name = ZINCvU0000000CYV.0
REMARK                            x       y       z     vdW  Elec       q    Type
REMARK                         _______ _______ _______ _____ _____    ______ ____
ROOT
ATOM      1  C   LIG    1        1.317   2.190  -6.125  0.00  0.00    +0.200 C 
ENDROOT
BRANCH   1   4
ATOM      2  C   LIG    1        1.135   2.057  -2.491  0.00  0.00    +0.110 A 
ATOM      3  N   LIG    1        1.608   2.318  -3.676  0.00  0.00    -0.450 NA
ATOM      4  C   LIG    1        0.880   1.944  -4.704  0.00  0.00    +0.070 A 
ATOM      5  C   LIG    1       -0.272   1.333  -4.412  0.00  0.00    -0.070 A 
ATOM      6  S   LIG    1       -0.413   1.233  -2.658  0.00  0.00    +0.170 S 
BRANCH   2  11
ATOM      7  C   LIG    1        1.812   2.382   1.200  0.00  0.00    +0.120 A 
ATOM      8  C   LIG    1        3.040   3.024   1.188  0.00  0.00    -0.040 A 
ATOM      9  C   LIG    1        3.643   3.354  -0.014  0.00  0.00    +0.060 A 
ATOM     10  C   LIG    1        3.030   3.043  -1.209  0.00  0.00    +0.050 A 
ATOM     11  C   LIG    1        1.795   2.392  -1.212  0.00  0.00    -0.010 A 
ATOM     12  C   LIG    1        1.185   2.058   0.002  0.00  0.00    +0.080 A 
BRANCH   7  14
ATOM     13  C   LIG    1        1.922   2.429   3.575  0.00  0.00    +0.240 C 
ATOM     14  O   LIG    1        1.221   2.066   2.383  0.00  0.00    -0.300 OA
ENDBRANCH   7  14
BRANCH  12  15
ATOM     15  O   LIG    1       -0.017   1.425   0.010  0.00  0.00    -0.320 OA
ATOM     16  C   LIG    1        0.002  -0.004   0.002  0.00  0.00    +0.230 C 
ENDBRANCH  12  15
ENDBRANCH   2  11
ENDBRANCH   1   4
BRANCH   1  17
ATOM     17  S   LIG    1        2.288   0.778  -6.710  0.00  0.00    +0.030 S 
BRANCH  17  18
ATOM     18  C   LIG    1        2.658   1.318  -8.346  0.00  0.00    +0.160 A 
ATOM     19  N   LIG    1        2.280   2.447  -8.900  0.00  0.00    -0.280 NA
ATOM     20  N   LIG    1        2.729   2.516 -10.102  0.00  0.00    -0.280 NA
ATOM     21  C   LIG    1        3.407   1.441 -10.391  0.00  0.00    +0.230 A 
ATOM     22  N   LIG    1        3.386   0.637  -9.283  0.00  0.00    -0.420 N 
BRANCH  22  23
ATOM     23  C   LIG    1        3.987  -0.622  -9.138  0.00  0.00    +0.110 A 
ATOM     24  C   LIG    1        5.369  -0.743  -9.186  0.00  0.00    +0.030 A 
ATOM     25  C   LIG    1        5.958  -1.984  -9.038  0.00  0.00    +0.040 A 
ATOM     26  C   LIG    1        5.171  -3.106  -8.854  0.00  0.00    +0.030 A 
ATOM     27  C   LIG    1        3.794  -2.989  -8.811  0.00  0.00    +0.040 A 
ATOM     28  C   LIG    1        3.200  -1.750  -8.952  0.00  0.00    +0.030 A 
ENDBRANCH  22  23
BRANCH  21  29
ATOM     29  C   LIG    1        4.086   1.139 -11.702  0.00  0.00    +0.030 C 
ATOM     30  C   LIG    1        4.156   2.263 -12.737  0.00  0.00    +0.070 C 
ATOM     31  C   LIG    1        3.209   1.081 -12.955  0.00  0.00    +0.060 C 
ENDBRANCH  21  29
ENDBRANCH  17  18
ENDBRANCH   1  17
TORSDOF 8
