REMARK  Name = ZINCqH0000002Llw.0
REMARK                            x       y       z     vdW  Elec       q    Type
REMARK                         _______ _______ _______ _____ _____    ______ ____
ROOT
ATOM      1  C   LIG    1       -2.541  -4.189  -0.316  0.00  0.00    +0.250 C 
ENDROOT
BRANCH   1   2
ATOM      2  C   LIG    1       -2.559  -2.682  -0.307  0.00  0.00    +0.510 C 
ATOM      3  N   LIG    1       -1.407  -1.995  -0.172  0.00  0.00    -0.720 N 
ATOM      4  H   LIG    1       -0.567  -2.471  -0.080  0.00  0.00    +0.410 HD
ATOM      5  O   LIG    1       -3.610  -2.088  -0.422  0.00  0.00    -0.530 OA
BRANCH   3   6
ATOM      6  C   LIG    1       -1.425  -0.530  -0.163  0.00  0.00    +0.310 C 
BRANCH   6   7
ATOM      7  C   LIG    1        0.002  -0.004   0.002  0.00  0.00    +0.040 C 
ATOM      8  C   LIG    1       -0.019   1.522   0.010  0.00  0.00    +0.130 C 
ATOM      9  S   LIG    1        1.675   2.165  -0.002  0.00  0.00    -0.240 S 
ATOM     10  C   LIG    1        2.368   1.546   1.553  0.00  0.00    +0.130 C 
ATOM     11  C   LIG    1        2.389   0.020   1.545  0.00  0.00    +0.130 C 
ATOM     12  S   LIG    1        0.695  -0.623   1.558  0.00  0.00    -0.230 S 
ENDBRANCH   6   7
ENDBRANCH   3   6
ENDBRANCH   1   2
BRANCH   1  13
ATOM     13  N   LIG    1       -3.907  -4.693  -0.474  0.00  0.00    -0.710 N 
ATOM     14  H   LIG    1       -4.660  -4.148  -0.198  0.00  0.00    +0.410 HD
ATOM     15  C   LIG    1       -4.118  -5.915  -1.003  0.00  0.00    +0.600 C 
ATOM     16  O   LIG    1       -3.173  -6.599  -1.349  0.00  0.00    -0.520 OA
BRANCH  15  17
ATOM     17  C   LIG    1       -5.489  -6.420  -1.162  0.00  0.00    -0.230 A 
ATOM     18  C   LIG    1       -5.804  -7.614  -1.673  0.00  0.00    +0.130 A 
ATOM     19  C   LIG    1       -7.177  -7.903  -1.737  0.00  0.00    -0.090 A 
ATOM     20  C   LIG    1       -7.818  -9.069  -2.220  0.00  0.00    +0.070 A 
ATOM     21  C   LIG    1       -9.173  -9.170  -2.201  0.00  0.00    +0.010 A 
ATOM     22  C   LIG    1       -9.955  -8.133  -1.707  0.00  0.00    +0.040 A 
ATOM     23  C   LIG    1       -9.362  -6.988  -1.230  0.00  0.00    +0.040 A 
ATOM     24  C   LIG    1       -7.969  -6.861  -1.240  0.00  0.00    -0.120 A 
ATOM     25  S   LIG    1       -6.936  -5.543  -0.698  0.00  0.00    +0.120 S 
ENDBRANCH  15  17
ENDBRANCH   1  13
BRANCH   1  26
ATOM     26  C   LIG    1       -1.959  -4.700   1.004  0.00  0.00    +0.020 C 
BRANCH  26  28
ATOM     27  C   LIG    1       -1.242  -6.733   2.267  0.00  0.00    +0.010 C 
ATOM     28  C   LIG    1       -1.824  -6.223   0.947  0.00  0.00    +0.020 C 
ENDBRANCH  26  28
ENDBRANCH   1  26
TORSDOF 7
