REMARK  Name = ZINCrg00000ShO4z.0
REMARK                            x       y       z     vdW  Elec       q    Type
REMARK                         _______ _______ _______ _____ _____    ______ ____
ROOT
ATOM      1  N   LIG    1       -3.487   3.586  -1.333  0.00  0.00    -0.970 NA
ENDROOT
BRANCH   1   2
ATOM      2  C   LIG    1       -3.398   4.596  -2.390  0.00  0.00    +0.280 C 
ATOM      3  C   LIG    1       -4.753   5.309  -2.541  0.00  0.00    +0.100 C 
ATOM      4  C   LIG    1       -4.689   6.108  -3.868  0.00  0.00    -0.310 C 
ATOM      5  S   LIG    1       -3.878   4.924  -5.008  0.00  0.00    +2.390 S 
ATOM      6  O   LIG    1       -2.900   5.607  -5.780  0.00  0.00    -0.930 OA
ATOM      7  O   LIG    1       -4.870   4.138  -5.654  0.00  0.00    -0.930 OA
ATOM      8  C   LIG    1       -3.048   3.916  -3.729  0.00  0.00    -0.330 C 
ENDBRANCH   1   2
BRANCH   1   9
ATOM      9  S   LIG    1       -2.401   3.596  -0.083  0.00  0.00    +2.700 S 
ATOM     10  O   LIG    1       -2.040   4.955   0.123  0.00  0.00    -0.950 OA
ATOM     11  O   LIG    1       -2.955   2.776   0.936  0.00  0.00    -0.930 OA
BRANCH   9  16
ATOM     12  C   LIG    1        1.380   2.829  -1.216  0.00  0.00    +0.080 A 
ATOM     13  C   LIG    1        1.335   1.480  -1.535  0.00  0.00    +0.030 A 
ATOM     14  C   LIG    1        0.150   0.780  -1.411  0.00  0.00    -0.050 A 
ATOM     15  C   LIG    1       -0.995   1.427  -0.973  0.00  0.00    +0.190 A 
ATOM     16  C   LIG    1       -0.948   2.775  -0.648  0.00  0.00    -0.670 A 
ATOM     17  C   LIG    1        0.236   3.475  -0.772  0.00  0.00    +0.140 A 
BRANCH  12  19
ATOM     18  C   LIG    1        3.685   2.789  -1.802  0.00  0.00    +0.250 C 
ATOM     19  O   LIG    1        2.546   3.518  -1.338  0.00  0.00    -0.310 OA
ENDBRANCH  12  19
BRANCH  15  20
ATOM     20  O   LIG    1       -2.162   0.740  -0.856  0.00  0.00    -0.310 OA
ATOM     21  C   LIG    1       -2.136  -0.646  -1.202  0.00  0.00    +0.250 C 
ENDBRANCH  15  20
ENDBRANCH   9  16
ENDBRANCH   1   9
BRANCH   1  22
ATOM     22  C   LIG    1       -4.538   2.566  -1.383  0.00  0.00    +0.300 C 
BRANCH  22  23
ATOM     23  C   LIG    1       -5.591   2.867  -0.315  0.00  0.00    +0.150 C 
ATOM     24  C   LIG    1       -6.654   1.747  -0.297  0.00  0.00    +0.020 C 
ATOM     25  C   LIG    1       -7.968   2.543  -0.070  0.00  0.00    +0.000 C 
ATOM     26  C   LIG    1       -7.659   3.847  -0.847  0.00  0.00    +0.190 C 
ATOM     27  O   LIG    1       -6.261   4.094  -0.625  0.00  0.00    -0.370 OA
ENDBRANCH  22  23
ENDBRANCH   1  22
TORSDOF 7
