REMARK  Name = ZINCpk00001AZjcs.0
REMARK                            x       y       z     vdW  Elec       q    Type
REMARK                         _______ _______ _______ _____ _____    ______ ____
ROOT
ATOM      1  C   LIG    1       -0.929   0.666  -1.071  0.00  0.00    +0.030 C 
ATOM      2  C   LIG    1       -1.845   1.643  -0.294  0.00  0.00    +0.060 C 
ATOM      3  C   LIG    1       -1.192   1.893   1.073  0.00  0.00    +0.030 C 
ATOM      4  C   LIG    1       -0.186   0.746   1.282  0.00  0.00    +0.020 C 
ATOM      5  C   LIG    1        1.091   1.313   1.925  0.00  0.00    +0.260 C 
ATOM      6  N   LIG    1        2.031   1.638   0.847  0.00  0.00    -0.610 N 
ATOM      7  C   LIG    1        1.417   1.315  -0.447  0.00  0.00    +0.260 C 
ATOM      8  C   LIG    1        3.265   2.152   1.018  0.00  0.00    +0.580 C 
ATOM      9  O   LIG    1        4.005   2.288   0.062  0.00  0.00    -0.520 OA
ATOM     10  C   LIG    1        0.257   0.347  -0.150  0.00  0.00    +0.020 C 
ENDROOT
BRANCH   8  11
ATOM     11  C   LIG    1        3.720   2.551   2.365  0.00  0.00    -0.110 A 
ATOM     12  C   LIG    1        2.850   3.219   3.222  0.00  0.00    +0.090 A 
ATOM     13  C   LIG    1        3.283   3.595   4.496  0.00  0.00    -0.190 A 
ATOM     14  C   LIG    1        4.593   3.295   4.904  0.00  0.00    +0.160 A 
ATOM     15  C   LIG    1        5.455   2.625   4.037  0.00  0.00    +0.090 A 
ATOM     16  C   LIG    1        5.022   2.251   2.781  0.00  0.00    +0.030 A 
BRANCH  15  17
ATOM     17  O   LIG    1        6.723   2.334   4.433  0.00  0.00    -0.300 OA
ATOM     18  C   LIG    1        7.553   1.645   3.495  0.00  0.00    +0.250 C 
ENDBRANCH  15  17
BRANCH  14  19
ATOM     19  O   LIG    1        5.019   3.656   6.139  0.00  0.00    -0.460 OA
ATOM     20  H   LIG    1        4.864   2.987   6.820  0.00  0.00    +0.400 HD
ENDBRANCH  14  19
BRANCH  13  21
ATOM     21  C   LIG    1        2.371   4.301   5.405  0.00  0.00    +0.490 C 
ATOM     22  O   LIG    1        2.749   4.626   6.511  0.00  0.00    -0.430 OA
ENDBRANCH  13  21
ENDBRANCH   8  11
BRANCH   1  23
ATOM     23  C   LIG    1       -0.434   1.323  -2.334  0.00  0.00    +0.460 C 
ATOM     24  O   LIG    1       -0.282   2.521  -2.372  0.00  0.00    -0.500 OA
BRANCH  23  26
ATOM     25  C   LIG    1        0.310   1.278  -4.598  0.00  0.00    +0.270 C 
ATOM     26  O   LIG    1       -0.162   0.577  -3.417  0.00  0.00    -0.360 OA
ENDBRANCH  23  26
ENDBRANCH   1  23
TORSDOF 6
