REMARK  Name = ZINCpe00000FUlLQ.1
REMARK                            x       y       z     vdW  Elec       q    Type
REMARK                         _______ _______ _______ _____ _____    ______ ____
ROOT
ATOM      1  C   LIG    1       -1.496   9.276  -4.833  0.00  0.00    +0.170 C 
ATOM      2  C   LIG    1       -1.544   8.111  -3.822  0.00  0.00    +0.160 C 
ATOM      3  N   LIG    1       -0.870   8.639  -2.608  0.00  0.00    -0.480 NA
ATOM      4  C   LIG    1        0.267   9.434  -3.139  0.00  0.00    +0.200 C 
ATOM      5  C   LIG    1       -0.304  10.147  -4.384  0.00  0.00    +0.120 C 
ENDROOT
BRANCH   5   6
ATOM      6  C   LIG    1        0.736  10.212  -5.473  0.00  0.00    +0.010 A 
ATOM      7  N   LIG    1        0.899  11.172  -6.355  0.00  0.00    -0.270 NA
ATOM      8  N   LIG    1        1.889  10.868  -7.117  0.00  0.00    -0.250 N 
ATOM      9  H   LIG    1        2.209  11.418  -7.850  0.00  0.00    +0.470 HD
ATOM     10  N   LIG    1        2.396   9.737  -6.777  0.00  0.00    -0.280 NA
ATOM     11  C   LIG    1        1.728   9.268  -5.747  0.00  0.00    +0.180 A 
ENDBRANCH   5   6
BRANCH   1  13
ATOM     12  C   LIG    1       -3.685   9.627  -5.742  0.00  0.00    +0.200 C 
ATOM     13  O   LIG    1       -2.708  10.030  -4.780  0.00  0.00    -0.370 OA
ENDBRANCH   1  13
BRANCH   3  14
ATOM     14  C   LIG    1       -0.393   7.545  -1.752  0.00  0.00    +0.200 C 
BRANCH  14  15
ATOM     15  C   LIG    1       -1.564   6.918  -1.040  0.00  0.00    +0.520 C 
ATOM     16  N   LIG    1       -1.365   5.887  -0.195  0.00  0.00    -0.620 N 
ATOM     17  C   LIG    1       -2.488   5.253   0.516  0.00  0.00    +0.280 C 
ATOM     18  C   LIG    1       -2.596   3.808   0.029  0.00  0.00    +0.070 C 
ATOM     19  C   LIG    1       -1.246   3.140   0.029  0.00  0.00    -0.070 A 
ATOM     20  C   LIG    1       -1.216   1.751   0.017  0.00  0.00    +0.000 A 
ATOM     21  C   LIG    1       -0.013   1.076   0.008  0.00  0.00    +0.000 A 
ATOM     22  C   LIG    1        1.174   1.785   0.000  0.00  0.00    +0.000 A 
ATOM     23  C   LIG    1        1.146   3.165   0.012  0.00  0.00    +0.010 A 
ATOM     24  C   LIG    1       -0.063   3.845   0.028  0.00  0.00    -0.100 A 
ATOM     25  C   LIG    1       -0.022   5.352   0.054  0.00  0.00    +0.320 C 
ATOM     26  O   LIG    1       -2.685   7.341  -1.227  0.00  0.00    -0.510 OA
ENDBRANCH  14  15
ENDBRANCH   3  14
TORSDOF 4
