REMARK  Name = ZINCpe00000FUlLQ.0
REMARK                            x       y       z     vdW  Elec       q    Type
REMARK                         _______ _______ _______ _____ _____    ______ ____
ROOT
ATOM      1  C   LIG    1        4.107   0.620   1.399  0.00  0.00    +0.170 C 
ATOM      2  C   LIG    1        4.991  -0.644   1.329  0.00  0.00    +0.170 C 
ATOM      3  N   LIG    1        5.373  -0.755  -0.102  0.00  0.00    -0.480 NA
ATOM      4  C   LIG    1        4.140  -0.374  -0.840  0.00  0.00    +0.190 C 
ATOM      5  C   LIG    1        3.548   0.797  -0.028  0.00  0.00    +0.110 C 
ENDROOT
BRANCH   5   6
ATOM      6  C   LIG    1        2.043   0.716  -0.014  0.00  0.00    -0.010 A 
ATOM      7  C   LIG    1        1.293  -0.411  -0.013  0.00  0.00    +0.150 A 
ATOM      8  N   LIG    1        0.002  -0.004   0.002  0.00  0.00    -0.390 N 
ATOM      9  H   LIG    1       -0.776  -0.583   0.006  0.00  0.00    +0.450 HD
ATOM     10  N   LIG    1       -0.015   1.283   0.009  0.00  0.00    -0.070 NA
ATOM     11  N   LIG    1        1.186   1.743   0.000  0.00  0.00    -0.250 NA
ENDBRANCH   5   6
BRANCH   1  13
ATOM     12  C   LIG    1        4.887   2.034   3.171  0.00  0.00    +0.200 C 
ATOM     13  O   LIG    1        4.893   1.755   1.769  0.00  0.00    -0.370 OA
ENDBRANCH   1  13
BRANCH   3  14
ATOM     14  C   LIG    1        5.782  -2.127  -0.433  0.00  0.00    +0.200 C 
BRANCH  14  15
ATOM     15  C   LIG    1        6.878  -2.564   0.504  0.00  0.00    +0.520 C 
ATOM     16  N   LIG    1        7.412  -3.796   0.387  0.00  0.00    -0.620 N 
ATOM     17  C   LIG    1        8.484  -4.253   1.287  0.00  0.00    +0.290 C 
ATOM     18  C   LIG    1        7.942  -5.424   2.106  0.00  0.00    +0.070 C 
ATOM     19  C   LIG    1        7.244  -6.421   1.219  0.00  0.00    -0.070 A 
ATOM     20  C   LIG    1        7.074  -7.710   1.708  0.00  0.00    +0.000 A 
ATOM     21  C   LIG    1        6.433  -8.669   0.951  0.00  0.00    +0.000 A 
ATOM     22  C   LIG    1        5.954  -8.347  -0.304  0.00  0.00    +0.000 A 
ATOM     23  C   LIG    1        6.124  -7.068  -0.794  0.00  0.00    +0.010 A 
ATOM     24  C   LIG    1        6.774  -6.104  -0.036  0.00  0.00    -0.100 A 
ATOM     25  C   LIG    1        6.946  -4.736  -0.637  0.00  0.00    +0.330 C 
ATOM     26  O   LIG    1        7.278  -1.808   1.363  0.00  0.00    -0.520 OA
ENDBRANCH  14  15
ENDBRANCH   3  14
TORSDOF 4
