REMARK  Name = ZINCrH00000No53b.0
REMARK                            x       y       z     vdW  Elec       q    Type
REMARK                         _______ _______ _______ _____ _____    ______ ____
ROOT
ATOM      1  C   LIG    1        1.731  -6.030  -1.313  0.00  0.00    +0.180 A 
ATOM      2  C   LIG    1        3.068  -6.091  -1.329  0.00  0.00    -0.020 A 
ATOM      3  S   LIG    1        3.627  -4.687  -0.402  0.00  0.00    -0.020 S 
ATOM      4  C   LIG    1        1.996  -4.092  -0.042  0.00  0.00    +0.350 A 
ATOM      5  N   LIG    1        1.671  -3.028   0.648  0.00  0.00    -0.540 NA
ATOM      6  N   LIG    1        1.148  -4.991  -0.637  0.00  0.00    -0.360 N 
ENDROOT
BRANCH   1  13
ATOM      7  F   LIG    1       -0.164  -5.372  -3.295  0.00  0.00    -0.130 F 
ATOM      8  C   LIG    1       -0.015  -6.675  -2.972  0.00  0.00    +0.140 A 
ATOM      9  C   LIG    1       -0.773  -7.638  -3.610  0.00  0.00    -0.020 A 
ATOM     10  C   LIG    1       -0.625  -8.972  -3.276  0.00  0.00    +0.070 A 
ATOM     11  C   LIG    1        0.286  -9.352  -2.306  0.00  0.00    +0.010 A 
ATOM     12  C   LIG    1        1.054  -8.402  -1.665  0.00  0.00    +0.080 A 
ATOM     13  C   LIG    1        0.911  -7.054  -1.996  0.00  0.00    -0.080 A 
ENDBRANCH   1  13
BRANCH   6  14
ATOM     14  N   LIG    1       -0.244  -4.850  -0.562  0.00  0.00    -0.250 NA
ATOM     15  C   LIG    1       -0.761  -3.792  -0.016  0.00  0.00    +0.330 C 
BRANCH  15  16
ATOM     16  C   LIG    1       -2.219  -3.707   0.193  0.00  0.00    -0.110 A 
ATOM     17  C   LIG    1       -2.789  -2.574   0.786  0.00  0.00    +0.110 A 
ATOM     18  C   LIG    1       -4.162  -2.542   0.953  0.00  0.00    -0.040 A 
ATOM     19  C   LIG    1       -4.920  -3.625   0.545  0.00  0.00    +0.270 A 
ATOM     20  N   LIG    1       -4.355  -4.683  -0.006  0.00  0.00    -0.490 NA
ATOM     21  C   LIG    1       -3.054  -4.759  -0.193  0.00  0.00    +0.300 A 
ENDBRANCH  15  16
ENDBRANCH   6  14
BRANCH   5  22
ATOM     22  C   LIG    1        2.718  -2.179   1.221  0.00  0.00    +0.230 C 
BRANCH  22  23
ATOM     23  C   LIG    1        2.675  -0.800   0.560  0.00  0.00    +0.160 C 
ATOM     24  C   LIG    1        3.810   0.097   1.113  0.00  0.00    +0.020 C 
ATOM     25  C   LIG    1        3.221   1.511   0.856  0.00  0.00    +0.000 C 
ATOM     26  C   LIG    1        1.710   1.280   1.071  0.00  0.00    +0.190 C 
ATOM     27  O   LIG    1        1.458  -0.120   0.904  0.00  0.00    -0.370 OA
ENDBRANCH  22  23
ENDBRANCH   5  22
TORSDOF 5
