REMARK  Name = ZINCqH0000005aqC.0
REMARK                            x       y       z     vdW  Elec       q    Type
REMARK                         _______ _______ _______ _____ _____    ______ ____
ROOT
ATOM      1  C   LIG    1       -2.449   1.119   0.020  0.00  0.00    +0.290 C 
ENDROOT
BRANCH   1   2
ATOM      2  N   LIG    1       -1.191   1.869   0.018  0.00  0.00    -0.700 N 
ATOM      3  H   LIG    1       -1.204   2.839   0.023  0.00  0.00    +0.400 HD
ATOM      4  C   LIG    1       -0.014   1.211   0.009  0.00  0.00    +0.660 C 
ATOM      5  O   LIG    1        0.002  -0.004   0.002  0.00  0.00    -0.550 OA
BRANCH   4   6
ATOM      6  O   LIG    1        1.142   1.900   0.001  0.00  0.00    -0.370 OA
BRANCH   6   7
ATOM      7  C   LIG    1        2.371   1.126  -0.015  0.00  0.00    +0.140 C 
ATOM      8  C   LIG    1        2.429   0.237   1.229  0.00  0.00    +0.030 C 
ATOM      9  C   LIG    1        3.571   2.074  -0.021  0.00  0.00    +0.060 C 
ATOM     10  C   LIG    1        2.405   0.250  -1.269  0.00  0.00    +0.040 C 
ENDBRANCH   6   7
ENDBRANCH   4   6
ENDBRANCH   1   2
BRANCH   1  11
ATOM     11  C   LIG    1       -3.559   1.985  -0.580  0.00  0.00    +0.060 C 
BRANCH  11  14
ATOM     12  C   LIG    1       -5.316   3.551  -2.158  0.00  0.00    +0.270 C 
ATOM     13  N   LIG    1       -4.104   3.001  -2.769  0.00  0.00    -0.620 N 
ATOM     14  C   LIG    1       -3.258   2.254  -2.032  0.00  0.00    +0.510 C 
ATOM     15  O   LIG    1       -2.254   1.798  -2.537  0.00  0.00    -0.520 OA
BRANCH  13  16
ATOM     16  C   LIG    1       -3.810   3.262  -4.180  0.00  0.00    +0.280 C 
BRANCH  16  17
ATOM     17  C   LIG    1       -4.435   2.164  -5.043  0.00  0.00    -0.040 C 
ATOM     18  C   LIG    1       -3.542   0.922  -5.201  0.00  0.00    +0.020 C 
ATOM     19  C   LIG    1       -4.000   0.879  -6.670  0.00  0.00    +0.000 C 
ATOM     20  C   LIG    1       -4.257   2.391  -6.553  0.00  0.00    +0.020 C 
ENDBRANCH  16  17
ENDBRANCH  13  16
ENDBRANCH  11  14
ENDBRANCH   1  11
BRANCH   1  21
ATOM     21  C   LIG    1       -2.816   0.742   1.456  0.00  0.00    +0.070 C 
BRANCH  21  22
ATOM     22  C   LIG    1       -1.785  -0.209   2.005  0.00  0.00    -0.060 A 
ATOM     23  C   LIG    1       -1.953  -1.573   1.856  0.00  0.00    +0.000 A 
ATOM     24  C   LIG    1       -1.005  -2.446   2.355  0.00  0.00    +0.010 A 
ATOM     25  C   LIG    1        0.107  -1.955   3.013  0.00  0.00    -0.010 A 
ATOM     26  C   LIG    1        0.274  -0.591   3.167  0.00  0.00    +0.000 A 
ATOM     27  C   LIG    1       -0.672   0.282   2.664  0.00  0.00    +0.000 A 
ENDBRANCH  21  22
ENDBRANCH   1  21
TORSDOF 9
