REMARK  Name = ZINCpe000000XNwY.0
REMARK                            x       y       z     vdW  Elec       q    Type
REMARK                         _______ _______ _______ _____ _____    ______ ____
ROOT
ATOM      1  N   LIG    1        2.452   1.135  -0.003  0.00  0.00    -0.560 N 
ATOM      2  C   LIG    1        2.611  -0.201  -0.002  0.00  0.00    +0.700 C 
ATOM      3  N   LIG    1        3.899  -0.562  -0.037  0.00  0.00    -0.570 N 
ATOM      4  C   LIG    1        4.715   0.510  -0.055  0.00  0.00    +0.540 C 
ATOM      5  O   LIG    1        5.927   0.507  -0.082  0.00  0.00    -0.450 OA
ATOM      6  O   LIG    1        1.688  -0.991   0.024  0.00  0.00    -0.520 OA
ATOM      7  C   LIG    1        3.803   1.721  -0.034  0.00  0.00    +0.230 C 
ATOM      8  C   LIG    1        3.997   2.562  -1.297  0.00  0.00    +0.090 C 
ENDROOT
BRANCH   1  13
ATOM      9  C   LIG    1       -2.465   3.963   0.112  0.00  0.00    +0.100 C 
ATOM     10  C   LIG    1       -1.159   3.212   0.081  0.00  0.00    -0.110 A 
ATOM     11  C   LIG    1       -1.158   1.829   0.075  0.00  0.00    +0.040 A 
ATOM     12  C   LIG    1        0.037   1.138   0.052  0.00  0.00    +0.000 A 
ATOM     13  C   LIG    1        1.239   1.833   0.025  0.00  0.00    +0.180 A 
ATOM     14  C   LIG    1        1.235   3.221   0.026  0.00  0.00    -0.020 A 
ATOM     15  C   LIG    1        0.036   3.907   0.054  0.00  0.00    +0.040 A 
ENDBRANCH   1  13
BRANCH   3  16
ATOM     16  C   LIG    1        4.364  -1.951  -0.047  0.00  0.00    +0.290 C 
BRANCH  16  17
ATOM     17  C   LIG    1        4.558  -2.434   1.392  0.00  0.00    +0.200 C 
BRANCH  17  18
ATOM     18  O   LIG    1        5.528  -1.612   2.044  0.00  0.00    -0.540 OA
ATOM     19  H   LIG    1        6.397  -1.619   1.621  0.00  0.00    +0.380 HD
ENDBRANCH  17  18
BRANCH  17  20
ATOM     20  C   LIG    1        5.043  -3.885   1.381  0.00  0.00    +0.160 C 
BRANCH  20  21
ATOM     21  N   LIG    1        5.217  -4.353   2.763  0.00  0.00    -0.530 NA
ATOM     22  C   LIG    1        6.095  -5.532   2.813  0.00  0.00    +0.150 C 
ATOM     23  C   LIG    1        6.297  -5.949   4.272  0.00  0.00    +0.220 C 
ATOM     24  O   LIG    1        5.022  -6.197   4.872  0.00  0.00    -0.390 OA
ATOM     25  C   LIG    1        4.142  -5.070   4.841  0.00  0.00    +0.220 C 
ATOM     26  C   LIG    1        3.919  -4.644   3.388  0.00  0.00    +0.150 C 
ENDBRANCH  20  21
ENDBRANCH  17  20
ENDBRANCH  16  17
ENDBRANCH   3  16
TORSDOF 6
