REMARK  Name = ZINCqH0000006H6b.0
REMARK                            x       y       z     vdW  Elec       q    Type
REMARK                         _______ _______ _______ _____ _____    ______ ____
ROOT
ATOM      1  C   LIG    1       -1.409   3.371   2.449  0.00  0.00    +0.170 A 
ATOM      2  C   LIG    1       -1.508   4.730   2.672  0.00  0.00    +0.020 A 
ATOM      3  C   LIG    1       -0.999   5.629   1.731  0.00  0.00    -0.050 A 
ATOM      4  C   LIG    1       -0.386   5.149   0.572  0.00  0.00    -0.010 A 
ATOM      5  C   LIG    1       -0.286   3.791   0.357  0.00  0.00    +0.080 A 
ATOM      6  C   LIG    1       -0.792   2.898   1.292  0.00  0.00    +0.100 A 
ENDROOT
BRANCH   3   7
ATOM      7  C   LIG    1       -1.107   7.083   1.963  0.00  0.00    +0.560 C 
ATOM      8  N   LIG    1       -2.311   7.641   2.194  0.00  0.00    -0.720 N 
ATOM      9  H   LIG    1       -3.107   7.087   2.209  0.00  0.00    +0.400 HD
ATOM     10  O   LIG    1       -0.108   7.777   1.944  0.00  0.00    -0.490 OA
BRANCH   8  11
ATOM     11  C   LIG    1       -2.418   9.084   2.424  0.00  0.00    +0.330 C 
BRANCH  11  12
ATOM     12  C   LIG    1       -3.862   9.450   2.656  0.00  0.00    -0.110 A 
ATOM     13  C   LIG    1       -4.666   9.799   1.588  0.00  0.00    +0.060 A 
ATOM     14  C   LIG    1       -5.992  10.130   1.800  0.00  0.00    +0.030 A 
ATOM     15  C   LIG    1       -6.510  10.122   3.083  0.00  0.00    -0.030 A 
ATOM     16  C   LIG    1       -5.702   9.777   4.152  0.00  0.00    +0.030 A 
ATOM     17 CL   LIG    1       -8.172  10.546   3.350  0.00  0.00    -0.060 Cl
ATOM     18  C   LIG    1       -4.379   9.441   3.938  0.00  0.00    +0.050 A 
ENDBRANCH  11  12
ENDBRANCH   8  11
ENDBRANCH   3   7
BRANCH   4  19
ATOM     19  N   LIG    1        0.155   6.098  -0.427  0.00  0.00    +0.030 N 
ATOM     20  O   LIG    1       -0.038   7.293  -0.298  0.00  0.00    -0.120 OA
ATOM     21  O   LIG    1        0.794   5.683  -1.378  0.00  0.00    -0.160 OA
ENDBRANCH   4  19
BRANCH   1  23
ATOM     22  C   LIG    1       -2.528   3.048   4.523  0.00  0.00    +0.280 C 
ATOM     23  O   LIG    1       -1.909   2.494   3.361  0.00  0.00    -0.290 OA
ENDBRANCH   1  23
BRANCH   6  24
ATOM     24  O   LIG    1       -0.690   1.561   1.076  0.00  0.00    -0.300 OA
BRANCH  24  25
ATOM     25  C   LIG    1       -0.052   1.146  -0.133  0.00  0.00    +0.610 C 
ATOM     26  F   LIG    1       -0.757   1.651  -1.231  0.00  0.00    -0.190 F 
ATOM     27  F   LIG    1        1.260   1.631  -0.158  0.00  0.00    -0.190 F 
ENDBRANCH  24  25
ENDBRANCH   6  24
TORSDOF 7
