REMARK  Name = ZINCpk000005ZC31.0
REMARK                            x       y       z     vdW  Elec       q    Type
REMARK                         _______ _______ _______ _____ _____    ______ ____
ROOT
ATOM      1  O   LIG    1        3.665   3.270  -4.977  0.00  0.00    -0.470 OA
ATOM      2  C   LIG    1        4.704   3.248  -4.353  0.00  0.00    +0.520 C 
ATOM      3  C   LIG    1        5.950   3.862  -4.940  0.00  0.00    +0.100 C 
ATOM      4  C   LIG    1        6.792   4.470  -3.817  0.00  0.00    +0.340 C 
ATOM      5  N   LIG    1        6.894   3.516  -2.710  0.00  0.00    -0.710 N 
ATOM      6  H   LIG    1        7.718   3.460  -2.202  0.00  0.00    +0.430 HD
ATOM      7  C   LIG    1        5.863   2.718  -2.390  0.00  0.00    +0.720 C 
ATOM      8  O   LIG    1        5.943   2.013  -1.403  0.00  0.00    -0.550 OA
ATOM      9  N   LIG    1        4.745   2.680  -3.134  0.00  0.00    -0.570 N 
ENDROOT
BRANCH   4  10
ATOM     10  C   LIG    1        8.171   4.785  -4.337  0.00  0.00    +0.010 A 
ATOM     11  N   LIG    1        9.092   3.911  -4.563  0.00  0.00    -0.450 NA
ATOM     12  C   LIG    1       10.244   4.357  -5.022  0.00  0.00    +0.220 A 
ATOM     13  C   LIG    1       10.300   5.682  -5.184  0.00  0.00    -0.060 A 
ATOM     14  S   LIG    1        8.743   6.353  -4.706  0.00  0.00    +0.170 S 
ENDBRANCH   4  10
BRANCH   9  15
ATOM     15  C   LIG    1        3.553   2.006  -2.612  0.00  0.00    +0.290 C 
BRANCH  15  16
ATOM     16  C   LIG    1        2.700   3.008  -1.833  0.00  0.00    +0.310 C 
BRANCH  16  17
ATOM     17  N   LIG    1        1.508   2.333  -1.311  0.00  0.00    -0.630 N 
ATOM     18  C   LIG    1        1.410   1.667  -0.003  0.00  0.00    +0.270 C 
ATOM     19  C   LIG    1       -0.013   1.086   0.008  0.00  0.00    +0.220 C 
ATOM     20  C   LIG    1       -0.805   1.626   1.202  0.00  0.00    +0.020 C 
ATOM     21  C   LIG    1       -2.297   1.336   0.967  0.00  0.00    +0.010 C 
ATOM     22  C   LIG    1       -2.807   2.046  -0.287  0.00  0.00    +0.010 C 
ATOM     23  C   LIG    1       -2.052   1.527  -1.520  0.00  0.00    +0.310 C 
ATOM     24  N   LIG    1       -0.615   1.626  -1.229  0.00  0.00    -0.630 N 
ATOM     25  C   LIG    1        0.333   2.226  -1.950  0.00  0.00    +0.700 C 
ATOM     26  O   LIG    1        0.150   2.637  -3.080  0.00  0.00    -0.580 OA
ENDBRANCH  16  17
ENDBRANCH  15  16
ENDBRANCH   9  15
TORSDOF 4
