REMARK  Name = ZINCtV00000L6kgB.0
REMARK                            x       y       z     vdW  Elec       q    Type
REMARK                         _______ _______ _______ _____ _____    ______ ____
ROOT
ATOM      1  N   LIG    1        1.916  -4.241  -0.104  0.00  0.00    -0.360 N 
ATOM      2  N   LIG    1        2.314  -2.898  -0.127  0.00  0.00    -0.230 NA
ATOM      3  C   LIG    1        1.248  -2.158  -0.011  0.00  0.00    +0.310 A 
ATOM      4  N   LIG    1        0.147  -2.986   0.081  0.00  0.00    -0.470 N 
ATOM      5  C   LIG    1        0.573  -4.264   0.023  0.00  0.00    +0.470 A 
ATOM      6  S   LIG    1       -0.412  -5.662   0.095  0.00  0.00    -0.580 S 
ENDROOT
BRANCH   3   7
ATOM      7  C   LIG    1        1.220  -0.679   0.012  0.00  0.00    -0.030 A 
ATOM      8  C   LIG    1        1.744   0.048  -1.057  0.00  0.00    +0.110 A 
ATOM      9  C   LIG    1        1.716   1.427  -1.030  0.00  0.00    +0.050 A 
ATOM     10  C   LIG    1        1.170   2.091   0.055  0.00  0.00    -0.000 A 
ATOM     11  C   LIG    1        0.648   1.375   1.120  0.00  0.00    +0.060 A 
ATOM     12 CL   LIG    1        1.139   3.826   0.081  0.00  0.00    -0.040 Cl
ATOM     13  C   LIG    1        0.670  -0.005   1.104  0.00  0.00    -0.000 A 
ATOM     14 CL   LIG    1        0.016  -0.900   2.440  0.00  0.00    -0.030 Cl
ENDBRANCH   3   7
BRANCH   1  15
ATOM     15  C   LIG    1        2.796  -5.408  -0.203  0.00  0.00    +0.520 C 
BRANCH  15  20
ATOM     16  C   LIG    1        4.481  -6.950  -5.443  0.00  0.00    +0.010 C 
ATOM     17  C   LIG    1        4.002  -6.984  -3.991  0.00  0.00    -0.030 C 
ATOM     18  C   LIG    1        5.038  -6.301  -3.094  0.00  0.00    +0.030 C 
ATOM     19  C   LIG    1        4.526  -6.286  -1.651  0.00  0.00    +0.180 C 
ATOM     20  N   LIG    1        3.249  -5.563  -1.592  0.00  0.00    -0.550 NA
ATOM     21  C   LIG    1        2.225  -6.227  -2.409  0.00  0.00    +0.190 C 
ATOM     22  C   LIG    1        2.668  -6.241  -3.873  0.00  0.00    +0.030 C 
ENDBRANCH  15  20
ENDBRANCH   1  15
BRANCH   4  23
ATOM     23  C   LIG    1       -1.246  -2.552   0.219  0.00  0.00    +0.380 C 
BRANCH  23  24
ATOM     24  C   LIG    1       -1.897  -2.513  -1.139  0.00  0.00    -0.130 A 
ATOM     25  C   LIG    1       -1.768  -1.391  -1.936  0.00  0.00    +0.020 A 
ATOM     26  C   LIG    1       -2.361  -1.357  -3.184  0.00  0.00    -0.010 A 
ATOM     27  C   LIG    1       -3.093  -2.442  -3.631  0.00  0.00    +0.020 A 
ATOM     28  C   LIG    1       -3.226  -3.562  -2.832  0.00  0.00    +0.010 A 
ATOM     29  C   LIG    1       -2.628  -3.598  -1.586  0.00  0.00    +0.060 A 
ENDBRANCH  23  24
ENDBRANCH   4  23
TORSDOF 5
