REMARK  Name = ZINCtV00000L6kNE.0
REMARK                            x       y       z     vdW  Elec       q    Type
REMARK                         _______ _______ _______ _____ _____    ______ ____
ROOT
ATOM      1  C   LIG    1        0.002  -0.004   0.002  0.00  0.00    +0.000 A 
ATOM      2  C   LIG    1        1.205  -0.695  -0.014  0.00  0.00    +0.030 A 
ATOM      3  C   LIG    1        2.403  -0.013  -0.021  0.00  0.00    +0.010 A 
ATOM      4  C   LIG    1        2.404   1.375  -0.013  0.00  0.00    +0.060 A 
ATOM      5  C   LIG    1        1.185   2.075   0.002  0.00  0.00    +0.040 A 
ATOM      6  N   LIG    1        1.489   3.398   0.007  0.00  0.00    -0.460 NA
ATOM      7  C   LIG    1        2.781   3.550  -0.004  0.00  0.00    +0.270 A 
ATOM      8  N   LIG    1        3.395   2.336  -0.017  0.00  0.00    -0.480 N 
ATOM      9  C   LIG    1       -0.017   1.362   0.009  0.00  0.00    +0.070 A 
ENDROOT
BRANCH   7  10
ATOM     10  C   LIG    1        3.494   4.878  -0.004  0.00  0.00    +0.320 C 
BRANCH  10  11
ATOM     11  O   LIG    1        3.706   5.305  -1.351  0.00  0.00    -0.300 OA
BRANCH  11  12
ATOM     12  C   LIG    1        4.341   6.492  -1.528  0.00  0.00    +0.150 A 
ATOM     13  C   LIG    1        4.586   6.979  -2.829  0.00  0.00    -0.070 A 
ATOM     14  C   LIG    1        4.184   6.257  -3.965  0.00  0.00    +0.050 A 
ATOM     15  C   LIG    1        4.437   6.759  -5.205  0.00  0.00    -0.010 A 
ATOM     16  C   LIG    1        5.090   7.979  -5.366  0.00  0.00    +0.030 A 
ATOM     17  C   LIG    1        5.493   8.706  -4.288  0.00  0.00    +0.010 A 
ATOM     18  C   LIG    1        5.250   8.220  -2.992  0.00  0.00    -0.020 A 
ATOM     19  C   LIG    1        5.652   8.941  -1.855  0.00  0.00    -0.010 A 
ATOM     20  C   LIG    1        5.401   8.442  -0.613  0.00  0.00    +0.060 A 
ATOM     21  C   LIG    1        4.743   7.226  -0.448  0.00  0.00    -0.090 A 
ENDBRANCH  11  12
ENDBRANCH  10  11
ENDBRANCH   7  10
BRANCH   8  22
ATOM     22  C   LIG    1        4.840   2.093  -0.033  0.00  0.00    +0.290 C 
BRANCH  22  23
ATOM     23  C   LIG    1        5.329   2.018  -1.480  0.00  0.00    +0.020 C 
BRANCH  23  24
ATOM     24  C   LIG    1        6.838   1.764  -1.496  0.00  0.00    -0.010 C 
ATOM     25  C   LIG    1        7.563   2.965  -0.886  0.00  0.00    +0.000 C 
ATOM     26  C   LIG    1        9.072   2.712  -0.902  0.00  0.00    +0.000 C 
ATOM     27  C   LIG    1        9.540   2.512  -2.345  0.00  0.00    +0.000 C 
ATOM     28  C   LIG    1        8.815   1.311  -2.955  0.00  0.00    +0.000 C 
ATOM     29  C   LIG    1        7.306   1.564  -2.939  0.00  0.00    +0.010 C 
ENDBRANCH  23  24
ENDBRANCH  22  23
ENDBRANCH   8  22
TORSDOF 6
