REMARK  Name = ZINCkj00000GeQtF.0
REMARK                            x       y       z     vdW  Elec       q    Type
REMARK                         _______ _______ _______ _____ _____    ______ ____
ROOT
ATOM      1  C   LIG    1       -2.204   1.150   3.787  0.00  0.00    +0.100 C 
ATOM      2  C   LIG    1       -1.838   2.475   4.498  0.00  0.00    +0.040 C 
ATOM      3  C   LIG    1       -2.820   3.479   3.842  0.00  0.00    +0.230 C 
ATOM      4  O   LIG    1       -2.885   3.036   2.469  0.00  0.00    -0.360 OA
ATOM      5  C   LIG    1       -2.909   1.599   2.492  0.00  0.00    +0.180 C 
ENDROOT
BRANCH   5   6
ATOM      6  C   LIG    1       -2.163   1.047   1.275  0.00  0.00    +0.000 C 
ATOM      7  C   LIG    1       -0.728   1.579   1.268  0.00  0.00    +0.060 C 
ATOM      8  C   LIG    1       -0.013   1.086   0.008  0.00  0.00    +0.250 C 
ATOM      9  N   LIG    1       -0.722   1.571  -1.182  0.00  0.00    -0.380 N 
ATOM     10  C   LIG    1       -2.076   1.008  -1.219  0.00  0.00    +0.250 C 
ATOM     11  C   LIG    1        0.011   1.162  -2.388  0.00  0.00    +0.310 C 
ATOM     12  H   LIG    1       -0.778   2.578  -1.151  0.00  0.00    +0.430 HD
ATOM     13  C   LIG    1       -2.870   1.498  -0.006  0.00  0.00    +0.070 C 
ENDBRANCH   5   6
BRANCH   1  17
ATOM     14  C   LIG    1       -4.046  -1.216   5.766  0.00  0.00    +0.430 A 
ATOM     15  N   LIG    1       -4.814  -0.160   5.789  0.00  0.00    -0.430 NA
ATOM     16  O   LIG    1       -4.308   0.738   5.148  0.00  0.00    +0.070 OA
ATOM     17  C   LIG    1       -3.139   0.334   4.641  0.00  0.00    +0.190 A 
ATOM     18  N   LIG    1       -2.963  -0.908   5.021  0.00  0.00    -0.500 NA
BRANCH  14  20
ATOM     19  C   LIG    1       -5.529  -2.617   7.162  0.00  0.00    +0.320 C 
ATOM     20  N   LIG    1       -4.299  -2.432   6.388  0.00  0.00    -0.590 N 
ATOM     21  C   LIG    1       -3.336  -3.530   6.269  0.00  0.00    +0.310 C 
ENDBRANCH  14  20
ENDBRANCH   1  17
TORSDOF 3
