REMARK  Name = ZINCrD000003APhv.0
REMARK                            x       y       z     vdW  Elec       q    Type
REMARK                         _______ _______ _______ _____ _____    ______ ____
ROOT
ATOM      1  N   LIG    1        5.624   7.967   0.237  0.00  0.00    -0.730 N 
ATOM      2  H   LIG    1        4.705   8.277   0.238  0.00  0.00    +0.400 HD
ATOM      3  C   LIG    1        6.633   8.852   0.355  0.00  0.00    +0.580 C 
ATOM      4  O   LIG    1        7.786   8.464   0.353  0.00  0.00    -0.510 OA
ENDROOT
BRANCH   3   5
ATOM      5  C   LIG    1        6.341  10.287   0.486  0.00  0.00    +0.010 A 
ATOM      6  C   LIG    1        7.269  11.271   0.617  0.00  0.00    +0.060 A 
ATOM      7  C   LIG    1        6.580  12.505   0.710  0.00  0.00    -0.100 A 
ATOM      8  C   LIG    1        7.003  13.833   0.853  0.00  0.00    +0.040 A 
ATOM      9  C   LIG    1        6.067  14.843   0.922  0.00  0.00    +0.080 A 
ATOM     10  C   LIG    1        4.707  14.550   0.852  0.00  0.00    +0.030 A 
ATOM     11  C   LIG    1        4.277  13.250   0.711  0.00  0.00    +0.010 A 
ATOM     12  C   LIG    1        5.204  12.214   0.639  0.00  0.00    +0.110 A 
ATOM     13  N   LIG    1        5.080  10.850   0.502  0.00  0.00    -0.580 N 
ATOM     14  H   LIG    1        4.244  10.363   0.428  0.00  0.00    +0.420 HD
BRANCH   9  15
ATOM     15  O   LIG    1        6.474  16.134   1.061  0.00  0.00    -0.500 OA
ATOM     16  H   LIG    1        6.620  16.592   0.222  0.00  0.00    +0.390 HD
ENDBRANCH   9  15
ENDBRANCH   3   5
BRANCH   1  17
ATOM     17  C   LIG    1        5.915   6.537   0.106  0.00  0.00    +0.290 C 
BRANCH  17  19
ATOM     18  C   LIG    1        3.893   6.147  -1.310  0.00  0.00    +0.040 C 
ATOM     19  C   LIG    1        4.603   5.758  -0.011  0.00  0.00    -0.030 C 
BRANCH  19  20
ATOM     20  C   LIG    1        4.900   4.258  -0.022  0.00  0.00    +0.290 C 
BRANCH  20  21
ATOM     21  N   LIG    1        3.640   3.510  -0.014  0.00  0.00    -0.730 N 
ATOM     22  H   LIG    1        2.794   3.985  -0.004  0.00  0.00    +0.400 HD
ATOM     23  C   LIG    1        3.656   2.163  -0.022  0.00  0.00    +0.550 C 
ATOM     24  O   LIG    1        4.715   1.567  -0.035  0.00  0.00    -0.510 OA
BRANCH  23  25
ATOM     25  C   LIG    1        2.385   1.409  -0.014  0.00  0.00    -0.130 A 
ATOM     26  C   LIG    1        1.166   2.089   0.002  0.00  0.00    +0.050 A 
ATOM     27  C   LIG    1       -0.017   1.380   0.010  0.00  0.00    +0.020 A 
ATOM     28  C   LIG    1        0.002  -0.004   0.002  0.00  0.00    +0.060 A 
ATOM     29  C   LIG    1        1.205  -0.686  -0.013  0.00  0.00    +0.020 A 
ATOM     30  C   LIG    1        2.397   0.012  -0.021  0.00  0.00    +0.010 A 
ATOM     31 CL   LIG    1        3.907  -0.845  -0.041  0.00  0.00    -0.030 Cl
ENDBRANCH  23  25
ENDBRANCH  20  21
ENDBRANCH  19  20
ENDBRANCH  17  19
ENDBRANCH   1  17
TORSDOF 7
