REMARK  Name = ZINCpe000000YSWf.0
REMARK                            x       y       z     vdW  Elec       q    Type
REMARK                         _______ _______ _______ _____ _____    ______ ____
ROOT
ATOM      1  O   LIG    1        0.002  -0.004   0.002  0.00  0.00    -0.510 OA
ATOM      2  C   LIG    1       -0.014   1.209   0.009  0.00  0.00    +0.500 C 
ATOM      3  N   LIG    1        1.143   1.898   0.001  0.00  0.00    -0.730 N 
ATOM      4  H   LIG    1        1.130   2.868   0.007  0.00  0.00    +0.400 HD
ENDROOT
BRANCH   3   5
ATOM      5  C   LIG    1        2.422   1.183  -0.015  0.00  0.00    +0.270 C 
BRANCH   5   6
ATOM      6  C   LIG    1        3.571   2.193  -0.020  0.00  0.00    +0.270 C 
BRANCH   6   7
ATOM      7  N   LIG    1        4.850   1.478  -0.036  0.00  0.00    -0.700 N 
ATOM      8  H   LIG    1        4.863   0.508  -0.042  0.00  0.00    +0.420 HD
BRANCH   7   9
ATOM      9  C   LIG    1        6.039   2.186  -0.044  0.00  0.00    +0.560 A 
ATOM     10  N   LIG    1        6.003   3.511  -0.042  0.00  0.00    -0.570 NA
ATOM     11  C   LIG    1        7.121   4.218  -0.043  0.00  0.00    +0.360 A 
ATOM     12  C   LIG    1        8.339   3.556  -0.059  0.00  0.00    -0.140 A 
ATOM     13  C   LIG    1        8.340   2.170  -0.066  0.00  0.00    +0.360 A 
ATOM     14  N   LIG    1        7.186   1.524  -0.058  0.00  0.00    -0.570 NA
ENDBRANCH   7   9
ENDBRANCH   6   7
ENDBRANCH   5   6
ENDBRANCH   3   5
BRANCH   2  15
ATOM     15  C   LIG    1       -1.330   1.944   0.019  0.00  0.00    +0.330 C 
BRANCH  15  16
ATOM     16  N   LIG    1       -2.430   0.977   0.019  0.00  0.00    -0.540 N 
ATOM     17  C   LIG    1       -2.952   0.537  -1.148  0.00  0.00    +0.530 C 
ATOM     18  C   LIG    1       -4.133  -0.399  -1.131  0.00  0.00    +0.040 C 
ATOM     19  C   LIG    1       -3.693  -1.799  -0.707  0.00  0.00    +0.250 C 
ATOM     20  O   LIG    1       -2.803  -1.725   0.404  0.00  0.00    -0.320 OA
ATOM     21  C   LIG    1       -3.131  -0.868   1.407  0.00  0.00    +0.100 A 
ATOM     22  C   LIG    1       -3.644  -1.347   2.600  0.00  0.00    +0.020 A 
ATOM     23  C   LIG    1       -3.985  -0.463   3.608  0.00  0.00    +0.020 A 
ATOM     24  C   LIG    1       -3.814   0.897   3.430  0.00  0.00    +0.020 A 
ATOM     25  C   LIG    1       -3.300   1.383   2.241  0.00  0.00    +0.010 A 
ATOM     26  O   LIG    1       -2.470   0.890  -2.203  0.00  0.00    -0.520 OA
ATOM     27  C   LIG    1       -2.956   0.503   1.228  0.00  0.00    +0.110 A 
ENDBRANCH  15  16
ENDBRANCH   2  15
TORSDOF 6
