REMARK  Name = ZINCtV000002x5Ne.0
REMARK                            x       y       z     vdW  Elec       q    Type
REMARK                         _______ _______ _______ _____ _____    ______ ____
ROOT
ATOM      1  C   LIG    1        5.949   2.259  -0.039  0.00  0.00    -0.220 A 
ATOM      2  C   LIG    1        5.902   3.609  -0.031  0.00  0.00    +0.280 A 
ATOM      3  N   LIG    1        7.179   4.072  -0.040  0.00  0.00    -0.320 N 
ATOM      4  N   LIG    1        8.040   2.967  -0.054  0.00  0.00    -0.270 NA
ATOM      5  C   LIG    1        7.305   1.874  -0.048  0.00  0.00    +0.130 A 
ENDROOT
BRANCH   5   6
ATOM      6  C   LIG    1        7.815   0.481  -0.052  0.00  0.00    -0.010 A 
ATOM      7  C   LIG    1        7.135  -0.514   0.647  0.00  0.00    +0.050 A 
ATOM      8  C   LIG    1        7.610  -1.810   0.635  0.00  0.00    +0.030 A 
ATOM      9  C   LIG    1        8.766  -2.119  -0.060  0.00  0.00    -0.030 A 
ATOM     10  C   LIG    1        9.448  -1.133  -0.752  0.00  0.00    +0.030 A 
ATOM     11 CL   LIG    1        9.363  -3.749  -0.065  0.00  0.00    -0.060 Cl
ATOM     12  C   LIG    1        8.978   0.165  -0.751  0.00  0.00    +0.060 A 
ENDBRANCH   5   6
BRANCH   3  13
ATOM     13  C   LIG    1        7.567   5.418  -0.036  0.00  0.00    +0.160 A 
ATOM     14  C   LIG    1        6.606   6.420  -0.026  0.00  0.00    -0.010 A 
ATOM     15  C   LIG    1        6.992   7.745  -0.015  0.00  0.00    +0.040 A 
ATOM     16  C   LIG    1        8.335   8.076  -0.026  0.00  0.00    +0.000 A 
ATOM     17  C   LIG    1        9.295   7.081  -0.041  0.00  0.00    +0.030 A 
ATOM     18  C   LIG    1        8.915   5.753  -0.046  0.00  0.00    +0.020 A 
ENDBRANCH   3  13
BRANCH   1  19
ATOM     19  C   LIG    1        4.763   1.330  -0.034  0.00  0.00    +0.280 C 
BRANCH  19  20
ATOM     20  O   LIG    1        3.558   2.096  -0.019  0.00  0.00    -0.300 OA
BRANCH  20  26
ATOM     21  C   LIG    1        1.173   2.087   0.002  0.00  0.00    +0.100 A 
ATOM     22  C   LIG    1       -0.017   1.379   0.010  0.00  0.00    -0.040 A 
ATOM     23  C   LIG    1        0.002  -0.004   0.002  0.00  0.00    +0.010 A 
ATOM     24  C   LIG    1        1.206  -0.682  -0.013  0.00  0.00    +0.010 A 
ATOM     25  C   LIG    1        2.398   0.020  -0.020  0.00  0.00    -0.030 A 
ATOM     26  C   LIG    1        2.386   1.405  -0.013  0.00  0.00    +0.100 A 
BRANCH  21  27
ATOM     27  O   LIG    1        1.157   3.447   0.009  0.00  0.00    -0.310 OA
BRANCH  27  29
ATOM     28  C   LIG    1        0.058   5.599   0.032  0.00  0.00    +0.070 C 
ATOM     29  C   LIG    1       -0.124   4.080   0.025  0.00  0.00    +0.170 C 
ENDBRANCH  27  29
ENDBRANCH  21  27
ENDBRANCH  20  26
ENDBRANCH  19  20
ENDBRANCH   1  19
TORSDOF 7
