REMARK  Name = ZINCrg000011ZflL.0
REMARK                            x       y       z     vdW  Elec       q    Type
REMARK                         _______ _______ _______ _____ _____    ______ ____
ROOT
ATOM      1  C   LIG    1       -2.557   7.904   1.464  0.00  0.00    +0.040 C 
ATOM      2  C   LIG    1       -1.202   7.433   1.997  0.00  0.00    +0.230 C 
ENDROOT
BRANCH   2   3
ATOM      3  N   LIG    1       -1.081   5.985   1.808  0.00  0.00    -0.710 N 
ATOM      4  H   LIG    1       -0.633   5.635   1.022  0.00  0.00    +0.410 HD
ATOM      5  C   LIG    1       -1.590   5.141   2.726  0.00  0.00    +0.580 C 
ATOM      6  O   LIG    1       -2.151   5.580   3.711  0.00  0.00    -0.520 OA
BRANCH   5   7
ATOM      7  C   LIG    1       -1.467   3.676   2.535  0.00  0.00    +0.080 A 
ATOM      8  C   LIG    1       -1.996   2.809   3.487  0.00  0.00    +0.040 A 
ATOM      9  C   LIG    1       -1.873   1.441   3.295  0.00  0.00    +0.070 A 
ATOM     10  C   LIG    1       -1.225   0.990   2.156  0.00  0.00    +0.030 A 
ATOM     11  CA  LIG    1       -0.723   1.911   1.250  0.00  0.00    +0.120 A 
ATOM     12  N   LIG    1       -0.849   3.203   1.460  0.00  0.00    -0.460 NA
BRANCH  11  13
ATOM     13  C   LIG    1       -0.017   1.425   0.010  0.00  0.00    +0.270 C 
BRANCH  13  14
ATOM     14  O   LIG    1        0.002  -0.004   0.002  0.00  0.00    -0.570 OA
ATOM     15  H   LIG    1        0.442  -0.387  -0.769  0.00  0.00    +0.390 HD
ENDBRANCH  13  14
ENDBRANCH  11  13
ENDBRANCH   5   7
ENDBRANCH   2   3
BRANCH   2  16
ATOM     16  C   LIG    1       -0.080   8.143   1.237  0.00  0.00    +0.280 C 
BRANCH  16  17
ATOM     17  N   LIG    1        1.214   7.605   1.662  0.00  0.00    -0.720 N 
ATOM     18  H   LIG    1        1.252   6.904   2.332  0.00  0.00    +0.400 HD
ATOM     19  C   LIG    1        2.353   8.083   1.123  0.00  0.00    +0.570 C 
ATOM     20  O   LIG    1        2.306   8.961   0.284  0.00  0.00    -0.520 OA
BRANCH  19  21
ATOM     21  C   LIG    1        3.660   7.541   1.553  0.00  0.00    -0.180 A 
ATOM     22  C   LIG    1        4.836   8.030   1.001  0.00  0.00    +0.190 A 
ATOM     23  C   LIG    1        6.054   7.480   1.443  0.00  0.00    +0.070 A 
ATOM     24  N   LIG    1        7.221   7.907   0.952  0.00  0.00    -0.460 NA
ATOM     25  C   LIG    1        8.358   7.399   1.359  0.00  0.00    +0.310 A 
ATOM     26  C   LIG    1        8.405   6.392   2.322  0.00  0.00    +0.000 A 
ATOM     27  C   LIG    1        7.248   5.912   2.865  0.00  0.00    +0.100 A 
ATOM     28  C   LIG    1        6.026   6.460   2.425  0.00  0.00    +0.090 A 
ATOM     29  N   LIG    1        4.862   6.028   2.921  0.00  0.00    -0.460 NA
ATOM     30  C   LIG    1        3.720   6.529   2.528  0.00  0.00    +0.320 A 
ENDBRANCH  19  21
ENDBRANCH  16  17
ENDBRANCH   2  16
TORSDOF 7
