REMARK  Name = ZINCkj000005h9ey.0
REMARK                            x       y       z     vdW  Elec       q    Type
REMARK                         _______ _______ _______ _____ _____    ______ ____
ROOT
ATOM      1  C   LIG    1        2.437  -0.397   0.690  0.00  0.00    +0.150 C 
ATOM      2  C   LIG    1        2.663   1.114   0.615  0.00  0.00    +0.040 C 
ATOM      3  C   LIG    1        1.895   1.688  -0.577  0.00  0.00    +0.050 C 
ATOM      4  C   LIG    1        0.397   1.432  -0.385  0.00  0.00    +0.300 C 
ATOM      5  N   LIG    1        0.187  -0.005  -0.167  0.00  0.00    -0.600 N 
ATOM      6  C   LIG    1       -0.686  -0.695  -0.928  0.00  0.00    +0.620 C 
ATOM      7  O   LIG    1       -0.756  -1.905  -0.829  0.00  0.00    -0.540 OA
ATOM      8  C   LIG    1        0.945  -0.677   0.897  0.00  0.00    +0.300 C 
ENDROOT
BRANCH   6   9
ATOM      9  C   LIG    1       -1.555   0.017  -1.882  0.00  0.00    -0.080 A 
ATOM     10  C   LIG    1       -2.378  -0.558  -2.808  0.00  0.00    +0.240 A 
ATOM     11  N   LIG    1       -2.987   0.449  -3.466  0.00  0.00    -0.450 N 
ATOM     12  C   LIG    1       -3.965   0.343  -4.553  0.00  0.00    +0.300 C 
ATOM     13  C   LIG    1       -4.692   1.684  -4.696  0.00  0.00    +0.040 C 
ATOM     14  C   LIG    1       -3.665   2.816  -4.782  0.00  0.00    +0.030 C 
ATOM     15  C   LIG    1       -2.983   2.986  -3.419  0.00  0.00    +0.160 C 
ATOM     16  C   LIG    1       -2.535   1.624  -2.943  0.00  0.00    +0.230 A 
ATOM     17  N   LIG    1       -1.688   1.365  -1.995  0.00  0.00    -0.460 NA
ENDBRANCH   6   9
BRANCH   1  19
ATOM     18  C   LIG    1        2.980  -2.402   1.890  0.00  0.00    +0.330 C 
ATOM     19  N   LIG    1        3.200  -0.952   1.816  0.00  0.00    -0.380 N 
ATOM     20  C   LIG    1        4.631  -0.683   1.618  0.00  0.00    +0.330 C 
ATOM     21  H   LIG    1        2.894  -0.521   2.675  0.00  0.00    +0.430 HD
ENDBRANCH   1  19
TORSDOF 2
