REMARK  Name = ZINCwl0000000rTK.1
REMARK                            x       y       z     vdW  Elec       q    Type
REMARK                         _______ _______ _______ _____ _____    ______ ____
ROOT
ATOM      1  N   LIG    1       -0.005   0.011   0.024  0.00  0.00    -0.680 N 
ATOM      2  H   LIG    1        0.817  -0.436   0.279  0.00  0.00    +0.410 HD
ATOM      3  C   LIG    1        0.030   1.283  -0.422  0.00  0.00    +0.710 C 
ATOM      4  N   LIG    1        1.191   1.967  -0.416  0.00  0.00    -0.730 N 
ATOM      5  H   LIG    1        2.002   1.545  -0.092  0.00  0.00    +0.400 HD
ATOM      6  O   LIG    1       -0.985   1.811  -0.833  0.00  0.00    -0.570 OA
ENDROOT
BRANCH   1  10
ATOM      7  C   LIG    1       -3.643  -1.997   0.307  0.00  0.00    -0.170 A 
ATOM      8  C   LIG    1       -2.464  -2.712   0.076  0.00  0.00    +0.100 A 
ATOM      9  C   LIG    1       -1.264  -2.045  -0.017  0.00  0.00    -0.010 A 
ATOM     10  C   LIG    1       -1.222  -0.661   0.119  0.00  0.00    +0.210 A 
ATOM     11  C   LIG    1       -2.393   0.053   0.355  0.00  0.00    +0.020 A 
ATOM     12  C   LIG    1       -3.598  -0.607   0.443  0.00  0.00    +0.050 A 
BRANCH   7  18
ATOM     13  N   LIG    1       -7.848  -1.786  -2.305  0.00  0.00    -0.380 N 
ATOM     14  C   LIG    1       -7.767  -3.118  -1.692  0.00  0.00    +0.250 C 
ATOM     15  C   LIG    1       -7.281  -2.985  -0.245  0.00  0.00    +0.330 C 
ATOM     16  N   LIG    1       -6.013  -2.239  -0.246  0.00  0.00    -0.630 N 
ATOM     17  C   LIG    1       -5.961  -0.962  -0.975  0.00  0.00    +0.310 C 
ATOM     18  C   LIG    1       -4.932  -2.709   0.407  0.00  0.00    +0.580 C 
ATOM     19  O   LIG    1       -5.018  -3.719   1.077  0.00  0.00    -0.510 OA
ATOM     20  C   LIG    1       -6.508  -1.193  -2.392  0.00  0.00    +0.250 C 
ATOM     21  H   LIG    1       -8.440  -1.194  -1.742  0.00  0.00    +0.420 HD
BRANCH  13  23
ATOM     22  C   LIG    1       -8.389  -0.537  -4.341  0.00  0.00    +0.080 C 
ATOM     23  C   LIG    1       -8.418  -1.904  -3.654  0.00  0.00    +0.250 C 
ENDBRANCH  13  23
ENDBRANCH   7  18
ENDBRANCH   1  10
BRANCH   4  24
ATOM     24  C   LIG    1        1.229   3.349  -0.901  0.00  0.00    +0.340 C 
BRANCH  24  25
ATOM     25  C   LIG    1        2.634   3.883  -0.789  0.00  0.00    -0.110 A 
ATOM     26  C   LIG    1        3.039   4.526   0.365  0.00  0.00    +0.040 A 
ATOM     27  C   LIG    1        4.330   5.011   0.470  0.00  0.00    +0.040 A 
ATOM     28  C   LIG    1        5.212   4.861  -0.584  0.00  0.00    -0.080 A 
ATOM     29  C   LIG    1        4.805   4.223  -1.741  0.00  0.00    +0.040 A 
ATOM     30  C   LIG    1        3.516   3.733  -1.843  0.00  0.00    +0.040 A 
BRANCH  28  31
ATOM     31  C   LIG    1        6.617   5.394  -0.472  0.00  0.00    -0.280 C 
BRANCH  31  32
ATOM     32  S   LIG    1        6.664   7.106  -1.072  0.00  0.00    +2.610 S 
ATOM     33  O   LIG    1        5.951   7.963  -0.191  0.00  0.00    -0.950 OA
ATOM     34  O   LIG    1        6.441   7.149  -2.475  0.00  0.00    -0.950 OA
BRANCH  32  35
ATOM     35  N   LIG    1        8.245   7.562  -0.895  0.00  0.00    -1.250 NA
ATOM     36  H   LIG    1        8.785   7.177  -0.187  0.00  0.00    +0.410 HD
ATOM     37  H   LIG    1        8.632   8.215  -1.499  0.00  0.00    +0.420 HD
ENDBRANCH  32  35
ENDBRANCH  31  32
ENDBRANCH  28  31
ENDBRANCH  24  25
ENDBRANCH   4  24
TORSDOF 8
