REMARK  Name = ZINCAx0000000iOs.0
REMARK                            x       y       z     vdW  Elec       q    Type
REMARK                         _______ _______ _______ _____ _____    ______ ____
ROOT
ATOM      1  C   LIG    1       -2.151   4.386   0.037  0.00  0.00    +0.570 C 
ATOM      2  N   LIG    1       -2.117   5.734   0.044  0.00  0.00    -0.460 N 
ATOM      3  N   LIG    1       -0.964   6.515   0.042  0.00  0.00    -0.240 NA
ATOM      4  C   LIG    1       -1.187   7.784   0.049  0.00  0.00    +0.160 C 
ATOM      5  C   LIG    1       -2.679   8.034   0.058  0.00  0.00    +0.110 C 
ATOM      6  C   LIG    1       -3.292   6.620   0.048  0.00  0.00    +0.330 C 
ATOM      7  O   LIG    1       -3.217   3.807   0.039  0.00  0.00    -0.480 OA
ENDROOT
BRANCH   4   8
ATOM      8  C   LIG    1       -0.149   8.831   0.049  0.00  0.00    -0.040 A 
ATOM      9  C   LIG    1       -0.513  10.180   0.051  0.00  0.00    +0.070 A 
ATOM     10  C   LIG    1        0.463  11.154   0.056  0.00  0.00    +0.030 A 
ATOM     11  C   LIG    1        1.802  10.798   0.048  0.00  0.00    -0.020 A 
ATOM     12  C   LIG    1        2.169   9.463   0.039  0.00  0.00    +0.030 A 
ATOM     13 CL   LIG    1        3.024  12.030   0.048  0.00  0.00    -0.060 Cl
ATOM     14  C   LIG    1        1.203   8.478   0.040  0.00  0.00    +0.080 A 
ENDBRANCH   4   8
BRANCH   6  15
ATOM     15  C   LIG    1       -4.122   6.408  -1.192  0.00  0.00    -0.040 A 
ATOM     16  C   LIG    1       -5.465   6.412  -1.250  0.00  0.00    -0.030 A 
ATOM     17  C   LIG    1       -5.818   6.175  -2.599  0.00  0.00    -0.060 A 
ATOM     18  C   LIG    1       -4.668   6.040  -3.284  0.00  0.00    +0.180 A 
ATOM     19  O   LIG    1       -3.644   6.187  -2.428  0.00  0.00    -0.170 OA
ENDBRANCH   6  15
BRANCH   1  20
ATOM     20  C   LIG    1       -0.866   3.600   0.026  0.00  0.00    +0.270 C 
BRANCH  20  21
ATOM     21  O   LIG    1       -1.162   2.202   0.020  0.00  0.00    -0.080 OA
BRANCH  21  28
ATOM     22  C   LIG    1       -0.627  -2.313  -0.006  0.00  0.00    -0.630 A 
ATOM     23  C   LIG    1        0.712  -2.681  -0.020  0.00  0.00    +0.110 A 
ATOM     24  C   LIG    1        1.695  -1.735  -0.024  0.00  0.00    +0.110 A 
ATOM     25  C   LIG    1        1.358  -0.376  -0.013  0.00  0.00    +0.040 A 
ATOM     26  N   LIG    1        2.092   0.755  -0.014  0.00  0.00    -0.200 NA
ATOM     27  N   LIG    1        1.323   1.787  -0.001  0.00  0.00    +0.010 NA
ATOM     28  N   LIG    1       -0.017   1.371   0.010  0.00  0.00    -0.250 N 
ATOM     29  C   LIG    1        0.002  -0.004   0.002  0.00  0.00    +0.090 A 
ATOM     30  C   LIG    1       -0.985  -0.983   0.005  0.00  0.00    +0.170 A 
BRANCH  22  31
ATOM     31  S   LIG    1       -1.876  -3.556  -0.001  0.00  0.00    +2.690 S 
ATOM     32  O   LIG    1       -3.037  -2.956   0.558  0.00  0.00    -0.950 OA
ATOM     33  O   LIG    1       -1.274  -4.728   0.530  0.00  0.00    -0.940 OA
BRANCH  31  35
ATOM     34  C   LIG    1       -1.504  -4.940  -2.295  0.00  0.00    +0.300 C 
ATOM     35  N   LIG    1       -2.238  -3.892  -1.582  0.00  0.00    -1.000 NA
ATOM     36  C   LIG    1       -3.293  -3.142  -2.267  0.00  0.00    +0.310 C 
ENDBRANCH  31  35
ENDBRANCH  22  31
ENDBRANCH  21  28
ENDBRANCH  20  21
ENDBRANCH   1  20
TORSDOF 7
