REMARK  Name = ZINCrg00000BjCvv.0
REMARK                            x       y       z     vdW  Elec       q    Type
REMARK                         _______ _______ _______ _____ _____    ______ ____
ROOT
ATOM      1  C   LIG    1        1.829  -0.787  -4.462  0.00  0.00    +0.250 C 
ATOM      2  C   LIG    1        2.566  -0.298  -3.187  0.00  0.00    +0.040 C 
ATOM      3  C   LIG    1        1.599   0.801  -2.674  0.00  0.00    +0.260 C 
ATOM      4  N   LIG    1        0.250   0.275  -2.955  0.00  0.00    -0.620 N 
ATOM      5  C   LIG    1       -0.880   0.625  -2.310  0.00  0.00    +0.540 C 
ATOM      6  O   LIG    1       -1.940   0.130  -2.631  0.00  0.00    -0.500 OA
ATOM      7  C   LIG    1        0.342  -0.690  -4.061  0.00  0.00    +0.260 C 
ENDROOT
BRANCH   5   8
ATOM      8  C   LIG    1       -0.827   1.631  -1.190  0.00  0.00    +0.150 C 
ATOM      9  C   LIG    1       -0.013   1.086   0.008  0.00  0.00    +0.080 C 
ATOM     10  C   LIG    1       -0.788   1.608   1.202  0.00  0.00    +0.120 C 
ATOM     11  N   LIG    1       -1.941   1.992   0.794  0.00  0.00    -0.280 NA
ATOM     12  O   LIG    1       -2.129   1.812  -0.595  0.00  0.00    -0.170 OA
BRANCH  10  13
ATOM     13  C   LIG    1       -0.287   1.663   2.623  0.00  0.00    +0.030 C 
ATOM     14  C   LIG    1       -1.018   0.814   3.664  0.00  0.00    +0.050 C 
ATOM     15  C   LIG    1       -1.185   2.335   3.663  0.00  0.00    +0.060 C 
ENDBRANCH  10  13
ENDBRANCH   5   8
BRANCH   1  18
ATOM     16  O   LIG    1        3.859  -1.513  -6.080  0.00  0.00    -0.510 OA
ATOM     17  C   LIG    1        3.228  -2.429  -5.595  0.00  0.00    +0.520 C 
ATOM     18  N   LIG    1        2.193  -2.172  -4.772  0.00  0.00    -0.720 N 
ATOM     19  H   LIG    1        1.688  -2.904  -4.384  0.00  0.00    +0.410 HD
BRANCH  17  20
ATOM     20  C   LIG    1        3.602  -3.853  -5.914  0.00  0.00    +0.240 C 
BRANCH  20  21
ATOM     21  O   LIG    1        4.723  -3.865  -6.801  0.00  0.00    -0.290 OA
BRANCH  21  22
ATOM     22  C   LIG    1        5.190  -5.080  -7.190  0.00  0.00    +0.140 A 
ATOM     23  C   LIG    1        4.585  -6.238  -6.722  0.00  0.00    -0.090 A 
ATOM     24  C   LIG    1        5.056  -7.475  -7.121  0.00  0.00    +0.070 A 
ATOM     25  C   LIG    1        6.137  -7.561  -7.978  0.00  0.00    -0.050 A 
ATOM     26  C   LIG    1        6.748  -6.406  -8.444  0.00  0.00    +0.150 A 
ATOM     27  C   LIG    1        6.274  -5.164  -8.050  0.00  0.00    -0.040 A 
BRANCH  26  28
ATOM     28  O   LIG    1        7.811  -6.491  -9.286  0.00  0.00    -0.500 OA
ATOM     29  H   LIG    1        8.667  -6.527  -8.837  0.00  0.00    +0.400 HD
ENDBRANCH  26  28
ENDBRANCH  21  22
ENDBRANCH  20  21
ENDBRANCH  17  20
ENDBRANCH   1  18
TORSDOF 7
