REMARK  Name = ZINCpk00000y6xFr.0
REMARK                            x       y       z     vdW  Elec       q    Type
REMARK                         _______ _______ _______ _____ _____    ______ ____
ROOT
ATOM      1  C   LIG    1        3.681   2.038  -0.023  0.00  0.00    +0.580 C 
ATOM      2  N   LIG    1        4.821   1.325   0.065  0.00  0.00    -0.600 N 
ATOM      3  C   LIG    1        4.916  -0.147   0.070  0.00  0.00    +0.230 C 
ATOM      4  C   LIG    1        6.254  -0.456   0.787  0.00  0.00    +0.180 C 
ATOM      5  C   LIG    1        7.157   0.697   0.273  0.00  0.00    +0.080 C 
ATOM      6  C   LIG    1        6.177   1.885   0.166  0.00  0.00    +0.290 C 
ATOM      7  O   LIG    1        3.727   3.251  -0.083  0.00  0.00    -0.510 OA
ENDROOT
BRANCH   6   8
ATOM      8  C   LIG    1        6.487   2.700  -1.063  0.00  0.00    -0.070 A 
ATOM      9  C   LIG    1        6.062   2.266  -2.304  0.00  0.00    +0.040 A 
ATOM     10  C   LIG    1        6.341   3.015  -3.433  0.00  0.00    +0.030 A 
ATOM     11  C   LIG    1        7.056   4.194  -3.321  0.00  0.00    +0.070 A 
ATOM     12  C   LIG    1        7.488   4.626  -2.076  0.00  0.00    +0.070 A 
ATOM     13  F   LIG    1        8.186   5.777  -1.964  0.00  0.00    -0.130 F 
ATOM     14  F   LIG    1        7.333   4.924  -4.423  0.00  0.00    -0.130 F 
ATOM     15  C   LIG    1        7.202   3.877  -0.948  0.00  0.00    +0.040 A 
ENDBRANCH   6   8
BRANCH   1  19
ATOM     16  C   LIG    1       -0.072   0.136  -0.056  0.00  0.00    +0.100 A 
ATOM     17  C   LIG    1        1.033  -0.579  -0.512  0.00  0.00    +0.040 A 
ATOM     18  C   LIG    1        2.278   0.029  -0.510  0.00  0.00    +0.100 A 
ATOM     19  C   LIG    1        2.374   1.344  -0.045  0.00  0.00    -0.160 A 
ATOM     20  C   LIG    1        1.218   1.995   0.396  0.00  0.00    +0.340 A 
ATOM     21  N   LIG    1        0.056   1.384   0.378  0.00  0.00    -0.460 NA
BRANCH  16  25
ATOM     22  N   LIG    1       -2.485   0.177   0.385  0.00  0.00    -0.830 N 
ATOM     23  H   LIG    1       -3.359  -0.243   0.386  0.00  0.00    +0.410 HD
ATOM     24  H   LIG    1       -2.384   1.089   0.701  0.00  0.00    +0.410 HD
ATOM     25  C   LIG    1       -1.409  -0.506  -0.054  0.00  0.00    +0.580 C 
ATOM     26  O   LIG    1       -1.535  -1.648  -0.450  0.00  0.00    -0.530 OA
ENDBRANCH  16  25
ENDBRANCH   1  19
BRANCH   4  27
ATOM     27  O   LIG    1        6.100  -0.393   2.207  0.00  0.00    -0.550 OA
ATOM     28  H   LIG    1        5.469  -1.032   2.563  0.00  0.00    +0.380 HD
ENDBRANCH   4  27
TORSDOF 4
