REMARK  Name = ZINCrg000000tbxn.0
REMARK                            x       y       z     vdW  Elec       q    Type
REMARK                         _______ _______ _______ _____ _____    ______ ____
ROOT
ATOM      1  O   LIG    1       -1.715   2.256   1.150  0.00  0.00    -0.480 OA
ATOM      2  C   LIG    1       -0.718   1.572   1.248  0.00  0.00    +0.520 C 
ATOM      3  N   LIG    1       -0.242   1.246   2.466  0.00  0.00    -0.620 N 
ATOM      4  H   LIG    1        0.555   0.699   2.544  0.00  0.00    +0.430 HD
ENDROOT
BRANCH   3   5
ATOM      5  C   LIG    1       -0.896   1.697   3.616  0.00  0.00    +0.440 A 
ATOM      6  N   LIG    1       -1.979   2.440   3.635  0.00  0.00    -0.280 NA
ATOM      7  N   LIG    1       -2.299   2.661   4.985  0.00  0.00    -0.450 N 
ATOM      8  H   LIG    1       -3.047   3.175   5.328  0.00  0.00    +0.450 HD
ATOM      9  C   LIG    1       -1.358   2.016   5.710  0.00  0.00    +0.350 A 
ATOM     10  N   LIG    1       -0.525   1.437   4.870  0.00  0.00    -0.540 NA
BRANCH   9  11
ATOM     11  C   LIG    1       -1.282   1.964   7.187  0.00  0.00    +0.170 A 
ATOM     12  C   LIG    1       -0.253   1.252   7.802  0.00  0.00    +0.040 A 
ATOM     13  C   LIG    1       -0.192   1.217   9.185  0.00  0.00    +0.080 A 
ATOM     14  C   LIG    1       -1.168   1.887   9.908  0.00  0.00    -0.010 A 
ATOM     15  C   LIG    1       -2.163   2.571   9.233  0.00  0.00    +0.280 A 
ATOM     16  N   LIG    1       -2.196   2.593   7.917  0.00  0.00    -0.470 NA
ENDBRANCH   9  11
ENDBRANCH   3   5
BRANCH   2  17
ATOM     17  C   LIG    1       -0.013   1.086   0.008  0.00  0.00    +0.070 C 
BRANCH  17  18
ATOM     18  C   LIG    1       -0.753   1.593  -1.232  0.00  0.00    +0.360 C 
BRANCH  18  19
ATOM     19  N   LIG    1       -0.067   1.120  -2.437  0.00  0.00    -0.460 N 
ATOM     20  N   LIG    1        0.941   1.896  -3.015  0.00  0.00    +0.090 NA
ATOM     21  N   LIG    1        1.583   1.535  -4.067  0.00  0.00    -0.200 NA
ATOM     22  C   LIG    1        1.318   0.368  -4.705  0.00  0.00    +0.060 A 
ATOM     23  C   LIG    1        2.020  -0.008  -5.852  0.00  0.00    +0.080 A 
ATOM     24  C   LIG    1        1.724  -1.200  -6.474  0.00  0.00    +0.060 A 
ATOM     25  C   LIG    1        0.733  -2.035  -5.976  0.00  0.00    +0.040 A 
ATOM     26  C   LIG    1        0.026  -1.686  -4.846  0.00  0.00    +0.100 A 
ATOM     27  C   LIG    1        0.311  -0.484  -4.201  0.00  0.00    -0.150 A 
ATOM     28  C   LIG    1       -0.415  -0.065  -2.992  0.00  0.00    +0.530 A 
ATOM     29  O   LIG    1       -1.293  -0.756  -2.510  0.00  0.00    -0.500 OA
ENDBRANCH  18  19
ENDBRANCH  17  18
ENDBRANCH   2  17
TORSDOF 5
