REMARK  Name = ZINCrg000000tbxn.1
REMARK                            x       y       z     vdW  Elec       q    Type
REMARK                         _______ _______ _______ _____ _____    ______ ____
ROOT
ATOM      1  O   LIG    1       -1.204   2.836   0.023  0.00  0.00    -0.520 OA
ATOM      2  C   LIG    1       -1.187   1.624   0.017  0.00  0.00    +0.540 C 
ATOM      3  N   LIG    1       -0.011   0.966   0.007  0.00  0.00    -0.620 N 
ATOM      4  H   LIG    1        0.002  -0.004   0.002  0.00  0.00    +0.440 HD
ENDROOT
BRANCH   3   5
ATOM      5  C   LIG    1        1.181   1.676  -0.000  0.00  0.00    +0.500 A 
ATOM      6  N   LIG    1        2.388   1.157  -0.009  0.00  0.00    -0.520 NA
ATOM      7  C   LIG    1        3.301   2.139  -0.018  0.00  0.00    +0.290 A 
ATOM      8  N   LIG    1        2.680   3.297  -0.006  0.00  0.00    -0.290 NA
ATOM      9  N   LIG    1        1.303   3.021   0.006  0.00  0.00    -0.460 N 
ATOM     10  H   LIG    1        0.581   3.669   0.016  0.00  0.00    +0.450 HD
BRANCH   7  11
ATOM     11  C   LIG    1        4.772   1.948  -0.033  0.00  0.00    +0.200 A 
ATOM     12  C   LIG    1        5.612   3.060  -0.036  0.00  0.00    +0.020 A 
ATOM     13  C   LIG    1        6.983   2.866  -0.050  0.00  0.00    +0.060 A 
ATOM     14  C   LIG    1        7.469   1.567  -0.061  0.00  0.00    -0.020 A 
ATOM     15  C   LIG    1        6.577   0.509  -0.058  0.00  0.00    +0.260 A 
ATOM     16  N   LIG    1        5.277   0.721  -0.038  0.00  0.00    -0.450 NA
ENDBRANCH   7  11
ENDBRANCH   3   5
BRANCH   2  17
ATOM     17  C   LIG    1       -2.482   0.853   0.018  0.00  0.00    +0.080 C 
BRANCH  17  18
ATOM     18  C   LIG    1       -3.658   1.831   0.029  0.00  0.00    +0.360 C 
BRANCH  18  19
ATOM     19  N   LIG    1       -4.917   1.081   0.031  0.00  0.00    -0.460 N 
ATOM     20  N   LIG    1       -5.525   0.736  -1.179  0.00  0.00    +0.080 NA
ATOM     21  N   LIG    1       -6.624   0.076  -1.244  0.00  0.00    -0.190 NA
ATOM     22  C   LIG    1       -7.286  -0.329  -0.132  0.00  0.00    +0.060 A 
ATOM     23  C   LIG    1       -8.485  -1.042  -0.218  0.00  0.00    +0.080 A 
ATOM     24  C   LIG    1       -9.130  -1.435   0.932  0.00  0.00    +0.070 A 
ATOM     25  C   LIG    1       -8.605  -1.132   2.181  0.00  0.00    +0.040 A 
ATOM     26  C   LIG    1       -7.424  -0.430   2.293  0.00  0.00    +0.100 A 
ATOM     27  C   LIG    1       -6.755  -0.023   1.141  0.00  0.00    -0.150 A 
ATOM     28  C   LIG    1       -5.492   0.729   1.205  0.00  0.00    +0.530 A 
ATOM     29  O   LIG    1       -4.985   1.023   2.272  0.00  0.00    -0.500 OA
ENDBRANCH  18  19
ENDBRANCH  17  18
ENDBRANCH   2  17
TORSDOF 5
