REMARK  Name = ZINCpe000000YQOR.0
REMARK                            x       y       z     vdW  Elec       q    Type
REMARK                         _______ _______ _______ _____ _____    ______ ____
ROOT
ATOM      1  O   LIG    1       -2.382   0.171  -0.088  0.00  0.00    -0.510 OA
ATOM      2  C   LIG    1       -2.394   1.383  -0.081  0.00  0.00    +0.510 C 
ATOM      3  N   LIG    1       -1.238   2.068   0.019  0.00  0.00    -0.680 N 
ATOM      4  H   LIG    1       -1.252   3.036   0.092  0.00  0.00    +0.410 HD
ENDROOT
BRANCH   3   5
ATOM      5  C   LIG    1       -0.017   1.385   0.018  0.00  0.00    +0.140 A 
ATOM      6  C   LIG    1        1.097   1.954  -0.587  0.00  0.00    +0.010 A 
ATOM      7  C   LIG    1        2.307   1.285  -0.587  0.00  0.00    +0.030 A 
ATOM      8  C   LIG    1        2.416   0.048   0.015  0.00  0.00    +0.030 A 
ATOM      9  C   LIG    1        1.303  -0.533   0.625  0.00  0.00    -0.120 A 
ATOM     10  C   LIG    1        0.082   0.142   0.624  0.00  0.00    +0.090 A 
BRANCH   9  11
ATOM     11  C   LIG    1        1.417  -1.858   1.270  0.00  0.00    +0.560 C 
ATOM     12  N   LIG    1        2.598  -2.509   1.269  0.00  0.00    -0.700 N 
ATOM     13  H   LIG    1        3.372  -2.107   0.845  0.00  0.00    +0.400 HD
ATOM     14  O   LIG    1        0.446  -2.362   1.801  0.00  0.00    -0.530 OA
BRANCH  12  15
ATOM     15  C   LIG    1        2.711  -3.822   1.908  0.00  0.00    +0.220 C 
ATOM     16  C   LIG    1        3.943  -4.082   2.776  0.00  0.00    +0.010 C 
ATOM     17  C   LIG    1        3.815  -4.757   1.409  0.00  0.00    +0.020 C 
ENDBRANCH  12  15
ENDBRANCH   9  11
ENDBRANCH   3   5
BRANCH   2  18
ATOM     18  C   LIG    1       -3.703   2.124  -0.184  0.00  0.00    +0.070 C 
BRANCH  18  19
ATOM     19  C   LIG    1       -4.851   1.118  -0.285  0.00  0.00    +0.040 C 
BRANCH  19  20
ATOM     20  C   LIG    1       -6.180   1.870  -0.390  0.00  0.00    +0.320 C 
BRANCH  20  21
ATOM     21  N   LIG    1       -7.280   0.908  -0.487  0.00  0.00    -0.580 N 
ATOM     22  C   LIG    1       -7.760   0.421  -1.649  0.00  0.00    +0.520 C 
ATOM     23  C   LIG    1       -8.876  -0.530  -1.265  0.00  0.00    +0.320 C 
ATOM     24  N   LIG    1       -8.902  -0.457   0.206  0.00  0.00    -0.730 N 
ATOM     25  H   LIG    1       -9.501  -0.937   0.800  0.00  0.00    +0.440 HD
ATOM     26  O   LIG    1       -7.378   0.688  -2.768  0.00  0.00    -0.470 OA
ATOM     27  C   LIG    1       -7.935   0.407   0.566  0.00  0.00    +0.700 C 
ATOM     28  O   LIG    1       -7.686   0.699   1.719  0.00  0.00    -0.540 OA
ENDBRANCH  20  21
ENDBRANCH  19  20
ENDBRANCH  18  19
ENDBRANCH   2  18
TORSDOF 7
