REMARK  Name = ZINCvU0000000GAq.0
REMARK                            x       y       z     vdW  Elec       q    Type
REMARK                         _______ _______ _______ _____ _____    ______ ____
ROOT
ATOM      1  C   LIG    1       -3.422  -2.537  -0.311  0.00  0.00    +0.060 A 
ATOM      2  N   LIG    1       -3.315  -3.345   0.690  0.00  0.00    -0.450 NA
ATOM      3  C   LIG    1       -3.062  -4.609   0.417  0.00  0.00    +0.060 A 
ATOM      4  C   LIG    1       -2.939  -4.881  -0.886  0.00  0.00    -0.050 A 
ATOM      5  S   LIG    1       -3.180  -3.381  -1.778  0.00  0.00    +0.160 S 
ENDROOT
BRANCH   1   6
ATOM      6  C   LIG    1       -3.711  -1.062  -0.201  0.00  0.00    +0.190 C 
BRANCH   6   9
ATOM      7  N   LIG    1       -2.427   1.041   0.019  0.00  0.00    -0.670 N 
ATOM      8  H   LIG    1       -3.271   1.512   0.106  0.00  0.00    +0.410 HD
ATOM      9  C   LIG    1       -2.414  -0.303  -0.090  0.00  0.00    +0.520 C 
ATOM     10  O   LIG    1       -1.359  -0.900  -0.098  0.00  0.00    -0.500 OA
BRANCH   7  17
ATOM     11  C   LIG    1       -2.363   3.587   1.289  0.00  0.00    +0.080 C 
ATOM     12  C   LIG    1       -1.149   3.002   0.614  0.00  0.00    -0.120 A 
ATOM     13  C   LIG    1        0.038   3.707   0.596  0.00  0.00    +0.030 A 
ATOM     14  C   LIG    1        1.153   3.171  -0.024  0.00  0.00    -0.010 A 
ATOM     15  C   LIG    1        1.082   1.928  -0.626  0.00  0.00    +0.030 A 
ATOM     16  C   LIG    1       -0.102   1.218  -0.610  0.00  0.00    +0.010 A 
ATOM     17  C   LIG    1       -1.224   1.755   0.006  0.00  0.00    +0.150 A 
ENDBRANCH   7  17
ENDBRANCH   6   9
ENDBRANCH   1   6
BRANCH   3  18
ATOM     18  C   LIG    1       -2.917  -5.661   1.487  0.00  0.00    +0.330 C 
BRANCH  18  19
ATOM     19  O   LIG    1       -2.641  -6.924   0.878  0.00  0.00    -0.350 OA
BRANCH  19  20
ATOM     20  C   LIG    1       -2.482  -7.980   1.704  0.00  0.00    +0.560 C 
ATOM     21  O   LIG    1       -2.576  -7.830   2.907  0.00  0.00    -0.480 OA
BRANCH  20  22
ATOM     22  C   LIG    1       -2.197  -9.303   1.151  0.00  0.00    -0.320 A 
ATOM     23  C   LIG    1       -2.009 -10.454   1.869  0.00  0.00    +0.180 A 
ATOM     24  N   LIG    1       -1.772 -11.507   1.134  0.00  0.00    -0.480 NA
ATOM     25  C   LIG    1       -1.734 -11.337  -0.160  0.00  0.00    +0.130 A 
ATOM     26  C   LIG    1       -2.073 -10.502   3.374  0.00  0.00    +0.170 C 
ATOM     27  S   LIG    1       -2.028  -9.701  -0.557  0.00  0.00    +0.240 S 
BRANCH  25  28
ATOM     28  C   LIG    1       -1.475 -12.407  -1.141  0.00  0.00    -0.080 A 
ATOM     29  C   LIG    1       -1.242 -13.689  -0.795  0.00  0.00    +0.000 A 
ATOM     30  S   LIG    1       -0.987 -14.656  -2.175  0.00  0.00    +0.200 S 
ATOM     31  C   LIG    1       -1.190 -13.291  -3.259  0.00  0.00    -0.050 A 
ATOM     32  C   LIG    1       -1.441 -12.184  -2.566  0.00  0.00    +0.030 A 
ENDBRANCH  25  28
ENDBRANCH  20  22
ENDBRANCH  19  20
ENDBRANCH  18  19
ENDBRANCH   3  18
TORSDOF 8
