REMARK  Name = ZINCpk00001AZiA3.0
REMARK                            x       y       z     vdW  Elec       q    Type
REMARK                         _______ _______ _______ _____ _____    ______ ____
ROOT
ATOM      1  C   LIG    1        2.279   5.468   0.827  0.00  0.00    +0.260 C 
ATOM      2  C   LIG    1        1.892   4.023   1.208  0.00  0.00    +0.210 C 
ATOM      3  N   LIG    1        1.191   3.495   0.009  0.00  0.00    -0.470 N 
ATOM      4  C   LIG    1        1.968   4.035  -1.136  0.00  0.00    +0.220 C 
ATOM      5  C   LIG    1        2.330   5.476  -0.715  0.00  0.00    +0.270 C 
ENDROOT
BRANCH   3   6
ATOM      6  C   LIG    1        1.195   2.104   0.002  0.00  0.00    +0.150 A 
ATOM      7  C   LIG    1        2.397   1.411  -0.013  0.00  0.00    -0.020 A 
ATOM      8  C   LIG    1        2.401   0.029  -0.020  0.00  0.00    +0.100 A 
ATOM      9  C   LIG    1        1.209  -0.675  -0.013  0.00  0.00    +0.000 A 
ATOM     10  C   LIG    1        0.002  -0.004   0.002  0.00  0.00    +0.160 A 
ATOM     11  F   LIG    1       -1.158  -0.697   0.009  0.00  0.00    -0.120 F 
ATOM     12  C   LIG    1       -0.017   1.395   0.010  0.00  0.00    -0.030 A 
BRANCH  12  13
ATOM     13  C   LIG    1       -1.264   2.099   0.019  0.00  0.00    +0.260 C 
ATOM     14  N   LIG    1       -2.253   2.658   0.027  0.00  0.00    -0.390 NA
ENDBRANCH  12  13
ENDBRANCH   3   6
BRANCH   5  15
ATOM     15  N   LIG    1        3.676   5.819  -1.178  0.00  0.00    -0.290 N 
ATOM     16  C   LIG    1        4.705   4.954  -1.335  0.00  0.00    +0.120 A 
ATOM     17  C   LIG    1        5.752   5.689  -1.777  0.00  0.00    +0.150 A 
ATOM     18  N   LIG    1        5.318   6.951  -1.868  0.00  0.00    -0.260 NA
ATOM     19  N   LIG    1        4.083   6.994  -1.511  0.00  0.00    -0.070 NA
ENDBRANCH   5  15
BRANCH   1  21
ATOM     20  C   LIG    1        3.691   6.288   2.635  0.00  0.00    +0.520 C 
ATOM     21  N   LIG    1        3.592   5.806   1.381  0.00  0.00    -0.730 N 
ATOM     22  H   LIG    1        4.391   5.682   0.844  0.00  0.00    +0.400 HD
ATOM     23  O   LIG    1        2.692   6.442   3.306  0.00  0.00    -0.520 OA
BRANCH  20  25
ATOM     24  C   LIG    1        4.874   7.157   4.634  0.00  0.00    +0.060 C 
ATOM     25  C   LIG    1        5.042   6.635   3.205  0.00  0.00    -0.020 C 
ATOM     26  C   LIG    1        5.926   5.386   3.219  0.00  0.00    +0.050 C 
ENDBRANCH  20  25
ENDBRANCH   1  21
TORSDOF 5
