REMARK  Name = ZINCvU00000008Nl.0
REMARK                            x       y       z     vdW  Elec       q    Type
REMARK                         _______ _______ _______ _____ _____    ______ ____
ROOT
ATOM      1  C   LIG    1       -1.807   1.218  -3.354  0.00  0.00    -0.130 A 
ATOM      2  C   LIG    1       -2.280   2.533  -3.361  0.00  0.00    +0.060 A 
ATOM      3  C   LIG    1       -3.046   2.982  -4.414  0.00  0.00    +0.020 A 
ATOM      4  C   LIG    1       -3.359   2.125  -5.463  0.00  0.00    +0.120 A 
ATOM      5  C   LIG    1       -2.896   0.814  -5.457  0.00  0.00    +0.020 A 
ATOM      6  C   LIG    1       -2.124   0.360  -4.411  0.00  0.00    +0.100 A 
ENDROOT
BRANCH   1  16
ATOM      7  C   LIG    1        1.769   0.305   1.900  0.00  0.00    +0.110 A 
ATOM      8  C   LIG    1        0.794  -0.492   1.319  0.00  0.00    -0.060 A 
ATOM      9  C   LIG    1        0.133  -0.054   0.189  0.00  0.00    +0.060 A 
ATOM     10  C   LIG    1        0.442   1.182  -0.365  0.00  0.00    +0.120 A 
ATOM     11  C   LIG    1        1.414   1.982   0.216  0.00  0.00    -0.070 A 
ATOM     12  C   LIG    1        1.767   3.330  -0.353  0.00  0.00    +0.090 C 
ATOM     13  C   LIG    1        1.337   3.425  -1.816  0.00  0.00    +0.030 C 
ATOM     14  C   LIG    1       -0.136   3.011  -1.928  0.00  0.00    +0.270 C 
ATOM     15  N   LIG    1       -0.241   1.605  -1.516  0.00  0.00    -0.540 N 
ATOM     16  C   LIG    1       -0.980   0.734  -2.232  0.00  0.00    +0.560 C 
ATOM     17  O   LIG    1       -0.966  -0.449  -1.952  0.00  0.00    -0.510 OA
ATOM     18  C   LIG    1        2.077   1.539   1.348  0.00  0.00    +0.000 A 
BRANCH   7  20
ATOM     19  C   LIG    1        2.056  -1.405   3.527  0.00  0.00    +0.250 C 
ATOM     20  O   LIG    1        2.424  -0.124   3.012  0.00  0.00    -0.320 OA
ENDBRANCH   7  20
ENDBRANCH   1  16
BRANCH   4  21
ATOM     21  O   LIG    1       -4.120   2.569  -6.495  0.00  0.00    -0.240 OA
BRANCH  21  22
ATOM     22  C   LIG    1       -5.423   2.196  -6.534  0.00  0.00    +0.350 A 
ATOM     23  C   LIG    1       -6.258   2.711  -7.517  0.00  0.00    -0.020 A 
ATOM     24  C   LIG    1       -7.585   2.317  -7.548  0.00  0.00    +0.170 A 
ATOM     25  C   LIG    1       -8.034   1.426  -6.583  0.00  0.00    -0.270 A 
ATOM     26  C   LIG    1       -7.149   0.959  -5.632  0.00  0.00    +0.380 A 
ATOM     27  N   LIG    1       -5.888   1.348  -5.631  0.00  0.00    -0.520 NA
BRANCH  25  28
ATOM     28  C   LIG    1       -9.471   0.974  -6.575  0.00  0.00    +0.520 C 
ATOM     29  F   LIG    1       -9.766   0.334  -7.783  0.00  0.00    -0.170 F 
ATOM     30  F   LIG    1      -10.308   2.084  -6.419  0.00  0.00    -0.170 F 
ATOM     31  F   LIG    1       -9.674   0.084  -5.514  0.00  0.00    -0.170 F 
ENDBRANCH  25  28
ENDBRANCH  21  22
ENDBRANCH   4  21
TORSDOF 5
