REMARK  Name = ZINCrg00000fShfg.1
REMARK                            x       y       z     vdW  Elec       q    Type
REMARK                         _______ _______ _______ _____ _____    ______ ____
ROOT
ATOM      1  C   LIG    1       -3.050   3.039   1.476  0.00  0.00    +0.480 C 
ATOM      2  O   LIG    1       -3.582   3.340   0.433  0.00  0.00    -0.500 OA
ENDROOT
BRANCH   1   3
ATOM      3  O   LIG    1       -3.630   3.360   2.643  0.00  0.00    -0.320 OA
BRANCH   3   4
ATOM      4  C   LIG    1       -4.896   4.067   2.576  0.00  0.00    +0.200 C 
ATOM      5  C   LIG    1       -6.045   3.057   2.550  0.00  0.00    +0.070 C 
BRANCH   4   8
ATOM      6  N   LIG    1       -6.143   5.715   3.937  0.00  0.00    -0.620 N 
ATOM      7  H   LIG    1       -6.846   5.687   3.270  0.00  0.00    +0.430 HD
ATOM      8  C   LIG    1       -5.039   4.957   3.784  0.00  0.00    +0.510 C 
ATOM      9  O   LIG    1       -4.159   4.992   4.619  0.00  0.00    -0.470 OA
BRANCH   6  14
ATOM     10  C   LIG    1       -7.758   8.952   7.358  0.00  0.00    +0.160 C 
ATOM     11  C   LIG    1       -6.957   7.950   6.567  0.00  0.00    +0.040 A 
ATOM     12  N   LIG    1       -5.789   7.465   6.880  0.00  0.00    -0.360 NA
ATOM     13  O   LIG    1       -5.395   6.674   6.054  0.00  0.00    +0.110 OA
ATOM     14  C   LIG    1       -6.274   6.533   5.050  0.00  0.00    +0.210 A 
ATOM     15  C   LIG    1       -7.325   7.353   5.344  0.00  0.00    -0.090 A 
ENDBRANCH   6  14
ENDBRANCH   4   8
ENDBRANCH   3   4
ENDBRANCH   1   3
BRANCH   1  16
ATOM     16  C   LIG    1       -1.734   2.305   1.465  0.00  0.00    +0.110 C 
BRANCH  16  17
ATOM     17  C   LIG    1       -1.295   2.064   0.019  0.00  0.00    +0.360 C 
BRANCH  17  18
ATOM     18  N   LIG    1       -0.016   1.350   0.009  0.00  0.00    -0.460 N 
ATOM     19  N   LIG    1        1.183   2.067   0.002  0.00  0.00    +0.090 NA
ATOM     20  N   LIG    1        2.335   1.501  -0.013  0.00  0.00    -0.190 NA
ATOM     21  C   LIG    1        2.472   0.151  -0.021  0.00  0.00    +0.060 A 
ATOM     22  C   LIG    1        3.732  -0.451  -0.036  0.00  0.00    +0.080 A 
ATOM     23  C   LIG    1        3.833  -1.824  -0.045  0.00  0.00    +0.070 A 
ATOM     24  C   LIG    1        2.696  -2.621  -0.039  0.00  0.00    +0.040 A 
ATOM     25  C   LIG    1        1.441  -2.050  -0.023  0.00  0.00    +0.100 A 
ATOM     26  C   LIG    1        1.317  -0.662  -0.014  0.00  0.00    -0.150 A 
ATOM     27  C   LIG    1        0.002  -0.004   0.002  0.00  0.00    +0.530 A 
ATOM     28  O   LIG    1       -1.029  -0.651   0.008  0.00  0.00    -0.500 OA
ENDBRANCH  17  18
ENDBRANCH  16  17
ENDBRANCH   1  16
TORSDOF 7
