REMARK  Name = ZINCtV00000tRU48.0
REMARK                            x       y       z     vdW  Elec       q    Type
REMARK                         _______ _______ _______ _____ _____    ______ ____
ROOT
ATOM      1  S   LIG    1        0.002  -0.004   0.002  0.00  0.00    +2.680 S 
ATOM      2  O   LIG    1        1.065  -0.386  -0.860  0.00  0.00    -0.940 OA
ATOM      3  O   LIG    1       -1.342  -0.422  -0.190  0.00  0.00    -0.920 OA
ENDROOT
BRANCH   1   7
ATOM      4  C   LIG    1        1.179  -1.352   4.162  0.00  0.00    +0.200 A 
ATOM      5  C   LIG    1        2.155  -1.127   3.202  0.00  0.00    -0.080 A 
ATOM      6  C   LIG    1        1.793  -0.722   1.932  0.00  0.00    +0.160 A 
ATOM      7  C   LIG    1        0.460  -0.528   1.621  0.00  0.00    -0.730 A 
ATOM      8  C   LIG    1       -0.515  -0.751   2.576  0.00  0.00    +0.170 A 
ATOM      9  C   LIG    1       -0.158  -1.163   3.845  0.00  0.00    -0.120 A 
BRANCH   9  10
ATOM     10  C   LIG    1       -1.221  -1.406   4.885  0.00  0.00    -0.020 C 
ATOM     11  C   LIG    1       -0.989  -0.477   6.079  0.00  0.00    +0.040 C 
ATOM     12  C   LIG    1       -1.154  -2.862   5.352  0.00  0.00    +0.040 C 
ATOM     13  C   LIG    1       -2.599  -1.127   4.282  0.00  0.00    +0.030 C 
ENDBRANCH   9  10
BRANCH   4  14
ATOM     14  O   LIG    1        1.533  -1.757   5.410  0.00  0.00    -0.300 OA
BRANCH  14  16
ATOM     15  C   LIG    1        3.129  -2.387   7.111  0.00  0.00    +0.070 C 
ATOM     16  C   LIG    1        2.928  -1.932   5.665  0.00  0.00    +0.190 C 
ENDBRANCH  14  16
ENDBRANCH   4  14
ENDBRANCH   1   7
BRANCH   1  17
ATOM     17  O   LIG    1       -0.019   1.518   0.010  0.00  0.00    -0.640 OA
BRANCH  17  18
ATOM     18  C   LIG    1        1.215   2.087   0.002  0.00  0.00    +0.150 A 
ATOM     19  C   LIG    1        1.853   2.377   1.186  0.00  0.00    -0.080 A 
ATOM     20  C   LIG    1        3.121   2.955   1.193  0.00  0.00    +0.100 A 
ATOM     21  C   LIG    1        3.756   3.261   0.027  0.00  0.00    -0.050 A 
ATOM     22  C   LIG    1        3.134   2.985  -1.202  0.00  0.00    -0.070 A 
ATOM     23  C   LIG    1        3.764   3.288  -2.424  0.00  0.00    +0.100 A 
ATOM     24  C   LIG    1        3.100   2.993  -3.581  0.00  0.00    +0.000 A 
ATOM     25  C   LIG    1        1.837   2.409  -3.529  0.00  0.00    +0.340 A 
ATOM     26  N   LIG    1        1.254   2.129  -2.389  0.00  0.00    -0.460 NA
ATOM     27 BR   LIG    1        5.473   4.054   0.064  0.00  0.00    -0.010 Br
ATOM     28 BR   LIG    1        1.002   1.976   2.827  0.00  0.00    +0.020 Br
ATOM     29  C   LIG    1        1.848   2.392  -1.222  0.00  0.00    +0.150 A 
ENDBRANCH  17  18
ENDBRANCH   1  17
TORSDOF 6
