REMARK  Name = ZINCqH0000005j42.0
REMARK                            x       y       z     vdW  Elec       q    Type
REMARK                         _______ _______ _______ _____ _____    ______ ____
ROOT
ATOM      1  C   LIG    1        3.722   1.724   2.144  0.00  0.00    +0.190 C 
ATOM      2  N   LIG    1        4.057   0.537   1.346  0.00  0.00    -0.530 NA
ENDROOT
BRANCH   2   3
ATOM      3  C   LIG    1        5.505   0.287   1.356  0.00  0.00    +0.210 C 
BRANCH   3   4
ATOM      4  C   LIG    1        5.948  -0.089   2.772  0.00  0.00    +0.150 C 
ATOM      5  C   LIG    1        7.473  -0.258   2.809  0.00  0.00    +0.230 C 
ATOM      6  O   LIG    1        7.851  -0.622   4.141  0.00  0.00    -0.310 OA
ATOM      7  C   LIG    1        7.117  -1.599   4.740  0.00  0.00    +0.040 A 
ATOM      8  C   LIG    1        7.625  -2.245   5.856  0.00  0.00    +0.020 A 
ATOM      9  C   LIG    1        6.889  -3.236   6.479  0.00  0.00    +0.010 A 
ATOM     10  C   LIG    1        5.643  -3.584   5.991  0.00  0.00    +0.020 A 
ATOM     11  C   LIG    1        5.131  -2.944   4.878  0.00  0.00    +0.020 A 
ATOM     12  C   LIG    1        5.865  -1.951   4.248  0.00  0.00    +0.050 A 
ATOM     13  O   LIG    1        5.349  -1.333   3.151  0.00  0.00    -0.280 OA
ENDBRANCH   3   4
ENDBRANCH   2   3
BRANCH   2  14
ATOM     14  C   LIG    1        3.555   0.667  -0.028  0.00  0.00    +0.300 C 
BRANCH  14  15
ATOM     15  C   LIG    1        2.048   0.675  -0.014  0.00  0.00    +0.000 A 
ATOM     16  C   LIG    1        1.262   1.767  -0.001  0.00  0.00    +0.150 A 
ATOM     17  O   LIG    1       -0.016   1.340   0.009  0.00  0.00    -0.190 OA
ATOM     18  C   LIG    1        0.002  -0.004   0.002  0.00  0.00    +0.230 A 
ATOM     19  N   LIG    1        1.252  -0.404  -0.012  0.00  0.00    -0.450 NA
BRANCH  18  20
ATOM     20  C   LIG    1       -1.186  -0.883   0.009  0.00  0.00    -0.030 A 
ATOM     21  C   LIG    1       -1.031  -2.271  -0.006  0.00  0.00    +0.110 A 
ATOM     22  C   LIG    1       -2.142  -3.086   0.006  0.00  0.00    +0.000 A 
ATOM     23  C   LIG    1       -3.412  -2.531   0.021  0.00  0.00    +0.120 A 
ATOM     24  C   LIG    1       -3.572  -1.155   0.029  0.00  0.00    +0.000 A 
ATOM     25  F   LIG    1       -4.498  -3.335   0.026  0.00  0.00    -0.130 F 
ATOM     26  C   LIG    1       -2.467  -0.330   0.023  0.00  0.00    +0.080 A 
ENDBRANCH  18  20
ENDBRANCH  14  15
ENDBRANCH   2  14
TORSDOF 5
