REMARK  Name = ZINCrD000006fiKY.0
REMARK                            x       y       z     vdW  Elec       q    Type
REMARK                         _______ _______ _______ _____ _____    ______ ____
ROOT
ATOM      1  N   LIG    1        4.165   8.636   0.287  0.00  0.00    -0.660 N 
ATOM      2  H   LIG    1        5.068   8.282   0.257  0.00  0.00    +0.420 HD
ATOM      3  C   LIG    1        3.118   7.837   0.005  0.00  0.00    +0.510 C 
ATOM      4  O   LIG    1        1.998   8.299  -0.045  0.00  0.00    -0.510 OA
ENDROOT
BRANCH   1   7
ATOM      5  C   LIG    1        4.642  12.277   0.559  0.00  0.00    +0.140 A 
ATOM      6  C   LIG    1        4.860  10.948   0.227  0.00  0.00    +0.030 A 
ATOM      7  C   LIG    1        3.951   9.978   0.625  0.00  0.00    +0.160 A 
ATOM      8  C   LIG    1        2.831  10.338   1.364  0.00  0.00    +0.030 A 
ATOM      9  C   LIG    1        2.618  11.662   1.699  0.00  0.00    +0.040 A 
ATOM     10  C   LIG    1        3.518  12.632   1.300  0.00  0.00    +0.060 A 
ATOM     11  F   LIG    1        3.307  13.925   1.628  0.00  0.00    -0.140 F 
BRANCH   5  13
ATOM     12  C   LIG    1        6.295  13.074  -0.955  0.00  0.00    +0.550 C 
ATOM     13  N   LIG    1        5.553  13.259   0.155  0.00  0.00    -0.660 N 
ATOM     14  H   LIG    1        5.651  14.073   0.674  0.00  0.00    +0.420 HD
ATOM     15  O   LIG    1        6.099  12.104  -1.663  0.00  0.00    -0.520 OA
BRANCH  12  17
ATOM     16  C   LIG    1        8.073  13.862  -2.406  0.00  0.00    +0.160 C 
ATOM     17  C   LIG    1        7.341  14.044  -1.311  0.00  0.00    -0.090 C 
ENDBRANCH  12  17
ENDBRANCH   5  13
ENDBRANCH   1   7
BRANCH   3  18
ATOM     18  C   LIG    1        3.339   6.368  -0.250  0.00  0.00    +0.340 C 
BRANCH  18  19
ATOM     19  N   LIG    1        2.054   5.723  -0.532  0.00  0.00    -0.730 N 
ATOM     20  H   LIG    1        1.238   6.247  -0.533  0.00  0.00    +0.410 HD
ATOM     21  C   LIG    1        2.006   4.401  -0.791  0.00  0.00    +0.710 C 
ATOM     22  N   LIG    1        0.824   3.808  -1.051  0.00  0.00    -0.680 N 
ATOM     23  H   LIG    1        0.019   4.343  -1.124  0.00  0.00    +0.410 HD
ATOM     24  O   LIG    1        3.029   3.744  -0.791  0.00  0.00    -0.570 OA
BRANCH  22  25
ATOM     25  C   LIG    1        0.760   2.419  -1.217  0.00  0.00    +0.180 A 
ATOM     26  C   LIG    1       -0.131   1.868  -2.128  0.00  0.00    -0.010 A 
ATOM     27  C   LIG    1       -0.192   0.498  -2.290  0.00  0.00    +0.050 A 
ATOM     28  C   LIG    1        0.631  -0.326  -1.545  0.00  0.00    +0.010 A 
ATOM     29  C   LIG    1        1.519   0.220  -0.634  0.00  0.00    -0.010 A 
ATOM     30 CL   LIG    1        2.551  -0.818   0.300  0.00  0.00    -0.060 Cl
ATOM     31  C   LIG    1        1.586   1.591  -0.469  0.00  0.00    +0.040 A 
ENDBRANCH  22  25
ENDBRANCH  18  19
ENDBRANCH   3  18
TORSDOF 6
