REMARK  Name = ZINCrD00000F5LiV.0
REMARK                            x       y       z     vdW  Elec       q    Type
REMARK                         _______ _______ _______ _____ _____    ______ ____
ROOT
ATOM      1  C   LIG    1       -0.956   6.952  -0.672  0.00  0.00    -0.080 A 
ATOM      2  C   LIG    1       -0.072   6.137   0.024  0.00  0.00    +0.140 A 
ATOM      3  N   LIG    1        0.743   6.940   0.725  0.00  0.00    -0.450 NA
ATOM      4  C   LIG    1        0.430   8.188   0.502  0.00  0.00    +0.250 A 
ATOM      5  N   LIG    1       -0.611   8.251  -0.348  0.00  0.00    -0.550 N 
ATOM      6  H   LIG    1       -1.040   9.057  -0.672  0.00  0.00    +0.420 HD
ENDROOT
BRANCH   2   7
ATOM      7  C   LIG    1       -0.041   4.656   0.003  0.00  0.00    -0.000 A 
ATOM      8  C   LIG    1        0.105   3.942   1.191  0.00  0.00    +0.050 A 
ATOM      9  C   LIG    1        0.133   2.563   1.165  0.00  0.00    +0.030 A 
ATOM     10  C   LIG    1        0.016   1.888  -0.038  0.00  0.00    -0.080 A 
ATOM     11  C   LIG    1       -0.124   2.592  -1.222  0.00  0.00    +0.030 A 
ATOM     12 BR   LIG    1        0.056  -0.002  -0.066  0.00  0.00    -0.050 Br
ATOM     13  C   LIG    1       -0.159   3.971  -1.207  0.00  0.00    +0.080 A 
ENDBRANCH   2   7
BRANCH   1  15
ATOM     14  O   LIG    1       -2.292   5.340  -1.683  0.00  0.00    -0.510 OA
ATOM     15  C   LIG    1       -2.032   6.524  -1.567  0.00  0.00    +0.590 C 
ATOM     16  N   LIG    1       -2.736   7.439  -2.263  0.00  0.00    -0.730 N 
ATOM     17  H   LIG    1       -2.528   8.382  -2.170  0.00  0.00    +0.390 HD
BRANCH  16  18
ATOM     18  C   LIG    1       -3.812   7.010  -3.158  0.00  0.00    +0.290 C 
BRANCH  18  19
ATOM     19  C   LIG    1       -4.444   8.236  -3.820  0.00  0.00    -0.050 C 
ATOM     20  C   LIG    1       -5.638   7.816  -4.712  0.00  0.00    +0.030 C 
ATOM     21  C   LIG    1       -5.453   8.733  -5.951  0.00  0.00    +0.210 C 
ATOM     22  O   LIG    1       -4.019   8.795  -6.115  0.00  0.00    -0.370 OA
ATOM     23  C   LIG    1       -3.451   8.893  -4.798  0.00  0.00    +0.200 C 
ENDBRANCH  18  19
ENDBRANCH  16  18
ENDBRANCH   1  15
BRANCH   4  24
ATOM     24  C   LIG    1        1.126   9.378   1.110  0.00  0.00    +0.170 C 
BRANCH  24  25
ATOM     25  C   LIG    1        1.128   9.244   2.635  0.00  0.00    +0.150 C 
ATOM     26  C   LIG    1        1.760  10.496   3.284  0.00  0.00    +0.010 C 
ATOM     27  C   LIG    1        2.548   9.936   4.488  0.00  0.00    +0.000 C 
ATOM     28  C   LIG    1        2.300   8.412   4.425  0.00  0.00    +0.190 C 
ATOM     29  O   LIG    1        1.974   8.147   3.042  0.00  0.00    -0.340 OA
ENDBRANCH  24  25
ENDBRANCH   4  24
TORSDOF 6
