REMARK  Name = ZINCrD0000075oX7.0
REMARK                            x       y       z     vdW  Elec       q    Type
REMARK                         _______ _______ _______ _____ _____    ______ ____
ROOT
ATOM      1  N   LIG    1        6.206   1.641  -0.050  0.00  0.00    -0.540 NA
ATOM      2  C   LIG    1        6.355   2.401  -1.297  0.00  0.00    +0.170 C 
ATOM      3  C   LIG    1        7.600   3.287  -1.210  0.00  0.00    +0.010 C 
ATOM      4  C   LIG    1        8.831   2.407  -0.977  0.00  0.00    +0.240 C 
ATOM      5  C   LIG    1        8.629   1.591   0.303  0.00  0.00    +0.040 C 
ATOM      6  C   LIG    1        7.355   0.754   0.172  0.00  0.00    +0.180 C 
ENDROOT
BRANCH   4   7
ATOM      7  N   LIG    1       10.019   3.253  -0.835  0.00  0.00    -1.110 NA
ATOM      8  H   LIG    1       10.241   3.637   0.027  0.00  0.00    +0.420 HD
BRANCH   7   9
ATOM      9  S   LIG    1       10.982   3.554  -2.148  0.00  0.00    +2.690 S 
ATOM     10  O   LIG    1       11.235   2.295  -2.757  0.00  0.00    -0.950 OA
ATOM     11  O   LIG    1       12.015   4.420  -1.698  0.00  0.00    -0.960 OA
BRANCH   9  12
ATOM     12  C   LIG    1       10.022   4.479  -3.299  0.00  0.00    -0.680 A 
ATOM     13  C   LIG    1        9.276   3.825  -4.261  0.00  0.00    +0.120 A 
ATOM     14  C   LIG    1        8.519   4.551  -5.161  0.00  0.00    -0.010 A 
ATOM     15  C   LIG    1        8.515   5.932  -5.106  0.00  0.00    +0.070 A 
ATOM     16  C   LIG    1        9.266   6.587  -4.147  0.00  0.00    -0.010 A 
ATOM     17  C   LIG    1       10.019   5.861  -3.244  0.00  0.00    +0.120 A 
ENDBRANCH   9  12
ENDBRANCH   7   9
ENDBRANCH   4   7
BRANCH   1  18
ATOM     18  C   LIG    1        4.947   0.884  -0.042  0.00  0.00    +0.180 C 
BRANCH  18  19
ATOM     19  C   LIG    1        3.766   1.857  -0.025  0.00  0.00    +0.050 C 
BRANCH  19  21
ATOM     20  O   LIG    1        2.496  -0.132  -0.024  0.00  0.00    -0.450 OA
ATOM     21  C   LIG    1        2.475   1.081  -0.016  0.00  0.00    +0.400 C 
BRANCH  21  22
ATOM     22  C   LIG    1        1.188   1.793   0.000  0.00  0.00    -0.170 A 
ATOM     23  C   LIG    1       -0.013   1.076   0.008  0.00  0.00    +0.090 A 
ATOM     24  C   LIG    1       -1.214   1.750   0.017  0.00  0.00    +0.020 A 
ATOM     25  C   LIG    1       -1.235   3.136   0.031  0.00  0.00    -0.010 A 
ATOM     26  C   LIG    1       -0.050   3.853   0.023  0.00  0.00    +0.020 A 
ATOM     27 CL   LIG    1       -2.753   3.977   0.049  0.00  0.00    -0.060 Cl
ATOM     28  C   LIG    1        1.160   3.192   0.008  0.00  0.00    +0.080 A 
ENDBRANCH  21  22
ENDBRANCH  19  21
ENDBRANCH  18  19
ENDBRANCH   1  18
TORSDOF 7
