REMARK  Name = ZINCpk00000xI0s8.0
REMARK                            x       y       z     vdW  Elec       q    Type
REMARK                         _______ _______ _______ _____ _____    ______ ____
ROOT
ATOM      1  N   LIG    1       -2.991   3.240  -1.709  0.00  0.00    -0.450 NA
ATOM      2  C   LIG    1       -2.472   4.535  -1.229  0.00  0.00    +0.210 C 
ATOM      3  C   LIG    1       -3.708   5.192  -1.844  0.00  0.00    +0.070 C 
ATOM      4  C   LIG    1       -3.539   5.585  -3.311  0.00  0.00    +0.330 C 
ATOM      5  N   LIG    1       -4.806   6.176  -3.775  0.00  0.00    -0.610 N 
ATOM      6  C   LIG    1       -5.431   7.210  -2.935  0.00  0.00    +0.240 C 
ATOM      7  C   LIG    1       -5.560   6.672  -1.506  0.00  0.00    +0.220 C 
ATOM      8  C   LIG    1       -5.375   5.782  -4.931  0.00  0.00    +0.570 C 
ATOM      9  O   LIG    1       -4.786   5.016  -5.668  0.00  0.00    -0.470 OA
ATOM     10  O   LIG    1       -4.279   6.226  -1.049  0.00  0.00    -0.360 OA
ATOM     11  C   LIG    1       -4.347   3.817  -1.639  0.00  0.00    +0.150 C 
ENDROOT
BRANCH   8  12
ATOM     12  C   LIG    1       -6.717   6.282  -5.303  0.00  0.00    +0.060 C 
ATOM     13  C   LIG    1       -7.020   7.633  -5.144  0.00  0.00    +0.070 C 
ATOM     14  C   LIG    1       -8.279   8.087  -5.502  0.00  0.00    +0.080 C 
ATOM     15  C   LIG    1       -9.197   7.173  -5.996  0.00  0.00    +0.070 C 
ATOM     16  C   LIG    1       -8.832   5.843  -6.123  0.00  0.00    +0.260 C 
ATOM     17  N   LIG    1       -7.626   5.438  -5.781  0.00  0.00    -0.090 NA
ATOM     18  O   LIG    1       -7.290   4.070  -5.926  0.00  0.00    -0.510 OA
ENDBRANCH   8  12
BRANCH   1  19
ATOM     19  C   LIG    1       -2.812   2.192  -0.695  0.00  0.00    +0.230 C 
BRANCH  19  23
ATOM     20  C   LIG    1        0.119  -1.400  -2.704  0.00  0.00    +0.150 C 
ATOM     21  C   LIG    1       -0.225  -0.185  -1.882  0.00  0.00    -0.180 A 
ATOM     22  C   LIG    1       -1.444   0.344  -1.765  0.00  0.00    +0.010 A 
ATOM     23  C   LIG    1       -1.519   1.461  -0.951  0.00  0.00    -0.080 A 
ATOM     24  C   LIG    1       -0.359   1.845  -0.414  0.00  0.00    -0.050 A 
ATOM     25  S   LIG    1        0.920   0.757  -0.936  0.00  0.00    +0.100 S 
ENDBRANCH  19  23
ENDBRANCH   1  19
TORSDOF 3
