REMARK  Name = ZINCtV000002wE1w.0
REMARK                            x       y       z     vdW  Elec       q    Type
REMARK                         _______ _______ _______ _____ _____    ______ ____
ROOT
ATOM      1  C   LIG    1       -0.664   1.271  -4.846  0.00  0.00    -0.330 A 
ATOM      2  C   LIG    1       -1.019   1.645  -3.572  0.00  0.00    +0.250 A 
ATOM      3  C   LIG    1       -2.158   2.413  -3.502  0.00  0.00    +0.040 A 
ATOM      4  C   LIG    1       -2.738   2.684  -4.705  0.00  0.00    -0.110 A 
ATOM      5  S   LIG    1       -1.819   1.927  -5.998  0.00  0.00    +0.270 S 
ENDROOT
BRANCH   4   6
ATOM      6  C   LIG    1       -3.962   3.490  -4.893  0.00  0.00    -0.020 A 
ATOM      7  C   LIG    1       -5.104   3.216  -4.139  0.00  0.00    +0.090 A 
ATOM      8  C   LIG    1       -6.242   3.976  -4.315  0.00  0.00    +0.050 A 
ATOM      9  C   LIG    1       -6.258   5.000  -5.246  0.00  0.00    -0.010 A 
ATOM     10  C   LIG    1       -5.130   5.274  -6.002  0.00  0.00    +0.050 A 
ATOM     11 CL   LIG    1       -7.696   5.947  -5.467  0.00  0.00    -0.050 Cl
ATOM     12  C   LIG    1       -3.983   4.525  -5.831  0.00  0.00    -0.010 A 
ATOM     13 CL   LIG    1       -2.570   4.870  -6.778  0.00  0.00    -0.040 Cl
ENDBRANCH   4   6
BRANCH   2  14
ATOM     14  N   LIG    1       -0.288   1.272  -2.443  0.00  0.00    -0.640 N 
ATOM     15  H   LIG    1        0.564   0.820  -2.545  0.00  0.00    +0.430 HD
ATOM     16  C   LIG    1       -0.767   1.541  -1.212  0.00  0.00    +0.540 C 
ATOM     17  O   LIG    1       -1.784   2.188  -1.084  0.00  0.00    -0.490 OA
BRANCH  16  18
ATOM     18  C   LIG    1       -0.037   1.037   0.006  0.00  0.00    +0.080 C 
BRANCH  18  19
ATOM     19  S   LIG    1       -0.921   1.557   1.498  0.00  0.00    +0.110 S 
BRANCH  19  20
ATOM     20  C   LIG    1        0.121   0.853   2.732  0.00  0.00    -0.000 A 
ATOM     21  N   LIG    1       -0.078   0.941   4.011  0.00  0.00    -0.450 NA
ATOM     22  C   LIG    1        0.807   0.351   4.795  0.00  0.00    +0.080 A 
ATOM     23  C   LIG    1        1.798  -0.264   4.148  0.00  0.00    -0.070 A 
ATOM     24  C   LIG    1        0.704   0.370   6.298  0.00  0.00    +0.160 C 
ATOM     25  S   LIG    1        1.537  -0.053   2.419  0.00  0.00    +0.120 S 
ENDBRANCH  19  20
ENDBRANCH  18  19
ENDBRANCH  16  18
ENDBRANCH   2  14
BRANCH   1  26
ATOM     26  C   LIG    1        0.459   0.479  -5.180  0.00  0.00    +0.550 C 
ATOM     27  O   LIG    1        1.199   0.073  -4.303  0.00  0.00    -0.520 OA
BRANCH  26  28
ATOM     28  O   LIG    1        0.709   0.173  -6.471  0.00  0.00    -0.350 OA
BRANCH  28  30
ATOM     29  C   LIG    1        1.980  -0.871  -8.241  0.00  0.00    +0.070 C 
ATOM     30  C   LIG    1        1.861  -0.631  -6.735  0.00  0.00    +0.200 C 
ENDBRANCH  28  30
ENDBRANCH  26  28
ENDBRANCH   1  26
TORSDOF 8
