REMARK  Name = ZINCrH000004sk11.0
REMARK                            x       y       z     vdW  Elec       q    Type
REMARK                         _______ _______ _______ _____ _____    ______ ____
ROOT
ATOM      1  C   LIG    1       -5.020   0.907   0.770  0.00  0.00    +0.120 A 
ATOM      2  C   LIG    1       -5.793   1.919   0.215  0.00  0.00    +0.090 A 
ATOM      3  C   LIG    1       -5.386   2.535  -0.953  0.00  0.00    +0.020 A 
ATOM      4  C   LIG    1       -4.210   2.146  -1.568  0.00  0.00    +0.110 A 
ATOM      5  C   LIG    1       -3.439   1.138  -1.018  0.00  0.00    -0.660 A 
ATOM      6  C   LIG    1       -3.843   0.515   0.147  0.00  0.00    +0.100 A 
ENDROOT
BRANCH   1   8
ATOM      7  C   LIG    1       -6.064   0.992   2.906  0.00  0.00    +0.540 C 
ATOM      8  N   LIG    1       -5.429   0.281   1.953  0.00  0.00    -0.670 N 
ATOM      9  H   LIG    1       -5.257  -0.664   2.086  0.00  0.00    +0.420 HD
ATOM     10  O   LIG    1       -6.355   2.152   2.706  0.00  0.00    -0.500 OA
BRANCH   7  11
ATOM     11  C   LIG    1       -6.412   0.344   4.222  0.00  0.00    +0.080 C 
BRANCH  11  12
ATOM     12  S   LIG    1       -7.252   1.546   5.282  0.00  0.00    +0.110 S 
BRANCH  12  17
ATOM     13  C   LIG    1       -8.916   0.399  10.079  0.00  0.00    +0.160 C 
ATOM     14  C   LIG    1       -8.252   0.072   8.766  0.00  0.00    +0.080 A 
ATOM     15  C   LIG    1       -7.747  -1.132   8.494  0.00  0.00    -0.070 A 
ATOM     16  S   LIG    1       -7.078  -1.089   6.865  0.00  0.00    +0.120 S 
ATOM     17  C   LIG    1       -7.535   0.551   6.709  0.00  0.00    +0.000 A 
ATOM     18  N   LIG    1       -8.125   0.955   7.792  0.00  0.00    -0.450 NA
ENDBRANCH  12  17
ENDBRANCH  11  12
ENDBRANCH   7  11
ENDBRANCH   1   8
BRANCH   5  19
ATOM     19  S   LIG    1       -1.942   0.645  -1.806  0.00  0.00    +2.690 S 
ATOM     20  O   LIG    1       -1.684  -0.685  -1.380  0.00  0.00    -0.950 OA
ATOM     21  O   LIG    1       -2.069   1.012  -3.173  0.00  0.00    -0.950 OA
BRANCH  19  22
ATOM     22  N   LIG    1       -0.727   1.581  -1.182  0.00  0.00    -0.980 NA
ATOM     23  C   LIG    1       -0.023   1.111  -0.010  0.00  0.00    +0.290 C 
ATOM     24  C   LIG    1       -0.746   1.610   1.265  0.00  0.00    -0.010 C 
ATOM     25  C   LIG    1       -0.553   3.060   1.427  0.00  0.00    +0.000 C 
ATOM     26  C   LIG    1       -1.147   3.902   0.302  0.00  0.00    +0.000 C 
ATOM     27  C   LIG    1       -0.156   3.992  -0.832  0.00  0.00    +0.020 C 
ATOM     28  C   LIG    1       -0.408   2.861  -1.845  0.00  0.00    +0.280 C 
ENDBRANCH  19  22
ENDBRANCH   5  19
TORSDOF 6
