REMARK  Name = ZINCvU0000000Gi4.0
REMARK                            x       y       z     vdW  Elec       q    Type
REMARK                         _______ _______ _______ _____ _____    ______ ____
ROOT
ATOM      1  C   LIG    1        7.157  -0.087   1.103  0.00  0.00    +0.110 C 
ENDROOT
BRANCH   1   2
ATOM      2  C   LIG    1        7.662  -1.443   1.522  0.00  0.00    +0.530 C 
ATOM      3  N   LIG    1        8.982  -1.647   1.697  0.00  0.00    -0.630 N 
ATOM      4  H   LIG    1        9.608  -0.920   1.553  0.00  0.00    +0.420 HD
ATOM      5  O   LIG    1        6.879  -2.352   1.703  0.00  0.00    -0.480 OA
BRANCH   3   6
ATOM      6  C   LIG    1        9.447  -2.897   2.084  0.00  0.00    +0.050 A 
ATOM      7  C   LIG    1       10.761  -3.209   2.282  0.00  0.00    -0.110 A 
ATOM      8  C   LIG    1       10.972  -4.587   2.687  0.00  0.00    -0.040 A 
ATOM      9  C   LIG    1        9.825  -5.273   2.773  0.00  0.00    -0.240 A 
ATOM     10  C   LIG    1        9.732  -6.734   3.167  0.00  0.00    +0.120 C 
ATOM     11  C   LIG    1       11.119  -7.370   3.034  0.00  0.00    -0.010 C 
ATOM     12  C   LIG    1       12.142  -6.491   3.761  0.00  0.00    +0.030 C 
ATOM     13  C   LIG    1       11.104  -8.766   3.660  0.00  0.00    +0.030 C 
ATOM     14  C   LIG    1       12.336  -5.192   2.977  0.00  0.00    +0.100 C 
ATOM     15  S   LIG    1        8.456  -4.252   2.368  0.00  0.00    +0.320 S 
BRANCH   7  16
ATOM     16  C   LIG    1       11.827  -2.268   2.111  0.00  0.00    +0.270 C 
ATOM     17  N   LIG    1       12.673  -1.522   1.976  0.00  0.00    -0.420 NA
ENDBRANCH   7  16
ENDBRANCH   3   6
ENDBRANCH   1   2
BRANCH   1  18
ATOM     18  S   LIG    1        5.354  -0.133   0.954  0.00  0.00    +0.090 S 
BRANCH  18  22
ATOM     19  C   LIG    1        7.006   4.578  -0.199  0.00  0.00    +0.180 C 
ATOM     20  C   LIG    1        5.813   3.669  -0.054  0.00  0.00    +0.340 A 
ATOM     21  N   LIG    1        6.027   2.421   0.310  0.00  0.00    -0.540 NA
ATOM     22  C   LIG    1        5.045   1.532   0.467  0.00  0.00    +0.190 A 
ATOM     23  C   LIG    1        3.732   2.017   0.215  0.00  0.00    -0.160 A 
ATOM     24  C   LIG    1        3.562   3.354  -0.169  0.00  0.00    +0.090 A 
ATOM     25  S   LIG    1        1.867   3.685  -0.413  0.00  0.00    +0.180 S 
ATOM     26  C   LIG    1        1.411   2.038  -0.001  0.00  0.00    -0.170 A 
ATOM     27  C   LIG    1       -0.019   1.526   0.010  0.00  0.00    +0.120 C 
ATOM     28  C   LIG    1        0.002  -0.004   0.002  0.00  0.00    +0.030 C 
ATOM     29  C   LIG    1        0.950  -0.492   1.102  0.00  0.00    +0.030 C 
ATOM     30  C   LIG    1        2.390  -0.175   0.698  0.00  0.00    +0.120 C 
ATOM     31  C   LIG    1        2.481   1.294   0.302  0.00  0.00    -0.070 A 
ATOM     32  N   LIG    1        4.616   4.173  -0.300  0.00  0.00    -0.470 NA
ENDBRANCH  18  22
ENDBRANCH   1  18
TORSDOF 5
