REMARK  Name = ZINCpe00000VVGEW.0
REMARK                            x       y       z     vdW  Elec       q    Type
REMARK                         _______ _______ _______ _____ _____    ______ ____
ROOT
ATOM      1  N   LIG    1       -0.228   4.083  -0.830  0.00  0.00    -0.470 N 
ATOM      2  H   LIG    1       -1.024   3.532  -0.884  0.00  0.00    +0.450 HD
ENDROOT
BRANCH   1   3
ATOM      3  C   LIG    1       -0.306   5.407  -1.072  0.00  0.00    +0.550 C 
ATOM      4  S   LIG    1       -1.812   6.115  -1.477  0.00  0.00    -0.540 S 
BRANCH   3   5
ATOM      5  N   LIG    1        0.800   6.173  -0.995  0.00  0.00    -0.680 N 
ATOM      6  H   LIG    1        1.662   5.763  -0.823  0.00  0.00    +0.400 HD
BRANCH   5   8
ATOM      7  C   LIG    1       -0.143   8.204  -0.035  0.00  0.00    +0.070 C 
ATOM      8  C   LIG    1        0.700   7.623  -1.172  0.00  0.00    +0.190 C 
ATOM      9  C   LIG    1        0.007   7.913  -2.498  0.00  0.00    +0.110 C 
ATOM     10  C   LIG    1        0.890   8.746  -3.450  0.00  0.00    -0.290 C 
ATOM     11  S   LIG    1        2.592   8.355  -2.876  0.00  0.00    +2.370 S 
ATOM     12  O   LIG    1        3.437   9.481  -3.072  0.00  0.00    -0.920 OA
ATOM     13  O   LIG    1        2.981   7.076  -3.359  0.00  0.00    -0.930 OA
ATOM     14  C   LIG    1        2.115   8.234  -1.109  0.00  0.00    -0.290 C 
ENDBRANCH   5   8
ENDBRANCH   3   5
ENDBRANCH   1   3
BRANCH   1  15
ATOM     15  N   LIG    1        1.004   3.504  -0.498  0.00  0.00    -0.530 N 
ATOM     16  H   LIG    1        1.800   4.055  -0.443  0.00  0.00    +0.440 HD
BRANCH  15  17
ATOM     17  C   LIG    1        1.085   2.132  -0.247  0.00  0.00    +0.310 A 
ATOM     18  C   LIG    1       -0.055   1.343  -0.318  0.00  0.00    -0.020 A 
ATOM     19  C   LIG    1        0.029  -0.013  -0.069  0.00  0.00    +0.220 A 
ATOM     20  C   LIG    1        1.246  -0.585   0.250  0.00  0.00    -0.090 A 
ATOM     21  C   LIG    1        2.384   0.198   0.323  0.00  0.00    +0.240 A 
ATOM     22  C   LIG    1        2.307   1.555   0.076  0.00  0.00    -0.110 A 
BRANCH  20  23
ATOM     23  N   LIG    1        1.333  -2.039   0.516  0.00  0.00    +0.030 N 
ATOM     24  O   LIG    1        2.405  -2.544   0.797  0.00  0.00    -0.150 OA
ATOM     25  O   LIG    1        0.332  -2.730   0.454  0.00  0.00    -0.140 OA
ENDBRANCH  20  23
BRANCH  22  26
ATOM     26  N   LIG    1        3.525   2.393   0.154  0.00  0.00    +0.030 N 
ATOM     27  O   LIG    1        3.463   3.515   0.622  0.00  0.00    -0.180 OA
ATOM     28  O   LIG    1        4.589   1.959  -0.250  0.00  0.00    -0.100 OA
ENDBRANCH  22  26
ENDBRANCH  15  17
ENDBRANCH   1  15
TORSDOF 7
