REMARK  Name = ZINCkj000005g41E.1
REMARK                            x       y       z     vdW  Elec       q    Type
REMARK                         _______ _______ _______ _____ _____    ______ ____
ROOT
ATOM      1  N   LIG    1        0.666   0.759  -0.694  0.00  0.00    -0.370 N 
ATOM      2  C   LIG    1        1.150   2.080  -0.322  0.00  0.00    +0.170 C 
ATOM      3  C   LIG    1        0.571   2.583   0.995  0.00  0.00    +0.220 C 
ATOM      4  N   LIG    1       -0.895   2.469   0.966  0.00  0.00    -0.520 NA
ATOM      5  C   LIG    1       -1.264   1.051   0.847  0.00  0.00    +0.220 C 
ATOM      6  C   LIG    1        0.903   3.104  -1.430  0.00  0.00    +0.090 C 
ATOM      7  C   LIG    1       -0.749   0.498  -0.476  0.00  0.00    +0.170 C 
ATOM      8  C   LIG    1       -1.603   1.020  -1.632  0.00  0.00    +0.090 C 
ATOM      9  H   LIG    1        1.199   0.067  -0.154  0.00  0.00    +0.420 HD
ENDROOT
BRANCH   1  11
ATOM     10  C   LIG    1        2.493   0.664  -2.332  0.00  0.00    +0.080 C 
ATOM     11  C   LIG    1        0.986   0.514  -2.116  0.00  0.00    +0.240 C 
ENDBRANCH   1  11
BRANCH   4  12
ATOM     12  C   LIG    1       -1.493   3.069   2.166  0.00  0.00    +0.340 C 
BRANCH  12  13
ATOM     13  C   LIG    1       -2.984   2.854   2.145  0.00  0.00    +0.170 A 
ATOM     14  N   LIG    1       -3.637   1.846   2.671  0.00  0.00    -0.300 NA
ATOM     15  N   LIG    1       -4.893   2.025   2.446  0.00  0.00    -0.070 NA
ATOM     16  N   LIG    1       -5.058   3.116   1.783  0.00  0.00    -0.080 NA
ATOM     17  N   LIG    1       -3.904   3.656   1.578  0.00  0.00    -0.280 N 
BRANCH  17  18
ATOM     18  C   LIG    1       -3.645   4.908   0.863  0.00  0.00    +0.160 C 
ATOM     19  C   LIG    1       -3.124   5.959   1.846  0.00  0.00    +0.070 C 
ATOM     20  C   LIG    1       -4.941   5.408   0.222  0.00  0.00    +0.080 C 
ATOM     21  C   LIG    1       -2.598   4.666  -0.226  0.00  0.00    +0.090 C 
ENDBRANCH  17  18
ENDBRANCH  12  13
ENDBRANCH   4  12
TORSDOF 4
