REMARK  Name = ZINCkj000005g41E.0
REMARK                            x       y       z     vdW  Elec       q    Type
REMARK                         _______ _______ _______ _____ _____    ______ ____
ROOT
ATOM      1  N   LIG    1        1.509  -1.621  -1.045  0.00  0.00    -0.380 N 
ATOM      2  C   LIG    1        0.536  -0.525  -1.152  0.00  0.00    +0.180 C 
ATOM      3  C   LIG    1        0.801   0.501  -0.048  0.00  0.00    +0.230 C 
ATOM      4  N   LIG    1        2.169   1.022  -0.184  0.00  0.00    -0.540 NA
ATOM      5  C   LIG    1        3.152  -0.068  -0.104  0.00  0.00    +0.230 C 
ATOM      6  C   LIG    1       -0.880  -1.083  -1.001  0.00  0.00    +0.100 C 
ATOM      7  C   LIG    1        2.868  -1.089  -1.208  0.00  0.00    +0.180 C 
ATOM      8  C   LIG    1        3.878  -2.235  -1.115  0.00  0.00    +0.100 C 
ATOM      9  H   LIG    1        1.425  -2.058  -0.140  0.00  0.00    +0.420 HD
ENDROOT
BRANCH   1  11
ATOM     10  C   LIG    1        1.335  -1.944  -3.466  0.00  0.00    +0.080 C 
ATOM     11  C   LIG    1        1.243  -2.615  -2.094  0.00  0.00    +0.240 C 
ENDBRANCH   1  11
BRANCH   4  12
ATOM     12  C   LIG    1        2.442   2.053   0.825  0.00  0.00    +0.340 C 
BRANCH  12  13
ATOM     13  C   LIG    1        1.689   3.310   0.476  0.00  0.00    +0.170 A 
ATOM     14  N   LIG    1        0.441   3.582   0.771  0.00  0.00    -0.300 NA
ATOM     15  N   LIG    1        0.166   4.750   0.300  0.00  0.00    -0.070 NA
ATOM     16  N   LIG    1        1.208   5.232  -0.282  0.00  0.00    -0.080 NA
ATOM     17  N   LIG    1        2.166   4.372  -0.200  0.00  0.00    -0.280 N 
BRANCH  17  18
ATOM     18  C   LIG    1        3.521   4.524  -0.737  0.00  0.00    +0.160 C 
ATOM     19  C   LIG    1        4.524   4.571   0.417  0.00  0.00    +0.070 C 
ATOM     20  C   LIG    1        3.607   5.822  -1.542  0.00  0.00    +0.080 C 
ATOM     21  C   LIG    1        3.845   3.338  -1.647  0.00  0.00    +0.080 C 
ENDBRANCH  17  18
ENDBRANCH  12  13
ENDBRANCH   4  12
TORSDOF 4
