REMARK  Name = ZINCrD000001YLti.0
REMARK                            x       y       z     vdW  Elec       q    Type
REMARK                         _______ _______ _______ _____ _____    ______ ____
ROOT
ATOM      1  C   LIG    1        5.214   0.817  -0.577  0.00  0.00    +0.000 C 
ATOM      2  C   LIG    1        4.963   2.031  -1.497  0.00  0.00    +0.300 C 
ATOM      3  N   LIG    1        3.815   2.736  -0.881  0.00  0.00    -0.610 N 
ATOM      4  C   LIG    1        2.918   1.648  -0.425  0.00  0.00    +0.300 C 
ATOM      5  C   LIG    1        3.630   4.065  -0.758  0.00  0.00    +0.580 C 
ATOM      6  O   LIG    1        4.417   4.836  -1.266  0.00  0.00    -0.520 OA
ATOM      7  C   LIG    1        3.863   0.564   0.126  0.00  0.00    -0.020 C 
ENDROOT
BRANCH   7   8
ATOM      8  C   LIG    1        3.337  -0.831  -0.218  0.00  0.00    +0.460 C 
ATOM      9  F   LIG    1        3.158  -0.933  -1.602  0.00  0.00    -0.180 F 
ATOM     10  F   LIG    1        2.114  -1.040   0.427  0.00  0.00    -0.180 F 
ATOM     11  F   LIG    1        4.259  -1.794   0.205  0.00  0.00    -0.180 F 
ENDBRANCH   7   8
BRANCH   5  12
ATOM     12  C   LIG    1        2.446   4.594   0.009  0.00  0.00    -0.130 C 
ATOM     13  C   LIG    1        1.849   5.928  -0.443  0.00  0.00    +0.090 C 
ATOM     14  C   LIG    1        1.095   4.623  -0.709  0.00  0.00    +0.070 C 
BRANCH  12  15
ATOM     15  C   LIG    1        2.443   4.295   1.486  0.00  0.00    -0.030 A 
ATOM     16  C   LIG    1        1.244   4.156   2.160  0.00  0.00    +0.020 A 
ATOM     17  C   LIG    1        1.240   3.881   3.515  0.00  0.00    +0.040 A 
ATOM     18  C   LIG    1        2.435   3.740   4.195  0.00  0.00    +0.030 A 
ATOM     19  C   LIG    1        3.635   3.885   3.522  0.00  0.00    -0.030 A 
ATOM     20 CL   LIG    1        5.136   3.715   4.377  0.00  0.00    -0.060 Cl
ATOM     21  C   LIG    1        3.638   4.160   2.166  0.00  0.00    +0.030 A 
ENDBRANCH  12  15
ENDBRANCH   5  12
BRANCH   1  22
ATOM     22  C   LIG    1        6.296   1.144   0.454  0.00  0.00    +0.280 C 
BRANCH  22  24
ATOM     23  C   LIG    1        8.683   1.632   0.483  0.00  0.00    +0.540 C 
ATOM     24  N   LIG    1        7.579   1.333  -0.229  0.00  0.00    -0.730 N 
ATOM     25  H   LIG    1        7.633   1.244  -1.193  0.00  0.00    +0.400 HD
ATOM     26  O   LIG    1        8.616   1.745   1.692  0.00  0.00    -0.540 OA
BRANCH  23  28
ATOM     27  C   LIG    1       11.061   2.117   0.500  0.00  0.00    +0.140 C 
ATOM     28  C   LIG    1        9.971   1.822  -0.203  0.00  0.00    -0.090 C 
ENDBRANCH  23  28
ENDBRANCH  22  24
ENDBRANCH   1  22
TORSDOF 6
