REMARK  Name = ZINCpe000000SoAh.0
REMARK                            x       y       z     vdW  Elec       q    Type
REMARK                         _______ _______ _______ _____ _____    ______ ____
ROOT
ATOM      1  N   LIG    1       -0.057   5.962  -1.158  0.00  0.00    -0.500 NA
ENDROOT
BRANCH   1   2
ATOM      2  C   LIG    1       -0.235   7.396  -0.898  0.00  0.00    +0.220 C 
BRANCH   2   5
ATOM      3  N   LIG    1       -2.058   8.911  -0.189  0.00  0.00    -0.730 N 
ATOM      4  H   LIG    1       -1.447   9.654  -0.317  0.00  0.00    +0.400 HD
ATOM      5  C   LIG    1       -1.645   7.651  -0.430  0.00  0.00    +0.520 C 
ATOM      6  O   LIG    1       -2.408   6.722  -0.271  0.00  0.00    -0.510 OA
BRANCH   3   7
ATOM      7  C   LIG    1       -3.428   9.159   0.265  0.00  0.00    +0.410 C 
BRANCH   7   9
ATOM      8  C   LIG    1       -3.788  11.758   0.607  0.00  0.00    +0.050 C 
ATOM      9  C   LIG    1       -3.628  10.605   0.455  0.00  0.00    -0.210 C 
ENDBRANCH   7   9
ENDBRANCH   3   7
ENDBRANCH   2   5
ENDBRANCH   1   2
BRANCH   1  10
ATOM     10  C   LIG    1        0.084   5.213   0.098  0.00  0.00    +0.250 C 
BRANCH  10  11
ATOM     11  C   LIG    1        0.017   3.735  -0.188  0.00  0.00    -0.080 A 
ATOM     12  C   LIG    1       -1.202   3.083  -0.172  0.00  0.00    +0.050 A 
ATOM     13  C   LIG    1       -1.268   1.728  -0.439  0.00  0.00    -0.030 A 
ATOM     14  C   LIG    1       -0.111   1.018  -0.714  0.00  0.00    +0.100 A 
ATOM     15  C   LIG    1        1.117   1.675  -0.731  0.00  0.00    +0.100 A 
ATOM     16  C   LIG    1        1.176   3.033  -0.467  0.00  0.00    -0.040 A 
BRANCH  15  17
ATOM     17  O   LIG    1        2.255   0.983  -1.005  0.00  0.00    -0.310 OA
ATOM     18  C   LIG    1        3.478   1.722  -1.005  0.00  0.00    +0.230 C 
ENDBRANCH  15  17
BRANCH  14  19
ATOM     19  O   LIG    1       -0.174  -0.315  -0.973  0.00  0.00    -0.310 OA
ATOM     20  C   LIG    1       -1.467  -0.922  -0.938  0.00  0.00    +0.250 C 
ENDBRANCH  14  19
ENDBRANCH  10  11
ENDBRANCH   1  10
BRANCH   1  21
ATOM     21  C   LIG    1        1.091   5.725  -2.043  0.00  0.00    +0.270 C 
BRANCH  21  22
ATOM     22  C   LIG    1        0.749   6.176  -3.440  0.00  0.00    +0.460 C 
ATOM     23  O   LIG    1       -0.363   6.576  -3.691  0.00  0.00    -0.480 OA
BRANCH  22  24
ATOM     24  O   LIG    1        1.681   6.133  -4.405  0.00  0.00    -0.360 OA
BRANCH  24  25
ATOM     25  C   LIG    1        1.281   6.583  -5.727  0.00  0.00    +0.200 C 
ATOM     26  C   LIG    1        2.466   6.462  -6.687  0.00  0.00    +0.070 C 
ENDBRANCH  24  25
ENDBRANCH  22  24
ENDBRANCH  21  22
ENDBRANCH   1  21
TORSDOF 12
