REMARK  Name = ZINCnE00000rhn6F.0
REMARK                            x       y       z     vdW  Elec       q    Type
REMARK                         _______ _______ _______ _____ _____    ______ ____
ROOT
ATOM      1  C   LIG    1        0.002  -0.004   0.002  0.00  0.00    +0.320 A 
ATOM      2  C   LIG    1        1.316  -0.373  -0.013  0.00  0.00    -0.190 A 
ATOM      3  C   LIG    1        2.015   0.861  -0.013  0.00  0.00    +0.050 A 
ATOM      4  N   LIG    1        1.100   1.802   0.001  0.00  0.00    -0.390 NA
ATOM      5  O   LIG    1       -0.016   1.338   0.009  0.00  0.00    +0.010 OA
ENDROOT
BRANCH   3   6
ATOM      6  C   LIG    1        3.487   1.050  -0.026  0.00  0.00    -0.020 A 
ATOM      7  C   LIG    1        4.334  -0.055  -0.035  0.00  0.00    +0.070 A 
ATOM      8  C   LIG    1        5.702   0.127  -0.053  0.00  0.00    +0.000 A 
ATOM      9  C   LIG    1        6.234   1.403  -0.051  0.00  0.00    +0.030 A 
ATOM     10  C   LIG    1        5.400   2.506  -0.036  0.00  0.00    -0.030 A 
ATOM     11  C   LIG    1        4.028   2.337  -0.024  0.00  0.00    +0.110 A 
ATOM     12  F   LIG    1        3.213   3.414  -0.010  0.00  0.00    -0.120 F 
ENDBRANCH   3   6
BRANCH   1  13
ATOM     13  N   LIG    1       -1.094  -0.847   0.008  0.00  0.00    -1.040 NA
BRANCH  13  15
ATOM     14  O   LIG    1       -2.706   0.472   1.267  0.00  0.00    -1.010 OA
ATOM     15  S   LIG    1       -2.625  -0.215   0.025  0.00  0.00    +2.530 S 
ATOM     16  O   LIG    1       -2.729   0.485  -1.207  0.00  0.00    -1.010 OA
BRANCH  15  17
ATOM     17  C   LIG    1       -3.714  -1.665   0.028  0.00  0.00    -0.300 C 
BRANCH  17  18
ATOM     18  C   LIG    1       -5.152  -1.214   0.044  0.00  0.00    -0.080 A 
ATOM     19  C   LIG    1       -5.802  -1.018   1.248  0.00  0.00    +0.020 A 
ATOM     20  C   LIG    1       -7.119  -0.600   1.262  0.00  0.00    +0.000 A 
ATOM     21  C   LIG    1       -7.789  -0.387   0.072  0.00  0.00    +0.000 A 
ATOM     22  C   LIG    1       -7.141  -0.588  -1.132  0.00  0.00    +0.000 A 
ATOM     23  C   LIG    1       -5.822  -1.001  -1.146  0.00  0.00    +0.020 A 
ENDBRANCH  17  18
ENDBRANCH  15  17
ENDBRANCH  13  15
ENDBRANCH   1  13
TORSDOF 5
