REMARK  Name = ZINCpk00000LFUyZ.0
REMARK                            x       y       z     vdW  Elec       q    Type
REMARK                         _______ _______ _______ _____ _____    ______ ____
ROOT
ATOM      1  N   LIG    1        1.086  -1.970   0.371  0.00  0.00    -0.460 N 
ATOM      2  C   LIG    1        0.430  -2.616   1.517  0.00  0.00    +0.260 C 
ATOM      3  C   LIG    1        0.427  -4.132   1.312  0.00  0.00    +0.280 C 
ATOM      4  N   LIG    1        1.810  -4.611   1.183  0.00  0.00    -0.390 N 
ATOM      5  C   LIG    1        2.444  -3.976   0.020  0.00  0.00    +0.270 C 
ATOM      6  H   LIG    1        2.326  -4.376   2.018  0.00  0.00    +0.420 HD
ATOM      7  C   LIG    1        2.463  -2.459   0.215  0.00  0.00    +0.250 C 
ENDROOT
BRANCH   1  10
ATOM      8  C   LIG    1        2.167   1.418   0.586  0.00  0.00    +0.600 A 
ATOM      9  N   LIG    1        2.193   0.096   0.465  0.00  0.00    -0.650 NA
ATOM     10  C   LIG    1        1.060  -0.596   0.496  0.00  0.00    +0.530 A 
ATOM     11  N   LIG    1       -0.101   0.037   0.647  0.00  0.00    -0.550 NA
ATOM     12  C   LIG    1       -0.126   1.358   0.768  0.00  0.00    +0.380 A 
ATOM     13  N   LIG    1        1.006   2.050   0.737  0.00  0.00    -0.570 NA
BRANCH   8  14
ATOM     14  N   LIG    1        3.345   2.138   0.554  0.00  0.00    -0.810 N 
ATOM     15  H   LIG    1        3.326   3.104   0.642  0.00  0.00    +0.420 HD
ATOM     16  H   LIG    1        4.191   1.677   0.443  0.00  0.00    +0.410 HD
ENDBRANCH   8  14
BRANCH  12  17
ATOM     17  C   LIG    1       -1.425   2.065   0.931  0.00  0.00    +0.550 C 
ATOM     18  O   LIG    1       -1.449   3.281   1.042  0.00  0.00    -0.630 OA
ATOM     19  O   LIG    1       -2.468   1.430   0.954  0.00  0.00    -0.640 OA
ENDBRANCH  12  17
ENDBRANCH   1  10
BRANCH   4  20
ATOM     20  C   LIG    1        1.808  -6.069   1.004  0.00  0.00    +0.260 C 
BRANCH  20  21
ATOM     21  C   LIG    1        3.247  -6.587   1.018  0.00  0.00    -0.020 C 
ATOM     22  C   LIG    1        3.864  -6.387   2.425  0.00  0.00    +0.020 C 
ATOM     23  C   LIG    1        5.267  -6.989   2.432  0.00  0.00    +0.060 C 
ATOM     24  C   LIG    1        6.090  -6.326   1.356  0.00  0.00    -0.060 C 
ATOM     25  C   LIG    1        6.330  -7.004   0.253  0.00  0.00    -0.030 C 
ATOM     26  C   LIG    1        5.760  -8.394   0.169  0.00  0.00    +0.050 C 
ATOM     27  C   LIG    1        4.341  -8.418  -0.302  0.00  0.00    +0.010 C 
ATOM     28  C   LIG    1        3.262  -8.094   0.709  0.00  0.00    +0.040 C 
ENDBRANCH  20  21
ENDBRANCH   4  20
TORSDOF 5
