REMARK  Name = ZINCrD000000fMYR.0
REMARK                            x       y       z     vdW  Elec       q    Type
REMARK                         _______ _______ _______ _____ _____    ______ ____
ROOT
ATOM      1  N   LIG    1       -0.011   0.966   0.007  0.00  0.00    -0.650 N 
ATOM      2  H   LIG    1        0.787   1.333   0.418  0.00  0.00    +0.420 HD
ATOM      3  C   LIG    1        0.036  -0.237  -0.600  0.00  0.00    +0.570 C 
ATOM      4  O   LIG    1       -0.981  -0.735  -1.040  0.00  0.00    -0.500 OA
ENDROOT
BRANCH   1   9
ATOM      5  C   LIG    1       -3.604   1.716   0.217  0.00  0.00    -0.070 A 
ATOM      6  C   LIG    1       -3.588   3.096   0.136  0.00  0.00    +0.010 A 
ATOM      7  C   LIG    1       -2.387   3.771   0.012  0.00  0.00    +0.030 A 
ATOM      8  C   LIG    1       -1.199   3.068  -0.026  0.00  0.00    -0.010 A 
ATOM      9  C   LIG    1       -1.212   1.681   0.050  0.00  0.00    +0.140 A 
ATOM     10  C   LIG    1       -2.420   1.006   0.175  0.00  0.00    +0.030 A 
BRANCH   5  11
ATOM     11  C   LIG    1       -4.915   0.985   0.353  0.00  0.00    +0.100 C 
BRANCH  11  12
ATOM     12  C   LIG    1       -5.256   0.821   1.835  0.00  0.00    +0.210 C 
BRANCH  12  13
ATOM     13  O   LIG    1       -6.519   0.117   1.966  0.00  0.00    -0.360 OA
BRANCH  13  15
ATOM     14  C   LIG    1       -8.269  -0.835   3.425  0.00  0.00    +0.150 C 
ATOM     15  C   LIG    1       -6.965  -0.109   3.211  0.00  0.00    +0.460 C 
ATOM     16  O   LIG    1       -6.321   0.269   4.161  0.00  0.00    -0.510 OA
ENDBRANCH  13  15
ENDBRANCH  12  13
ENDBRANCH  11  12
ENDBRANCH   5  11
ENDBRANCH   1   9
BRANCH   3  17
ATOM     17  C   LIG    1        1.327  -0.951  -0.730  0.00  0.00    +0.120 A 
ATOM     18  C   LIG    1        1.367  -2.194  -1.353  0.00  0.00    +0.030 A 
ATOM     19  C   LIG    1        2.583  -2.851  -1.474  0.00  0.00    +0.120 A 
ATOM     20  C   LIG    1        3.716  -2.247  -0.959  0.00  0.00    +0.010 A 
ATOM     21  C   LIG    1        3.604  -1.003  -0.342  0.00  0.00    +0.320 A 
ATOM     22  N   LIG    1        2.435  -0.400  -0.246  0.00  0.00    -0.520 NA
BRANCH  21  23
ATOM     23  O   LIG    1        4.711  -0.405   0.166  0.00  0.00    -0.290 OA
BRANCH  23  24
ATOM     24  C   LIG    1        4.532   0.870   0.787  0.00  0.00    +0.260 C 
BRANCH  24  25
ATOM     25  C   LIG    1        5.881   1.383   1.295  0.00  0.00    +0.460 C 
ATOM     26  F   LIG    1        6.402   0.479   2.228  0.00  0.00    -0.170 F 
ATOM     27  F   LIG    1        5.706   2.631   1.903  0.00  0.00    -0.170 F 
ATOM     28  F   LIG    1        6.768   1.507   0.221  0.00  0.00    -0.170 F 
ENDBRANCH  24  25
ENDBRANCH  23  24
ENDBRANCH  21  23
ENDBRANCH   3  17
TORSDOF 9
