REMARK  Name = ZINCvU0000000A8r.0
REMARK                            x       y       z     vdW  Elec       q    Type
REMARK                         _______ _______ _______ _____ _____    ______ ____
ROOT
ATOM      1  C   LIG    1        1.404   1.620  -0.146  0.00  0.00    +0.150 A 
ATOM      2  N   LIG    1        2.175   0.561  -0.043  0.00  0.00    -0.280 NA
ATOM      3  N   LIG    1        1.460  -0.507  -0.027  0.00  0.00    -0.260 NA
ATOM      4  C   LIG    1        0.186  -0.195  -0.119  0.00  0.00    +0.260 A 
ATOM      5  N   LIG    1        0.111   1.178  -0.198  0.00  0.00    -0.450 N 
ENDROOT
BRANCH   4   6
ATOM      6  C   LIG    1       -0.947  -1.135  -0.135  0.00  0.00    -0.130 A 
ATOM      7  C   LIG    1       -0.855  -2.463  -0.365  0.00  0.00    +0.080 A 
ATOM      8  C   LIG    1       -2.056  -3.139  -0.325  0.00  0.00    +0.020 A 
ATOM      9  C   LIG    1       -3.126  -2.377  -0.075  0.00  0.00    -0.030 A 
ATOM     10  S   LIG    1       -2.630  -0.703   0.135  0.00  0.00    +0.120 S 
ENDBRANCH   4   6
BRANCH   1  11
ATOM     11  S   LIG    1        1.938   3.298  -0.206  0.00  0.00    +0.080 S 
BRANCH  11  13
ATOM     12  C   LIG    1        4.075   2.464   1.277  0.00  0.00    +0.100 C 
ATOM     13  C   LIG    1        3.728   3.063  -0.087  0.00  0.00    +0.020 C 
BRANCH  13  14
ATOM     14  C   LIG    1        4.421   4.393  -0.243  0.00  0.00    +0.540 C 
ATOM     15  N   LIG    1        5.692   4.442  -0.688  0.00  0.00    -0.660 N 
ATOM     16  H   LIG    1        6.135   3.631  -0.983  0.00  0.00    +0.420 HD
ATOM     17  O   LIG    1        3.834   5.418   0.033  0.00  0.00    -0.500 OA
BRANCH  15  18
ATOM     18  C   LIG    1        6.374   5.665  -0.726  0.00  0.00    +0.150 A 
ATOM     19  C   LIG    1        5.994   6.699   0.120  0.00  0.00    +0.080 A 
ATOM     20  C   LIG    1        6.672   7.902   0.086  0.00  0.00    +0.030 A 
ATOM     21  C   LIG    1        7.721   8.083  -0.799  0.00  0.00    +0.100 A 
ATOM     22  C   LIG    1        8.098   7.056  -1.648  0.00  0.00    +0.030 A 
ATOM     23  F   LIG    1        8.379   9.262  -0.834  0.00  0.00    -0.130 F 
ATOM     24  C   LIG    1        7.427   5.848  -1.613  0.00  0.00    -0.040 A 
ATOM     25 CL   LIG    1        7.900   4.561  -2.678  0.00  0.00    -0.050 Cl
ENDBRANCH  15  18
ENDBRANCH  13  14
ENDBRANCH  11  13
ENDBRANCH   1  11
BRANCH   5  26
ATOM     26  C   LIG    1       -1.099   1.994  -0.320  0.00  0.00    +0.360 C 
BRANCH  26  27
ATOM     27  C   LIG    1       -1.353   2.303  -1.772  0.00  0.00    -0.130 A 
ATOM     28  C   LIG    1       -0.732   3.386  -2.367  0.00  0.00    +0.040 A 
ATOM     29  C   LIG    1       -0.961   3.667  -3.701  0.00  0.00    +0.010 A 
ATOM     30  C   LIG    1       -1.819   2.872  -4.438  0.00  0.00    +0.030 A 
ATOM     31  C   LIG    1       -2.444   1.792  -3.842  0.00  0.00    +0.010 A 
ATOM     32  C   LIG    1       -2.211   1.508  -2.509  0.00  0.00    +0.030 A 
ENDBRANCH  26  27
ENDBRANCH   5  26
TORSDOF 7
