REMARK  Name = ZINCpe00000MJMj1.0
REMARK                            x       y       z     vdW  Elec       q    Type
REMARK                         _______ _______ _______ _____ _____    ______ ____
ROOT
ATOM      1  O   LIG    1        1.422  -5.122   2.385  0.00  0.00    -0.530 OA
ATOM      2  C   LIG    1        2.423  -4.899   1.732  0.00  0.00    +0.610 C 
ATOM      3  N   LIG    1        2.443  -3.872   0.859  0.00  0.00    -0.600 N 
ATOM      4  C   LIG    1        3.612  -3.426   0.086  0.00  0.00    +0.260 C 
ATOM      5  C   LIG    1        3.155  -2.243  -0.793  0.00  0.00    +0.090 C 
ATOM      6  C   LIG    1        1.621  -2.451  -0.887  0.00  0.00    +0.210 C 
ATOM      7  C   LIG    1        1.296  -3.009   0.521  0.00  0.00    +0.270 C 
ENDROOT
BRANCH   6   8
ATOM      8  C   LIG    1        0.912  -1.143  -1.126  0.00  0.00    -0.020 A 
ATOM      9  N   LIG    1        1.461   0.045  -1.247  0.00  0.00    -0.260 NA
ATOM     10  N   LIG    1        0.531   0.912  -1.442  0.00  0.00    -0.240 N 
ATOM     11  H   LIG    1        0.681   1.862  -1.562  0.00  0.00    +0.470 HD
ATOM     12  N   LIG    1       -0.624   0.346  -1.456  0.00  0.00    -0.280 NA
ATOM     13  C   LIG    1       -0.464  -0.944  -1.264  0.00  0.00    +0.190 A 
ENDBRANCH   6   8
BRANCH   2  14
ATOM     14  C   LIG    1        3.610  -5.746   1.894  0.00  0.00    -0.080 A 
ATOM     15  C   LIG    1        4.832  -5.566   1.309  0.00  0.00    +0.230 A 
ATOM     16  N   LIG    1        5.629  -6.554   1.716  0.00  0.00    -0.490 NA
ATOM     17  C   LIG    1        4.973  -7.346   2.526  0.00  0.00    +0.440 A 
ATOM     18  N   LIG    1        3.716  -6.883   2.674  0.00  0.00    -0.380 N 
BRANCH  18  19
ATOM     19  C   LIG    1        2.707  -7.450   3.465  0.00  0.00    +0.090 A 
ATOM     20  C   LIG    1        2.089  -6.692   4.451  0.00  0.00    +0.100 A 
ATOM     21  C   LIG    1        1.091  -7.250   5.225  0.00  0.00    +0.010 A 
ATOM     22  C   LIG    1        0.714  -8.568   5.026  0.00  0.00    +0.120 A 
ATOM     23  C   LIG    1        1.333  -9.327   4.047  0.00  0.00    +0.000 A 
ATOM     24  F   LIG    1       -0.259  -9.114   5.788  0.00  0.00    -0.130 F 
ATOM     25  C   LIG    1        2.328  -8.771   3.267  0.00  0.00    +0.060 A 
ENDBRANCH  18  19
ENDBRANCH   2  14
BRANCH   6  26
ATOM     26  O   LIG    1        1.294  -3.400  -1.903  0.00  0.00    -0.530 OA
ATOM     27  H   LIG    1        0.350  -3.600  -1.966  0.00  0.00    +0.380 HD
ENDBRANCH   6  26
TORSDOF 4
