REMARK  Name = ZINCpe00000MJMj1.1
REMARK                            x       y       z     vdW  Elec       q    Type
REMARK                         _______ _______ _______ _____ _____    ______ ____
ROOT
ATOM      1  O   LIG    1        2.998  -1.903  -0.722  0.00  0.00    -0.530 OA
ATOM      2  C   LIG    1        1.909  -1.689  -0.224  0.00  0.00    +0.610 C 
ATOM      3  N   LIG    1        1.559  -0.433   0.118  0.00  0.00    -0.600 N 
ATOM      4  C   LIG    1        0.244  -0.018   0.628  0.00  0.00    +0.260 C 
ATOM      5  C   LIG    1        0.318   1.498   0.904  0.00  0.00    +0.100 C 
ATOM      6  C   LIG    1        1.840   1.748   1.069  0.00  0.00    +0.210 C 
ATOM      7  C   LIG    1        2.432   0.753   0.041  0.00  0.00    +0.270 C 
ENDROOT
BRANCH   6   8
ATOM      8  C   LIG    1        2.196   3.169   0.713  0.00  0.00    -0.040 A 
ATOM      9  C   LIG    1        3.428   3.727   0.743  0.00  0.00    +0.170 A 
ATOM     10  N   LIG    1        3.271   5.011   0.346  0.00  0.00    -0.390 N 
ATOM     11  H   LIG    1        3.976   5.671   0.265  0.00  0.00    +0.450 HD
ATOM     12  N   LIG    1        2.023   5.205   0.095  0.00  0.00    -0.070 NA
ATOM     13  N   LIG    1        1.356   4.124   0.299  0.00  0.00    -0.240 NA
ENDBRANCH   6   8
BRANCH   2  14
ATOM     14  C   LIG    1        0.977  -2.798   0.006  0.00  0.00    -0.080 A 
ATOM     15  C   LIG    1       -0.309  -2.707   0.463  0.00  0.00    +0.230 A 
ATOM     16  N   LIG    1       -0.806  -3.942   0.529  0.00  0.00    -0.490 NA
ATOM     17  C   LIG    1        0.097  -4.805   0.138  0.00  0.00    +0.440 A 
ATOM     18  N   LIG    1        1.220  -4.143  -0.203  0.00  0.00    -0.380 N 
BRANCH  18  19
ATOM     19  C   LIG    1        2.411  -4.711  -0.677  0.00  0.00    +0.090 A 
ATOM     20  C   LIG    1        2.936  -4.309  -1.898  0.00  0.00    +0.100 A 
ATOM     21  C   LIG    1        4.112  -4.866  -2.360  0.00  0.00    +0.010 A 
ATOM     22  C   LIG    1        4.762  -5.833  -1.611  0.00  0.00    +0.120 A 
ATOM     23  C   LIG    1        4.238  -6.239  -0.396  0.00  0.00    +0.000 A 
ATOM     24  F   LIG    1        5.910  -6.380  -2.068  0.00  0.00    -0.130 F 
ATOM     25  C   LIG    1        3.064  -5.681   0.072  0.00  0.00    +0.060 A 
ENDBRANCH  18  19
ENDBRANCH   2  14
BRANCH   6  26
ATOM     26  O   LIG    1        2.270   1.432   2.395  0.00  0.00    -0.530 OA
ATOM     27  H   LIG    1        3.215   1.573   2.546  0.00  0.00    +0.380 HD
ENDBRANCH   6  26
TORSDOF 4
