REMARK  Name = ZINCpk000000mO4O.0
REMARK                            x       y       z     vdW  Elec       q    Type
REMARK                         _______ _______ _______ _____ _____    ______ ____
ROOT
ATOM      1  N   LIG    1        4.454  -1.157  -1.150  0.00  0.00    -0.440 N 
ATOM      2  C   LIG    1        3.713  -0.860  -0.040  0.00  0.00    +0.180 A 
ATOM      3  N   LIG    1        4.441  -1.150   1.001  0.00  0.00    -0.250 NA
ATOM      4  N   LIG    1        5.584  -1.603   0.628  0.00  0.00    -0.290 NA
ATOM      5  C   LIG    1        5.648  -1.626  -0.683  0.00  0.00    +0.150 A 
ENDROOT
BRANCH   1   6
ATOM      6  C   LIG    1        4.050  -1.001  -2.550  0.00  0.00    +0.350 C 
BRANCH   6   8
ATOM      7  C   LIG    1        5.180   0.505  -4.104  0.00  0.00    +0.080 C 
ATOM      8  C   LIG    1        4.436   0.373  -3.034  0.00  0.00    -0.080 C 
ENDBRANCH   6   8
ENDBRANCH   1   6
BRANCH   2   9
ATOM      9  C   LIG    1        2.312  -0.304  -0.023  0.00  0.00    +0.350 C 
BRANCH   9  10
ATOM     10  O   LIG    1        2.365   1.123  -0.015  0.00  0.00    -0.300 OA
BRANCH  10  11
ATOM     11  C   LIG    1        1.178   1.786   0.000  0.00  0.00    +0.100 A 
ATOM     12  C   LIG    1       -0.013   1.076   0.008  0.00  0.00    -0.040 A 
ATOM     13  C   LIG    1       -1.219   1.751   0.017  0.00  0.00    +0.050 A 
ATOM     14  C   LIG    1       -1.239   3.133   0.031  0.00  0.00    +0.020 A 
ATOM     15  C   LIG    1       -0.054   3.845   0.023  0.00  0.00    +0.030 A 
ATOM     16  C   LIG    1        1.156   3.175   0.008  0.00  0.00    +0.070 A 
ATOM     17  F   LIG    1        2.314   3.870   0.001  0.00  0.00    -0.130 F 
ENDBRANCH  10  11
ENDBRANCH   9  10
ENDBRANCH   2   9
BRANCH   5  18
ATOM     18  S   LIG    1        7.014  -2.166  -1.657  0.00  0.00    +0.100 S 
BRANCH  18  19
ATOM     19  C   LIG    1        8.172  -2.628  -0.344  0.00  0.00    +0.130 C 
BRANCH  19  20
ATOM     20  C   LIG    1        9.451  -3.134  -0.959  0.00  0.00    +0.540 C 
ATOM     21  N   LIG    1       10.465  -3.537  -0.168  0.00  0.00    -0.680 N 
ATOM     22  H   LIG    1       10.371  -3.502   0.797  0.00  0.00    +0.420 HD
ATOM     23  C   LIG    1       11.610  -3.990  -0.717  0.00  0.00    +0.700 C 
ATOM     24  O   LIG    1       11.727  -4.035  -1.926  0.00  0.00    -0.530 OA
ATOM     25  N   LIG    1       12.623  -4.394   0.074  0.00  0.00    -0.850 N 
ATOM     26  H   LIG    1       13.447  -4.720  -0.322  0.00  0.00    +0.420 HD
ATOM     27  H   LIG    1       12.530  -4.358   1.038  0.00  0.00    +0.400 HD
ATOM     28  O   LIG    1        9.569  -3.179  -2.165  0.00  0.00    -0.450 OA
ENDBRANCH  19  20
ENDBRANCH  18  19
ENDBRANCH   5  18
TORSDOF 8
