REMARK  Name = ZINCrH00000tj156.0
REMARK                            x       y       z     vdW  Elec       q    Type
REMARK                         _______ _______ _______ _____ _____    ______ ____
ROOT
ATOM      1  C   LIG    1        0.916   6.406   1.034  0.00  0.00    +0.490 A 
ATOM      2  C   LIG    1        0.806   5.079   1.524  0.00  0.00    -0.210 A 
ATOM      3  C   LIG    1        0.990   4.874   2.888  0.00  0.00    +0.110 A 
ATOM      4  S   LIG    1        0.807   3.169   3.257  0.00  0.00    +0.170 S 
ATOM      5  C   LIG    1        0.486   2.761   1.577  0.00  0.00    -0.170 A 
ATOM      6  C   LIG    1        0.204   1.352   1.095  0.00  0.00    +0.120 C 
ATOM      7  C   LIG    1        1.047   1.037  -0.139  0.00  0.00    +0.020 C 
ATOM      8  C   LIG    1        0.268   1.430  -1.391  0.00  0.00    +0.020 C 
ATOM      9  C   LIG    1       -0.595   2.655  -1.096  0.00  0.00    +0.030 C 
ATOM     10  C   LIG    1        0.300   3.826  -0.706  0.00  0.00    +0.090 C 
ATOM     11  N   LIG    1        1.262   5.925   3.675  0.00  0.00    -0.510 NA
ATOM     12  C   LIG    1        1.355   7.136   3.176  0.00  0.00    +0.350 A 
ATOM     13  C   LIG    1        0.523   3.842   0.799  0.00  0.00    -0.060 A 
ATOM     14  N   LIG    1        1.188   7.381   1.889  0.00  0.00    -0.550 NA
ENDROOT
BRANCH   1  15
ATOM     15  N   LIG    1        0.742   6.678  -0.311  0.00  0.00    -0.830 N 
ATOM     16  H   LIG    1        0.887   5.980  -0.969  0.00  0.00    +0.410 HD
ATOM     17  H   LIG    1        0.475   7.565  -0.596  0.00  0.00    +0.410 HD
ENDBRANCH   1  15
BRANCH  12  18
ATOM     18  C   LIG    1        1.662   8.284   4.103  0.00  0.00    +0.430 C 
BRANCH  18  19
ATOM     19  N   LIG    1        0.411   8.847   4.615  0.00  0.00    -0.490 N 
ATOM     20  C   LIG    1       -0.125   8.357   5.763  0.00  0.00    +0.390 A 
ATOM     21  C   LIG    1       -1.281   8.861   6.255  0.00  0.00    -0.300 A 
ATOM     22  C   LIG    1       -1.936   9.899   5.579  0.00  0.00    +0.160 A 
ATOM     23  C   LIG    1       -1.396  10.390   4.426  0.00  0.00    -0.070 A 
ATOM     24  C   LIG    1       -0.193   9.847   3.946  0.00  0.00    +0.520 A 
ATOM     25  O   LIG    1        0.304  10.280   2.918  0.00  0.00    -0.510 OA
BRANCH  21  26
ATOM     26  C   LIG    1       -1.862   8.306   7.530  0.00  0.00    +0.530 C 
ATOM     27  F   LIG    1       -1.419   6.992   7.711  0.00  0.00    -0.180 F 
ATOM     28  F   LIG    1       -3.259   8.320   7.450  0.00  0.00    -0.170 F 
ATOM     29  F   LIG    1       -1.449   9.091   8.612  0.00  0.00    -0.170 F 
ENDBRANCH  21  26
ENDBRANCH  18  19
ENDBRANCH  12  18
TORSDOF 4
