REMARK  Name = ZINCrg00000ylbjL.0
REMARK                            x       y       z     vdW  Elec       q    Type
REMARK                         _______ _______ _______ _____ _____    ______ ____
ROOT
ATOM      1  C   LIG    1        2.573   8.887  -0.115  0.00  0.00    +0.520 C 
ATOM      2  N   LIG    1        2.346   7.559  -0.066  0.00  0.00    -0.620 N 
ATOM      3  C   LIG    1        3.360   6.493  -0.046  0.00  0.00    +0.260 C 
ATOM      4  C   LIG    1        2.758   5.337   0.770  0.00  0.00    +0.000 C 
ATOM      5  C   LIG    1        2.936   4.020  -0.004  0.00  0.00    +0.270 C 
ATOM      6  N   LIG    1        1.624   3.353   0.005  0.00  0.00    -0.620 N 
ATOM      7  C   LIG    1        0.610   4.420   0.013  0.00  0.00    +0.270 C 
ATOM      8  C   LIG    1        1.395   2.024  -0.000  0.00  0.00    +0.530 C 
ATOM      9  O   LIG    1        2.328   1.249  -0.013  0.00  0.00    -0.520 OA
ATOM     10  C   LIG    1        1.232   5.599   0.785  0.00  0.00    +0.000 C 
ATOM     11  C   LIG    1        1.034   6.892  -0.022  0.00  0.00    +0.270 C 
ATOM     12  O   LIG    1        1.641   9.662  -0.127  0.00  0.00    -0.510 OA
ENDROOT
BRANCH   1  13
ATOM     13  C   LIG    1        3.987   9.408  -0.156  0.00  0.00    +0.260 C 
BRANCH  13  14
ATOM     14  N   LIG    1        3.966  10.872  -0.206  0.00  0.00    -0.610 N 
ATOM     15  C   LIG    1        4.572  11.744   0.807  0.00  0.00    +0.250 C 
ATOM     16  C   LIG    1        4.693  13.131   0.135  0.00  0.00    +0.040 C 
ATOM     17  C   LIG    1        3.564  13.068  -0.919  0.00  0.00    +0.050 C 
ATOM     18  C   LIG    1        3.385  11.589  -1.183  0.00  0.00    +0.530 C 
ATOM     19  O   LIG    1        2.801  11.120  -2.136  0.00  0.00    -0.520 OA
ENDBRANCH  13  14
BRANCH  13  21
ATOM     20  C   LIG    1        6.164   9.292  -1.376  0.00  0.00    +0.030 C 
ATOM     21  C   LIG    1        4.695   8.865  -1.399  0.00  0.00    +0.030 C 
ENDBRANCH  13  21
ENDBRANCH   1  13
BRANCH   8  22
ATOM     22  C   LIG    1       -0.018   1.503   0.010  0.00  0.00    +0.170 C 
BRANCH  22  23
ATOM     23  C   LIG    1        0.002  -0.004   0.002  0.00  0.00    -0.210 A 
ATOM     24  C   LIG    1        0.028  -0.796   1.078  0.00  0.00    +0.220 A 
ATOM     25  N   LIG    1        0.038  -2.086   0.808  0.00  0.00    -0.470 NA
ATOM     26  C   LIG    1        0.031  -2.426  -0.437  0.00  0.00    +0.220 A 
ATOM     27  S   LIG    1        0.003  -1.033  -1.428  0.00  0.00    +0.140 S 
ENDBRANCH  22  23
ENDBRANCH   8  22
TORSDOF 5
