REMARK  Name = ZINCrg000000scnK.0
REMARK                            x       y       z     vdW  Elec       q    Type
REMARK                         _______ _______ _______ _____ _____    ______ ____
ROOT
ATOM      1  C   LIG    1        0.563   4.542   4.188  0.00  0.00    +0.300 C 
ENDROOT
BRANCH   1   2
ATOM      2  N   LIG    1        1.277   4.040   5.364  0.00  0.00    -1.120 NA
ATOM      3  H   LIG    1        1.252   3.094   5.579  0.00  0.00    +0.420 HD
BRANCH   2   4
ATOM      4  S   LIG    1        2.126   5.086   6.327  0.00  0.00    +2.700 S 
ATOM      5  O   LIG    1        2.924   5.875   5.456  0.00  0.00    -0.950 OA
ATOM      6  O   LIG    1        2.666   4.307   7.386  0.00  0.00    -0.960 OA
BRANCH   4  11
ATOM      7  C   LIG    1       -1.871   8.841   8.843  0.00  0.00    +0.100 C 
ATOM      8  C   LIG    1       -0.873   7.903   8.214  0.00  0.00    -0.030 A 
ATOM      9  C   LIG    1       -0.539   6.722   8.850  0.00  0.00    -0.010 A 
ATOM     10  C   LIG    1        0.377   5.862   8.274  0.00  0.00    +0.120 A 
ATOM     11  C   LIG    1        0.958   6.182   7.062  0.00  0.00    -0.680 A 
ATOM     12  C   LIG    1        0.628   7.366   6.428  0.00  0.00    +0.120 A 
ATOM     13  C   LIG    1       -0.291   8.224   7.002  0.00  0.00    -0.110 A 
ATOM     14  C   LIG    1       -0.655   9.511   6.309  0.00  0.00    +0.100 C 
ENDBRANCH   4  11
ENDBRANCH   2   4
ENDBRANCH   1   2
BRANCH   1  15
ATOM     15  C   LIG    1        0.187   3.370   3.280  0.00  0.00    +0.060 C 
BRANCH  15  16
ATOM     16  C   LIG    1       -0.547   3.887   2.070  0.00  0.00    +0.520 C 
ATOM     17  N   LIG    1       -0.979   3.028   1.125  0.00  0.00    -0.610 N 
ATOM     18  C   LIG    1       -0.738   1.584   1.265  0.00  0.00    +0.270 C 
ATOM     19  C   LIG    1       -0.013   1.086   0.008  0.00  0.00    +0.280 C 
ATOM     20  N   LIG    1       -0.730   1.576  -1.177  0.00  0.00    -0.610 N 
ATOM     21  C   LIG    1       -0.968   3.020  -1.315  0.00  0.00    +0.270 C 
ATOM     22  C   LIG    1       -1.161   0.717  -2.122  0.00  0.00    +0.550 C 
ATOM     23  O   LIG    1       -0.959  -0.473  -1.998  0.00  0.00    -0.540 OA
ATOM     24  C   LIG    1       -1.697   3.518  -0.060  0.00  0.00    +0.290 C 
ATOM     25  O   LIG    1       -0.750   5.076   1.945  0.00  0.00    -0.530 OA
BRANCH  22  26
ATOM     26  C   LIG    1       -1.896   1.234  -3.332  0.00  0.00    -0.070 C 
ATOM     27  C   LIG    1       -3.382   0.891  -3.457  0.00  0.00    +0.060 C 
ATOM     28  C   LIG    1       -2.360   0.208  -4.368  0.00  0.00    +0.070 C 
ENDBRANCH  22  26
ENDBRANCH  15  16
ENDBRANCH   1  15
TORSDOF 6
