REMARK  Name = ZINCtj00001UqOBv.1
REMARK                            x       y       z     vdW  Elec       q    Type
REMARK                         _______ _______ _______ _____ _____    ______ ____
ROOT
ATOM      1  C   LIG    1        2.838  -3.591   7.778  0.00  0.00    +0.040 C 
ENDROOT
BRANCH   1   2
ATOM      2  C   LIG    1        2.796  -2.235   7.070  0.00  0.00    +0.040 C 
BRANCH   2   3
ATOM      3  C   LIG    1        2.080  -2.384   5.726  0.00  0.00    +0.130 C 
BRANCH   3   6
ATOM      4  N   LIG    1        2.247   0.544   3.578  0.00  0.00    -0.280 N 
ATOM      5  C   LIG    1        2.490  -0.771   3.783  0.00  0.00    +0.160 A 
ATOM      6  C   LIG    1        2.039  -1.048   5.028  0.00  0.00    -0.030 A 
ATOM      7  N   LIG    1        1.548   0.096   5.519  0.00  0.00    -0.270 NA
ATOM      8  N   LIG    1        1.692   1.021   4.637  0.00  0.00    -0.080 NA
BRANCH   4  10
ATOM      9  C   LIG    1        3.869   0.767   1.762  0.00  0.00    +0.080 C 
ATOM     10  C   LIG    1        2.566   1.298   2.363  0.00  0.00    +0.320 C 
BRANCH  10  11
ATOM     11  C   LIG    1        1.433   1.133   1.348  0.00  0.00    +0.050 C 
ATOM     12  C   LIG    1        0.139   1.983   1.505  0.00  0.00    +0.040 C 
ATOM     13  C   LIG    1       -0.019   1.564   0.011  0.00  0.00    -0.030 C 
ATOM     14  C   LIG    1        0.002  -0.004   0.002  0.00  0.00    +0.220 C 
ATOM     15  C   LIG    1        1.499   1.887  -0.002  0.00  0.00    +0.030 C 
ATOM     16  O   LIG    1        1.062  -0.228   0.974  0.00  0.00    -0.350 OA
ENDBRANCH  10  11
ENDBRANCH   4  10
ENDBRANCH   3   6
ENDBRANCH   2   3
ENDBRANCH   1   2
BRANCH   1  17
ATOM     17  C   LIG    1        3.554  -3.442   9.122  0.00  0.00    +0.030 C 
BRANCH  17  18
ATOM     18  C   LIG    1        3.596  -4.798   9.830  0.00  0.00    +0.270 C 
BRANCH  18  19
ATOM     19  N   LIG    1        4.284  -4.655  11.120  0.00  0.00    -0.390 N 
ATOM     20  C   LIG    1        4.429  -5.977  11.744  0.00  0.00    +0.290 C 
ATOM     21  C   LIG    1        5.400  -5.889  12.930  0.00  0.00    +0.340 C 
ATOM     22  N   LIG    1        4.975  -4.776  13.779  0.00  0.00    -0.480 N 
ATOM     23  C   LIG    1        5.311  -4.479  15.045  0.00  0.00    +0.220 A 
ATOM     24  N   LIG    1        4.664  -3.387  15.367  0.00  0.00    -0.260 NA
ATOM     25  N   LIG    1        3.950  -2.992  14.368  0.00  0.00    -0.230 NA
ATOM     26  C   LIG    1        4.110  -3.808  13.374  0.00  0.00    +0.110 A 
ATOM     27  C   LIG    1        3.499  -3.768  11.996  0.00  0.00    +0.430 C 
ATOM     28  H   LIG    1        5.197  -4.253  10.970  0.00  0.00    +0.430 HD
BRANCH  23  29
ATOM     29  C   LIG    1        6.253  -5.256  15.928  0.00  0.00    +0.330 C 
BRANCH  29  30
ATOM     30  O   LIG    1        7.582  -4.761  15.761  0.00  0.00    -0.560 OA
ATOM     31  H   LIG    1        8.243  -5.216  16.300  0.00  0.00    +0.400 HD
ENDBRANCH  29  30
ENDBRANCH  23  29
ENDBRANCH  18  19
ENDBRANCH  17  18
ENDBRANCH   1  17
TORSDOF 10
