REMARK  Name = ZINCtj00001UqOBv.2
REMARK                            x       y       z     vdW  Elec       q    Type
REMARK                         _______ _______ _______ _____ _____    ______ ____
ROOT
ATOM      1  C   LIG    1       -4.083   5.241  -0.901  0.00  0.00    +0.040 C 
ENDROOT
BRANCH   1   2
ATOM      2  C   LIG    1       -5.249   4.916  -1.837  0.00  0.00    +0.030 C 
BRANCH   2   3
ATOM      3  C   LIG    1       -6.371   5.935  -1.627  0.00  0.00    +0.130 C 
BRANCH   3   6
ATOM      4  N   LIG    1       -9.479   5.154  -3.343  0.00  0.00    -0.280 N 
ATOM      5  C   LIG    1       -8.809   5.407  -2.195  0.00  0.00    +0.130 A 
ATOM      6  C   LIG    1       -7.519   5.615  -2.549  0.00  0.00    -0.030 A 
ATOM      7  N   LIG    1       -7.465   5.485  -3.880  0.00  0.00    -0.270 NA
ATOM      8  N   LIG    1       -8.642   5.207  -4.319  0.00  0.00    -0.070 NA
BRANCH   4  10
ATOM      9  C   LIG    1      -11.369   4.066  -2.235  0.00  0.00    +0.100 C 
ATOM     10  C   LIG    1      -10.911   4.868  -3.455  0.00  0.00    +0.310 C 
BRANCH  10  11
ATOM     11  C   LIG    1      -11.690   6.183  -3.523  0.00  0.00    +0.050 C 
ATOM     12  C   LIG    1      -13.237   6.160  -3.463  0.00  0.00    +0.030 C 
ATOM     13  C   LIG    1      -13.011   7.652  -3.098  0.00  0.00    -0.020 C 
ATOM     14  C   LIG    1      -12.313   8.182  -4.398  0.00  0.00    +0.220 C 
ATOM     15  C   LIG    1      -11.854   7.026  -2.226  0.00  0.00    +0.040 C 
ATOM     16  O   LIG    1      -11.394   7.080  -4.636  0.00  0.00    -0.350 OA
ENDBRANCH  10  11
ENDBRANCH   4  10
ENDBRANCH   3   6
ENDBRANCH   2   3
ENDBRANCH   1   2
BRANCH   1  17
ATOM     17  C   LIG    1       -2.961   4.222  -1.111  0.00  0.00    +0.030 C 
BRANCH  17  18
ATOM     18  C   LIG    1       -1.795   4.547  -0.175  0.00  0.00    +0.270 C 
BRANCH  18  19
ATOM     19  N   LIG    1       -0.718   3.569  -0.377  0.00  0.00    -0.390 N 
ATOM     20  C   LIG    1        0.446   3.951   0.434  0.00  0.00    +0.290 C 
ATOM     21  C   LIG    1        1.668   3.124   0.012  0.00  0.00    +0.340 C 
ATOM     22  N   LIG    1        1.277   1.714  -0.001  0.00  0.00    -0.480 N 
ATOM     23  C   LIG    1        2.038   0.608  -0.020  0.00  0.00    +0.230 A 
ATOM     24  N   LIG    1        1.224  -0.418  -0.016  0.00  0.00    -0.260 NA
ATOM     25  N   LIG    1        0.002  -0.004   0.002  0.00  0.00    -0.230 NA
ATOM     26  C   LIG    1       -0.015   1.292   0.009  0.00  0.00    +0.110 A 
ATOM     27  C   LIG    1       -1.193   2.233   0.020  0.00  0.00    +0.430 C 
ATOM     28  H   LIG    1       -0.457   3.555  -1.351  0.00  0.00    +0.430 HD
BRANCH  23  29
ATOM     29  C   LIG    1        3.544   0.556  -0.042  0.00  0.00    +0.330 C 
BRANCH  29  30
ATOM     30  O   LIG    1        4.001   0.549  -1.396  0.00  0.00    -0.560 OA
ATOM     31  H   LIG    1        4.963   0.517  -1.486  0.00  0.00    +0.400 HD
ENDBRANCH  29  30
ENDBRANCH  23  29
ENDBRANCH  18  19
ENDBRANCH  17  18
ENDBRANCH   1  17
TORSDOF 10
