REMARK  Name = ZINCrH000004joDQ.0
REMARK                            x       y       z     vdW  Elec       q    Type
REMARK                         _______ _______ _______ _____ _____    ______ ____
ROOT
ATOM      1  N   LIG    1        2.095   0.769  -0.014  0.00  0.00    -0.470 N 
ATOM      2  C   LIG    1        1.350  -0.400  -0.013  0.00  0.00    +0.100 A 
ATOM      3  C   LIG    1        1.676  -1.747  -0.023  0.00  0.00    +0.010 A 
ATOM      4  C   LIG    1        0.674  -2.696  -0.018  0.00  0.00    +0.130 A 
ATOM      5  C   LIG    1       -0.658  -2.311  -0.004  0.00  0.00    -0.680 A 
ATOM      6  C   LIG    1       -1.000  -0.977   0.006  0.00  0.00    +0.200 A 
ATOM      7  C   LIG    1        0.002  -0.004   0.002  0.00  0.00    +0.030 A 
ATOM      8  N   LIG    1       -0.016   1.355   0.009  0.00  0.00    -0.480 NA
ATOM      9  C   LIG    1        1.212   1.812   0.000  0.00  0.00    +0.260 A 
ENDROOT
BRANCH   5  10
ATOM     10  S   LIG    1       -1.922  -3.538   0.001  0.00  0.00    +2.710 S 
ATOM     11  O   LIG    1       -3.075  -2.924   0.560  0.00  0.00    -0.960 OA
ATOM     12  O   LIG    1       -1.335  -4.718   0.534  0.00  0.00    -0.960 OA
BRANCH  10  13
ATOM     13  N   LIG    1       -2.289  -3.871  -1.579  0.00  0.00    -1.250 NA
ATOM     14  H   LIG    1       -2.970  -4.529  -1.790  0.00  0.00    +0.420 HD
ATOM     15  H   LIG    1       -1.823  -3.409  -2.293  0.00  0.00    +0.420 HD
ENDBRANCH  10  13
ENDBRANCH   5  10
BRANCH   1  17
ATOM     16  C   LIG    1        4.052   0.909  -1.473  0.00  0.00    +0.040 C 
ATOM     17  C   LIG    1        3.556   0.868  -0.026  0.00  0.00    +0.300 C 
ENDBRANCH   1  17
BRANCH   9  18
ATOM     18  S   LIG    1        1.658   3.516   0.005  0.00  0.00    +0.060 S 
BRANCH  18  19
ATOM     19  C   LIG    1        0.013   4.271   0.026  0.00  0.00    +0.000 C 
ATOM     20  C   LIG    1       -0.691   3.923   1.338  0.00  0.00    +0.100 C 
BRANCH  19  21
ATOM     21  C   LIG    1        0.147   5.768  -0.091  0.00  0.00    +0.420 C 
ATOM     22  O   LIG    1        1.168   6.316   0.266  0.00  0.00    -0.430 OA
BRANCH  21  23
ATOM     23  C   LIG    1       -0.963   6.565  -0.639  0.00  0.00    -0.150 A 
ATOM     24  C   LIG    1       -0.843   7.954  -0.750  0.00  0.00    +0.090 A 
ATOM     25  C   LIG    1       -1.886   8.694  -1.265  0.00  0.00    +0.020 A 
ATOM     26  C   LIG    1       -3.050   8.066  -1.673  0.00  0.00    +0.070 A 
ATOM     27  C   LIG    1       -3.177   6.691  -1.567  0.00  0.00    -0.050 A 
ATOM     28 CL   LIG    1       -4.642   5.914  -2.081  0.00  0.00    -0.060 Cl
ATOM     29  C   LIG    1       -2.140   5.936  -1.058  0.00  0.00    +0.090 A 
ENDBRANCH  21  23
ENDBRANCH  19  21
ENDBRANCH  18  19
ENDBRANCH   9  18
TORSDOF 7
