REMARK  Name = ZINCvU00000007iV.0
REMARK                            x       y       z     vdW  Elec       q    Type
REMARK                         _______ _______ _______ _____ _____    ______ ____
ROOT
ATOM      1  C   LIG    1       -0.599   2.879  -1.784  0.00  0.00    +0.160 A 
ATOM      2  N   LIG    1       -1.576   3.072  -2.625  0.00  0.00    -0.270 NA
ATOM      3  N   LIG    1       -2.364   2.057  -2.625  0.00  0.00    -0.290 NA
ATOM      4  C   LIG    1       -1.927   1.152  -1.781  0.00  0.00    +0.150 A 
ATOM      5  N   LIG    1       -0.789   1.650  -1.214  0.00  0.00    -0.450 N 
ENDROOT
BRANCH   1   6
ATOM      6  C   LIG    1        0.530   3.833  -1.493  0.00  0.00    +0.270 C 
BRANCH   6   7
ATOM      7  N   LIG    1        1.228   4.162  -2.743  0.00  0.00    -0.520 NA
ATOM      8  C   LIG    1        0.301   4.729  -3.730  0.00  0.00    +0.220 C 
ATOM      9  C   LIG    1        1.919   2.984  -3.285  0.00  0.00    +0.190 C 
ENDBRANCH   6   7
BRANCH   6  11
ATOM     10  C   LIG    1        1.121   6.055  -0.514  0.00  0.00    +0.030 C 
ATOM     11  C   LIG    1       -0.031   5.113  -0.870  0.00  0.00    +0.040 C 
ENDBRANCH   6  11
ENDBRANCH   1   6
BRANCH   4  12
ATOM     12  S   LIG    1       -2.669  -0.410  -1.442  0.00  0.00    +0.040 S 
BRANCH  12  13
ATOM     13  C   LIG    1       -4.093  -0.330  -2.557  0.00  0.00    +0.260 C 
BRANCH  13  14
ATOM     14  C   LIG    1       -4.898  -1.598  -2.434  0.00  0.00    +0.190 A 
ATOM     15  N   LIG    1       -5.878  -1.793  -1.597  0.00  0.00    -0.450 NA
ATOM     16  C   LIG    1       -6.361  -3.033  -1.775  0.00  0.00    +0.170 A 
ATOM     17  C   LIG    1       -5.632  -3.617  -2.760  0.00  0.00    +0.010 A 
ATOM     18  O   LIG    1       -4.719  -2.707  -3.164  0.00  0.00    -0.190 OA
BRANCH  17  19
ATOM     19  C   LIG    1       -5.805  -4.987  -3.289  0.00  0.00    -0.020 A 
ATOM     20  C   LIG    1       -6.794  -5.821  -2.766  0.00  0.00    +0.040 A 
ATOM     21  C   LIG    1       -6.954  -7.096  -3.268  0.00  0.00    +0.020 A 
ATOM     22  C   LIG    1       -6.129  -7.552  -4.281  0.00  0.00    +0.020 A 
ATOM     23  C   LIG    1       -5.142  -6.732  -4.800  0.00  0.00    +0.010 A 
ATOM     24  C   LIG    1       -4.976  -5.453  -4.310  0.00  0.00    +0.030 A 
ENDBRANCH  17  19
ENDBRANCH  13  14
ENDBRANCH  12  13
ENDBRANCH   4  12
BRANCH   5  25
ATOM     25  C   LIG    1        0.056   1.001  -0.208  0.00  0.00    +0.370 C 
BRANCH  25  26
ATOM     26  C   LIG    1       -0.425   1.377   1.170  0.00  0.00    -0.130 A 
ATOM     27  C   LIG    1        0.090   2.494   1.801  0.00  0.00    +0.020 A 
ATOM     28  C   LIG    1       -0.354   2.841   3.063  0.00  0.00    +0.010 A 
ATOM     29  C   LIG    1       -1.306   2.066   3.698  0.00  0.00    +0.030 A 
ATOM     30  C   LIG    1       -1.818   0.946   3.069  0.00  0.00    +0.010 A 
ATOM     31  C   LIG    1       -1.377   0.602   1.805  0.00  0.00    +0.040 A 
ENDBRANCH  25  26
ENDBRANCH   5  25
TORSDOF 9
