REMARK  Name = ZINCpe000000VM0p.0
REMARK                            x       y       z     vdW  Elec       q    Type
REMARK                         _______ _______ _______ _____ _____    ______ ____
ROOT
ATOM      1  N   LIG    1        0.217   5.614   3.593  0.00  0.00    -0.520 NA
ATOM      2  C   LIG    1        1.463   5.976   2.903  0.00  0.00    +0.190 C 
ATOM      3  C   LIG    1        1.384   5.524   1.443  0.00  0.00    +0.180 C 
ATOM      4  N   LIG    1        1.162   4.072   1.394  0.00  0.00    -0.540 NA
ATOM      5  C   LIG    1       -0.084   3.710   2.084  0.00  0.00    +0.180 C 
ATOM      6  C   LIG    1       -0.005   4.162   3.544  0.00  0.00    +0.190 C 
ENDROOT
BRANCH   1   7
ATOM      7  C   LIG    1        0.224   6.099   4.980  0.00  0.00    +0.220 C 
BRANCH   7  10
ATOM      8  N   LIG    1       -1.382   6.308   6.850  0.00  0.00    -0.730 N 
ATOM      9  H   LIG    1       -0.666   6.691   7.381  0.00  0.00    +0.400 HD
ATOM     10  C   LIG    1       -1.149   5.929   5.577  0.00  0.00    +0.510 C 
ATOM     11  O   LIG    1       -2.045   5.451   4.914  0.00  0.00    -0.520 OA
BRANCH   8  12
ATOM     12  C   LIG    1       -2.717   6.144   7.431  0.00  0.00    +0.260 C 
BRANCH  12  13
ATOM     13  C   LIG    1       -2.711   6.649   8.875  0.00  0.00    +0.030 C 
BRANCH  13  14
ATOM     14  C   LIG    1       -4.105   6.477   9.481  0.00  0.00    +0.160 C 
BRANCH  14  16
ATOM     15  C   LIG    1       -5.360   6.832  11.492  0.00  0.00    +0.200 C 
ATOM     16  O   LIG    1       -4.099   6.949  10.830  0.00  0.00    -0.390 OA
ENDBRANCH  14  16
ENDBRANCH  13  14
ENDBRANCH  12  13
ENDBRANCH   8  12
ENDBRANCH   7  10
ENDBRANCH   1   7
BRANCH   4  17
ATOM     17  C   LIG    1        1.156   3.587   0.007  0.00  0.00    +0.230 C 
BRANCH  17  18
ATOM     18  C   LIG    1        1.173   2.080   0.002  0.00  0.00    -0.110 A 
ATOM     19  C   LIG    1        2.376   1.400  -0.011  0.00  0.00    +0.070 A 
ATOM     20  C   LIG    1        2.397   0.021  -0.021  0.00  0.00    -0.010 A 
ATOM     21  C   LIG    1        1.205  -0.699  -0.018  0.00  0.00    +0.110 A 
ATOM     22  O   LIG    1        0.997  -2.044  -0.037  0.00  0.00    -0.310 OA
ATOM     23  C   LIG    1       -0.341  -2.324   0.408  0.00  0.00    +0.240 C 
ATOM     24  C   LIG    1       -1.107  -1.038   0.018  0.00  0.00    +0.070 C 
ATOM     25  C   LIG    1        0.002  -0.004   0.002  0.00  0.00    -0.180 A 
ATOM     26  C   LIG    1       -0.017   1.373   0.010  0.00  0.00    +0.060 A 
ENDBRANCH  17  18
ENDBRANCH   4  17
TORSDOF 8
