REMARK  Name = ZINCvU00000004eP.0
REMARK                            x       y       z     vdW  Elec       q    Type
REMARK                         _______ _______ _______ _____ _____    ______ ____
ROOT
ATOM      1  N   LIG    1       -0.288   1.272  -2.443  0.00  0.00    -0.620 N 
ATOM      2  H   LIG    1        0.507   0.726  -2.543  0.00  0.00    +0.430 HD
ATOM      3  C   LIG    1       -0.742   1.585  -1.213  0.00  0.00    +0.510 C 
ATOM      4  O   LIG    1       -1.736   2.268  -1.088  0.00  0.00    -0.470 OA
ENDROOT
BRANCH   1   6
ATOM      5  C   LIG    1       -0.580   1.476  -4.860  0.00  0.00    -0.220 A 
ATOM      6  C   LIG    1       -0.959   1.732  -3.566  0.00  0.00    +0.080 A 
ATOM      7  S   LIG    1       -2.363   2.697  -3.530  0.00  0.00    +0.320 S 
ATOM      8  C   LIG    1       -2.459   2.761  -5.280  0.00  0.00    -0.240 A 
ATOM      9  C   LIG    1       -1.466   2.079  -5.832  0.00  0.00    +0.080 A 
BRANCH   8  10
ATOM     10  C   LIG    1       -3.526   3.494  -6.052  0.00  0.00    +0.070 C 
ATOM     11  C   LIG    1       -3.484   4.981  -5.695  0.00  0.00    +0.030 C 
ATOM     12  C   LIG    1       -4.899   2.921  -5.693  0.00  0.00    +0.030 C 
ENDBRANCH   8  10
BRANCH   5  13
ATOM     13  C   LIG    1        0.594   0.677  -5.218  0.00  0.00    +0.540 C 
ATOM     14  O   LIG    1        1.293   0.198  -4.345  0.00  0.00    -0.530 OA
BRANCH  13  15
ATOM     15  O   LIG    1        0.899   0.472  -6.515  0.00  0.00    -0.350 OA
BRANCH  15  17
ATOM     16  C   LIG    1        2.261  -0.452  -8.310  0.00  0.00    +0.070 C 
ATOM     17  C   LIG    1        2.076  -0.330  -6.796  0.00  0.00    +0.200 C 
ENDBRANCH  15  17
ENDBRANCH  13  15
ENDBRANCH   5  13
ENDBRANCH   1   6
BRANCH   3  18
ATOM     18  C   LIG    1       -0.013   1.086   0.008  0.00  0.00    +0.270 C 
BRANCH  18  19
ATOM     19  O   LIG    1       -0.682   1.547   1.184  0.00  0.00    -0.290 OA
BRANCH  19  20
ATOM     20  C   LIG    1       -0.148   1.182   2.380  0.00  0.00    +0.110 A 
ATOM     21  C   LIG    1       -0.743   1.599   3.558  0.00  0.00    +0.050 A 
ATOM     22  C   LIG    1       -0.195   1.218   4.779  0.00  0.00    -0.080 A 
ATOM     23  C   LIG    1        0.960   0.425   4.819  0.00  0.00    +0.050 A 
ATOM     24  O   LIG    1        1.285   0.205   6.113  0.00  0.00    -0.200 OA
ATOM     25  C   LIG    1        0.413   0.806   6.952  0.00  0.00    +0.090 A 
ATOM     26  C   LIG    1        0.336   0.862   8.339  0.00  0.00    +0.020 A 
ATOM     27  C   LIG    1       -0.683   1.563   8.947  0.00  0.00    +0.060 A 
ATOM     28  C   LIG    1       -1.640   2.219   8.188  0.00  0.00    +0.000 A 
ATOM     29  C   LIG    1       -1.580   2.175   6.811  0.00  0.00    +0.070 A 
ATOM     30  C   LIG    1        1.547   0.019   3.627  0.00  0.00    +0.070 A 
ATOM     31  C   LIG    1       -0.556   1.470   6.187  0.00  0.00    -0.130 A 
ATOM     32  C   LIG    1        0.997   0.395   2.420  0.00  0.00    -0.030 A 
ENDBRANCH  19  20
ENDBRANCH  18  19
ENDBRANCH   3  18
TORSDOF 8
