REMARK  Name = ZINCvU00000006Rp.0
REMARK                            x       y       z     vdW  Elec       q    Type
REMARK                         _______ _______ _______ _____ _____    ______ ____
ROOT
ATOM      1  C   LIG    1       -3.190   0.072  -0.076  0.00  0.00    +0.420 A 
ATOM      2  C   LIG    1       -4.407   0.024   0.567  0.00  0.00    -0.020 A 
ATOM      3  C   LIG    1       -5.267   1.113   0.545  0.00  0.00    +0.050 A 
ATOM      4  C   LIG    1       -4.891   2.270  -0.139  0.00  0.00    -0.040 A 
ATOM      5  C   LIG    1       -3.590   2.297  -0.816  0.00  0.00    +0.330 A 
ATOM      6  N   LIG    1       -2.990   3.237  -1.522  0.00  0.00    -0.490 NA
ATOM      7  C   LIG    1       -1.786   2.789  -1.948  0.00  0.00    +0.090 A 
ATOM      8  C   LIG    1       -0.766   3.364  -2.714  0.00  0.00    +0.050 A 
ATOM      9  C   LIG    1        0.372   2.641  -2.990  0.00  0.00    +0.030 A 
ATOM     10  C   LIG    1        0.517   1.346  -2.514  0.00  0.00    +0.010 A 
ATOM     11  C   LIG    1       -0.479   0.763  -1.757  0.00  0.00    +0.050 A 
ATOM     12  C   LIG    1       -1.636   1.474  -1.473  0.00  0.00    +0.020 A 
ATOM     13  N   LIG    1       -2.785   1.185  -0.757  0.00  0.00    -0.400 N 
ENDROOT
BRANCH   1  17
ATOM     14  N   LIG    1       -1.484  -3.599   0.572  0.00  0.00    -0.490 N 
ATOM     15  C   LIG    1       -2.563  -3.426  -0.409  0.00  0.00    +0.190 C 
ATOM     16  C   LIG    1       -2.424  -2.056  -1.081  0.00  0.00    +0.290 C 
ATOM     17  N   LIG    1       -2.364  -1.026  -0.034  0.00  0.00    -0.670 N 
ATOM     18  C   LIG    1       -1.394  -1.198   1.058  0.00  0.00    +0.290 C 
ATOM     19  C   LIG    1       -1.578  -2.605   1.649  0.00  0.00    +0.190 C 
BRANCH  14  26
ATOM     20  C   LIG    1        0.775  -5.246   0.041  0.00  0.00    +0.100 C 
ATOM     21  C   LIG    1       -0.397  -5.736   0.853  0.00  0.00    -0.060 A 
ATOM     22  C   LIG    1       -0.395  -7.018   1.365  0.00  0.00    +0.010 A 
ATOM     23  C   LIG    1       -1.470  -7.468   2.110  0.00  0.00    +0.000 A 
ATOM     24  C   LIG    1       -2.549  -6.636   2.345  0.00  0.00    +0.000 A 
ATOM     25  C   LIG    1       -2.554  -5.350   1.841  0.00  0.00    -0.020 A 
ATOM     26  C   LIG    1       -1.479  -4.897   1.088  0.00  0.00    +0.080 A 
ENDBRANCH  14  26
ENDBRANCH   1  17
BRANCH   3  27
ATOM     27  C   LIG    1       -6.595   1.047   1.253  0.00  0.00    +0.020 C 
ATOM     28  C   LIG    1       -6.366   0.792   2.744  0.00  0.00    +0.050 C 
ATOM     29  C   LIG    1       -7.431  -0.092   0.664  0.00  0.00    +0.050 C 
ENDBRANCH   3  27
BRANCH   4  30
ATOM     30  C   LIG    1       -5.759   3.408  -0.178  0.00  0.00    +0.270 C 
ATOM     31  N   LIG    1       -6.447   4.311  -0.210  0.00  0.00    -0.400 NA
ENDBRANCH   4  30
TORSDOF 4
