REMARK  Name = ZINCvU0000000GPL.2
REMARK                            x       y       z     vdW  Elec       q    Type
REMARK                         _______ _______ _______ _____ _____    ______ ____
ROOT
ATOM      1  C   LIG    1       -4.728  -3.890   0.293  0.00  0.00    +0.270 C 
ENDROOT
BRANCH   1   8
ATOM      2  F   LIG    1       -6.806  -2.874  -1.312  0.00  0.00    -0.130 F 
ATOM      3  C   LIG    1       -5.919  -3.704  -1.903  0.00  0.00    +0.120 A 
ATOM      4  C   LIG    1       -6.057  -4.019  -3.245  0.00  0.00    -0.010 A 
ATOM      5  C   LIG    1       -5.153  -4.866  -3.854  0.00  0.00    +0.060 A 
ATOM      6  C   LIG    1       -4.101  -5.404  -3.116  0.00  0.00    -0.070 A 
ATOM      7  C   LIG    1       -3.962  -5.080  -1.768  0.00  0.00    +0.080 A 
ATOM      8  C   LIG    1       -4.873  -4.237  -1.167  0.00  0.00    -0.160 A 
BRANCH   6   9
ATOM      9  C   LIG    1       -3.127  -6.315  -3.767  0.00  0.00    -0.050 A 
ATOM     10  C   LIG    1       -1.759  -6.088  -3.631  0.00  0.00    +0.050 A 
ATOM     11  C   LIG    1       -0.856  -6.941  -4.232  0.00  0.00    +0.050 A 
ATOM     12  C   LIG    1       -1.304  -8.015  -4.979  0.00  0.00    +0.030 A 
ATOM     13  C   LIG    1       -2.662  -8.245  -5.124  0.00  0.00    +0.070 A 
ATOM     14  F   LIG    1       -3.095  -9.296  -5.855  0.00  0.00    -0.130 F 
ATOM     15  C   LIG    1       -3.577  -7.399  -4.521  0.00  0.00    +0.080 A 
ATOM     16  F   LIG    1       -4.902  -7.623  -4.661  0.00  0.00    -0.120 F 
ENDBRANCH   6   9
ENDBRANCH   1   8
BRANCH   1  17
ATOM     17  N   LIG    1       -4.208  -2.522   0.421  0.00  0.00    -0.520 NA
ATOM     18  C   LIG    1       -2.838  -2.428  -0.099  0.00  0.00    +0.210 C 
ATOM     19  C   LIG    1       -2.371  -1.001  -0.079  0.00  0.00    -0.050 C 
ATOM     20  C   LIG    1       -3.194   0.023   0.034  0.00  0.00    -0.030 C 
ATOM     21  C   LIG    1       -4.683  -0.145   0.168  0.00  0.00    +0.080 C 
ATOM     22  C   LIG    1       -5.082  -1.558  -0.268  0.00  0.00    +0.180 C 
BRANCH  20  23
ATOM     23  C   LIG    1       -2.633   1.385   0.035  0.00  0.00    -0.190 A 
ATOM     24  C   LIG    1       -1.980   2.030  -1.005  0.00  0.00    +0.240 A 
ATOM     25  N   LIG    1       -1.621   3.249  -0.619  0.00  0.00    -0.550 NA
ATOM     26  C   LIG    1       -1.981   3.504   0.629  0.00  0.00    +0.260 A 
ATOM     27  N   LIG    1       -1.834   4.597   1.446  0.00  0.00    -0.500 N 
ATOM     28  H   LIG    1       -1.383   5.388   1.111  0.00  0.00    +0.420 HD
ATOM     29  C   LIG    1       -2.308   4.584   2.702  0.00  0.00    +0.330 A 
ATOM     30  C   LIG    1       -2.947   3.497   3.216  0.00  0.00    -0.080 A 
ATOM     31  C   LIG    1       -3.127   2.357   2.438  0.00  0.00    +0.180 A 
ATOM     32  C   LIG    1       -2.639   2.352   1.138  0.00  0.00    -0.150 A 
ENDBRANCH  20  23
ENDBRANCH   1  17
TORSDOF 4
