REMARK  Name = ZINCpe000000WGZV.0
REMARK                            x       y       z     vdW  Elec       q    Type
REMARK                         _______ _______ _______ _____ _____    ______ ____
ROOT
ATOM      1  C   LIG    1       -0.013   1.086   0.008  0.00  0.00    +0.000 C 
ATOM      2  C   LIG    1        1.423   1.617  -0.003  0.00  0.00    +0.010 C 
ATOM      3  C   LIG    1        2.140   1.153   1.268  0.00  0.00    +0.030 C 
ATOM      4  C   LIG    1        1.366   1.645   2.493  0.00  0.00    +0.170 C 
ATOM      5  N   LIG    1       -0.001   1.110   2.458  0.00  0.00    -0.520 NA
ATOM      6  C   LIG    1       -0.725   1.580   1.269  0.00  0.00    +0.180 C 
ENDROOT
BRANCH   1   7
ATOM      7  C   LIG    1       -0.754   1.593  -1.230  0.00  0.00    +0.260 C 
BRANCH   7   8
ATOM      8  N   LIG    1       -0.142   1.024  -2.433  0.00  0.00    -1.120 NA
ATOM      9  H   LIG    1        0.733   0.609  -2.382  0.00  0.00    +0.420 HD
BRANCH   8  11
ATOM     10  C   LIG    1       -1.044   2.861  -4.262  0.00  0.00    -0.280 C 
ATOM     11  S   LIG    1       -0.944   1.091  -3.881  0.00  0.00    +2.620 S 
ATOM     12  O   LIG    1       -2.233   0.569  -3.591  0.00  0.00    -0.960 OA
ATOM     13  O   LIG    1       -0.075   0.433  -4.793  0.00  0.00    -0.960 OA
ENDBRANCH   8  11
ENDBRANCH   7   8
ENDBRANCH   1   7
BRANCH   5  14
ATOM     14  C   LIG    1       -0.731   1.448   3.687  0.00  0.00    +0.210 C 
BRANCH  14  15
ATOM     15  C   LIG    1       -0.099   0.740   4.857  0.00  0.00    +0.520 C 
ATOM     16  N   LIG    1       -0.605   0.902   6.096  0.00  0.00    -0.620 N 
ATOM     17  C   LIG    1       -0.011   0.225   7.260  0.00  0.00    +0.290 C 
ATOM     18  C   LIG    1        0.541   1.298   8.197  0.00  0.00    +0.070 C 
ATOM     19  C   LIG    1       -0.472   2.392   8.415  0.00  0.00    -0.070 A 
ATOM     20  C   LIG    1       -0.318   3.199   9.535  0.00  0.00    +0.000 A 
ATOM     21  C   LIG    1       -1.205   4.225   9.788  0.00  0.00    +0.000 A 
ATOM     22  C   LIG    1       -2.256   4.455   8.920  0.00  0.00    +0.000 A 
ATOM     23  C   LIG    1       -2.413   3.652   7.808  0.00  0.00    +0.010 A 
ATOM     24  C   LIG    1       -1.525   2.616   7.556  0.00  0.00    -0.100 A 
ATOM     25  C   LIG    1       -1.765   1.766   6.339  0.00  0.00    +0.320 C 
ATOM     26  O   LIG    1        0.865   0.024   4.684  0.00  0.00    -0.520 OA
ENDBRANCH  14  15
ENDBRANCH   5  14
TORSDOF 5
