REMARK  Name = ZINCvU00000004l1.0
REMARK                            x       y       z     vdW  Elec       q    Type
REMARK                         _______ _______ _______ _____ _____    ______ ____
ROOT
ATOM      1  C   LIG    1       -1.609  -1.644   0.937  0.00  0.00    +0.170 A 
ATOM      2  N   LIG    1       -2.814  -2.037   0.588  0.00  0.00    -0.280 NA
ATOM      3  N   LIG    1       -3.164  -1.469  -0.511  0.00  0.00    -0.250 NA
ATOM      4  C   LIG    1       -2.207  -0.674  -0.930  0.00  0.00    +0.240 A 
ATOM      5  N   LIG    1       -1.182  -0.758  -0.014  0.00  0.00    -0.420 N 
ENDROOT
BRANCH   4   6
ATOM      6  C   LIG    1       -2.227   0.154  -2.154  0.00  0.00    -0.080 A 
ATOM      7  C   LIG    1       -1.037   0.667  -2.686  0.00  0.00    +0.070 A 
ATOM      8  C   LIG    1       -1.110   1.436  -3.834  0.00  0.00    -0.030 A 
ATOM      9  C   LIG    1       -2.343   1.672  -4.414  0.00  0.00    +0.290 A 
ATOM     10  N   LIG    1       -3.448   1.176  -3.891  0.00  0.00    -0.480 NA
ATOM     11  C   LIG    1       -3.430   0.434  -2.803  0.00  0.00    +0.320 A 
ENDBRANCH   4   6
BRANCH   5  12
ATOM     12  C   LIG    1        0.046  -0.082  -0.051  0.00  0.00    +0.100 A 
ATOM     13  C   LIG    1        0.087   1.295   0.123  0.00  0.00    +0.080 A 
ATOM     14  C   LIG    1        1.298   1.958   0.086  0.00  0.00    +0.050 A 
ATOM     15  C   LIG    1        2.468   1.252  -0.124  0.00  0.00    +0.100 A 
ATOM     16  C   LIG    1        2.430  -0.119  -0.298  0.00  0.00    -0.170 A 
ATOM     17  C   LIG    1        1.223  -0.788  -0.263  0.00  0.00    +0.100 A 
BRANCH  16  18
ATOM     18  C   LIG    1        3.708  -0.884  -0.528  0.00  0.00    +0.510 C 
ATOM     19  F   LIG    1        3.575  -2.179  -0.015  0.00  0.00    -0.170 F 
ATOM     20  F   LIG    1        4.764  -0.233   0.118  0.00  0.00    -0.170 F 
ATOM     21  F   LIG    1        3.971  -0.952  -1.900  0.00  0.00    -0.170 F 
ENDBRANCH  16  18
ENDBRANCH   5  12
BRANCH   1  22
ATOM     22  S   LIG    1       -0.714  -2.159   2.364  0.00  0.00    +0.030 S 
BRANCH  22  23
ATOM     23  C   LIG    1       -1.915  -3.301   3.093  0.00  0.00    +0.150 C 
BRANCH  23  29
ATOM     24  C   LIG    1       -0.608  -5.065   4.322  0.00  0.00    -0.010 A 
ATOM     25  C   LIG    1       -0.082  -5.593   5.503  0.00  0.00    +0.070 A 
ATOM     26  C   LIG    1       -0.307  -4.950   6.703  0.00  0.00    +0.030 A 
ATOM     27  C   LIG    1       -1.047  -3.781   6.737  0.00  0.00    +0.050 A 
ATOM     28  C   LIG    1       -1.566  -3.249   5.569  0.00  0.00    +0.040 A 
ATOM     29  C   LIG    1       -1.349  -3.882   4.363  0.00  0.00    -0.040 A 
BRANCH  24  31
ATOM     30  N   LIG    1       -0.205  -6.258   2.084  0.00  0.00    -0.400 NA
ATOM     31  C   LIG    1       -0.384  -5.731   3.074  0.00  0.00    +0.240 C 
ENDBRANCH  24  31
ENDBRANCH  23  29
ENDBRANCH  22  23
ENDBRANCH   1  22
TORSDOF 7
