REMARK  Name = ZINCrH000004reOL.0
REMARK                            x       y       z     vdW  Elec       q    Type
REMARK                         _______ _______ _______ _____ _____    ______ ____
ROOT
ATOM      1  C   LIG    1       -2.871   5.319   2.551  0.00  0.00    -0.070 A 
ATOM      2  N   LIG    1       -3.889   4.783   1.929  0.00  0.00    -0.210 NA
ATOM      3  N   LIG    1       -3.916   3.522   1.887  0.00  0.00    -0.260 NA
ATOM      4  C   LIG    1       -2.945   2.876   2.457  0.00  0.00    -0.010 A 
ATOM      5  S   LIG    1       -1.854   4.005   3.143  0.00  0.00    +0.280 S 
ENDROOT
BRANCH   1   8
ATOM      6  N   LIG    1       -3.489   7.661   2.228  0.00  0.00    -0.700 N 
ATOM      7  H   LIG    1       -4.278   7.361   1.750  0.00  0.00    +0.410 HD
ATOM      8  C   LIG    1       -2.622   6.760   2.730  0.00  0.00    +0.600 C 
ATOM      9  O   LIG    1       -1.633   7.136   3.330  0.00  0.00    -0.520 OA
BRANCH   6  10
ATOM     10  C   LIG    1       -3.241   9.094   2.406  0.00  0.00    +0.320 C 
BRANCH  10  15
ATOM     11  C   LIG    1       -7.496  12.110  -0.082  0.00  0.00    +0.090 C 
ATOM     12  C   LIG    1       -6.386  11.324   0.567  0.00  0.00    -0.070 A 
ATOM     13  C   LIG    1       -6.493  10.942   1.891  0.00  0.00    +0.010 A 
ATOM     14  C   LIG    1       -5.475  10.220   2.486  0.00  0.00    +0.040 A 
ATOM     15  C   LIG    1       -4.351   9.880   1.757  0.00  0.00    -0.120 A 
ATOM     16  C   LIG    1       -4.242  10.267   0.435  0.00  0.00    +0.040 A 
ATOM     17  C   LIG    1       -5.262  10.984  -0.162  0.00  0.00    +0.010 A 
ENDBRANCH  10  15
ENDBRANCH   6  10
ENDBRANCH   1   8
BRANCH   4  18
ATOM     18  C   LIG    1       -2.803   1.376   2.512  0.00  0.00    +0.330 C 
BRANCH  18  19
ATOM     19  N   LIG    1       -2.043   0.913   1.342  0.00  0.00    -0.490 N 
ATOM     20  C   LIG    1       -2.572   1.500   0.108  0.00  0.00    +0.200 C 
ATOM     21  C   LIG    1       -1.760   0.961  -1.077  0.00  0.00    +0.040 C 
ATOM     22  C   LIG    1       -2.071  -0.531  -1.223  0.00  0.00    +0.080 C 
ATOM     23  C   LIG    1       -1.983  -1.202   0.125  0.00  0.00    -0.120 A 
ATOM     24  C   LIG    1       -1.903  -2.584   0.163  0.00  0.00    +0.030 A 
ATOM     25  C   LIG    1       -1.827  -3.249   1.371  0.00  0.00    -0.020 A 
ATOM     26  C   LIG    1       -1.830  -2.533   2.553  0.00  0.00    +0.030 A 
ATOM     27  C   LIG    1       -1.908  -1.157   2.523  0.00  0.00    -0.030 A 
ATOM     28  C   LIG    1       -1.982  -0.479   1.306  0.00  0.00    +0.120 A 
ENDBRANCH  18  19
ENDBRANCH   4  18
TORSDOF 5
