REMARK  Name = ZINCc70000005PBO.0
REMARK                            x       y       z     vdW  Elec       q    Type
REMARK                         _______ _______ _______ _____ _____    ______ ____
ROOT
ATOM      1  C   LIG    1       -0.729   1.579   1.267  0.00  0.00    +0.230 C 
ENDROOT
BRANCH   1   5
ATOM      2  C   LIG    1        0.517  -0.933   3.873  0.00  0.00    +0.280 C 
ATOM      3  N   LIG    1       -0.119  -0.351   2.688  0.00  0.00    -0.730 N 
ATOM      4  H   LIG    1       -0.574  -0.924   2.051  0.00  0.00    +0.400 HD
ATOM      5  C   LIG    1       -0.074   0.981   2.485  0.00  0.00    +0.480 C 
ATOM      6  O   LIG    1        0.494   1.697   3.282  0.00  0.00    -0.530 OA
ENDBRANCH   1   5
BRANCH   1   7
ATOM      7  O   LIG    1       -0.647   3.004   1.334  0.00  0.00    -0.530 OA
ATOM      8  H   LIG    1        0.258   3.345   1.368  0.00  0.00    +0.390 HD
ENDBRANCH   1   7
BRANCH   1   9
ATOM      9  C   LIG    1       -0.013   1.086   0.008  0.00  0.00    +0.060 C 
BRANCH   9  10
ATOM     10  C   LIG    1       -0.753   1.593  -1.232  0.00  0.00    +0.000 C 
ATOM     11  C   LIG    1       -0.258   1.110  -2.596  0.00  0.00    +0.080 C 
ATOM     12  C   LIG    1       -0.004   2.554  -2.157  0.00  0.00    +0.200 C 
ATOM     13  F   LIG    1        1.304   2.903  -1.805  0.00  0.00    -0.160 F 
ATOM     14  F   LIG    1       -0.750   3.560  -2.783  0.00  0.00    -0.160 F 
ENDBRANCH   9  10
ENDBRANCH   1   9
TORSDOF 4
