REMARK  Name = ZINCkj000005juIC.0
REMARK                            x       y       z     vdW  Elec       q    Type
REMARK                         _______ _______ _______ _____ _____    ______ ____
ROOT
ATOM      1  N   LIG    1       -2.966   0.386  -2.955  0.00  0.00    -0.720 N 
ATOM      2  H   LIG    1       -3.074   1.126  -3.573  0.00  0.00    +0.400 HD
ATOM      3  C   LIG    1       -2.380   0.586  -1.759  0.00  0.00    +0.510 C 
ATOM      4  O   LIG    1       -2.245  -0.339  -0.987  0.00  0.00    -0.530 OA
ENDROOT
BRANCH   1   5
ATOM      5  C   LIG    1       -3.442  -0.950  -3.324  0.00  0.00    +0.260 C 
BRANCH   5   7
ATOM      6  C   LIG    1       -5.157   0.166  -4.758  0.00  0.00    +0.070 C 
ATOM      7  C   LIG    1       -4.062  -0.903  -4.721  0.00  0.00    +0.170 C 
BRANCH   7   8
ATOM      8  C   LIG    1       -4.661  -2.246  -5.051  0.00  0.00    -0.130 A 
ATOM      9  C   LIG    1       -5.152  -3.051  -4.039  0.00  0.00    +0.010 A 
ATOM     10  C   LIG    1       -5.705  -4.281  -4.342  0.00  0.00    +0.010 A 
ATOM     11  C   LIG    1       -5.759  -4.711  -5.655  0.00  0.00    +0.020 A 
ATOM     12  C   LIG    1       -5.264  -3.908  -6.665  0.00  0.00    +0.010 A 
ATOM     13  C   LIG    1       -4.715  -2.676  -6.363  0.00  0.00    +0.030 A 
ENDBRANCH   7   8
BRANCH   7  14
ATOM     14  O   LIG    1       -3.052  -0.584  -5.680  0.00  0.00    -0.550 OA
ATOM     15  H   LIG    1       -2.325  -1.220  -5.712  0.00  0.00    +0.380 HD
ENDBRANCH   7  14
ENDBRANCH   5   7
ENDBRANCH   1   5
BRANCH   3  16
ATOM     16  C   LIG    1       -1.890   1.960  -1.380  0.00  0.00    +0.060 C 
BRANCH  16  17
ATOM     17  C   LIG    1       -1.270   1.913   0.018  0.00  0.00    +0.040 C 
ATOM     18  C   LIG    1       -0.013   1.076   0.008  0.00  0.00    +0.090 C 
ATOM     19  C   LIG    1        1.054   1.829   0.002  0.00  0.00    -0.090 C 
ATOM     20  C   LIG    1        0.685   3.294   0.013  0.00  0.00    +0.200 C 
ATOM     21  C   LIG    1       -0.798   3.323   0.450  0.00  0.00    +0.080 C 
BRANCH  20  22
ATOM     22  N   LIG    1        0.834   3.869  -1.331  0.00  0.00    -0.630 N 
ATOM     23  H   LIG    1        1.796   3.795  -1.624  0.00  0.00    +0.440 HD
ATOM     24  H   LIG    1        0.562   4.841  -1.313  0.00  0.00    +0.440 HD
ATOM     25  H   LIG    1        0.245   3.367  -1.979  0.00  0.00    +0.420 HD
ENDBRANCH  20  22
ENDBRANCH  16  17
ENDBRANCH   3  16
TORSDOF 7
