REMARK  Name = ZINCbu0000000GHG.0
REMARK                            x       y       z     vdW  Elec       q    Type
REMARK                         _______ _______ _______ _____ _____    ______ ____
ROOT
ATOM      1  C   LIG    1       -0.013   1.086   0.008  0.00  0.00    +0.240 C 
ATOM      2  C   LIG    1       -0.718   1.572   1.248  0.00  0.00    +0.260 C 
ATOM      3  N   LIG    1       -0.143   1.826   2.396  0.00  0.00    -0.440 N 
ATOM      4  C   LIG    1       -1.055   2.238   3.279  0.00  0.00    +0.270 C 
ATOM      5  C   LIG    1       -2.279   2.242   2.643  0.00  0.00    +0.060 A 
ATOM      6  C   LIG    1       -3.587   2.574   3.050  0.00  0.00    +0.140 A 
ATOM      7  C   LIG    1       -4.607   2.468   2.157  0.00  0.00    -0.070 A 
ATOM      8  C   LIG    1       -4.343   2.030   0.844  0.00  0.00    +0.110 A 
ATOM      9  C   LIG    1       -3.090   1.715   0.465  0.00  0.00    +0.250 A 
ATOM     10 BR   LIG    1       -6.372   2.906   2.675  0.00  0.00    +0.020 Br
ATOM     11  H   LIG    1        0.805   1.730   2.578  0.00  0.00    +0.470 HD
ATOM     12  N   LIG    1       -2.047   1.820   1.348  0.00  0.00    -0.330 N 
ENDROOT
TORSDOF 0
