REMARK  Name = ZINCrH000004sNx3.0
REMARK                            x       y       z     vdW  Elec       q    Type
REMARK                         _______ _______ _______ _____ _____    ______ ____
ROOT
ATOM      1  N   LIG    1        3.534  -3.338  -2.760  0.00  0.00    -0.640 N 
ATOM      2  H   LIG    1        2.934  -4.018  -2.417  0.00  0.00    +0.420 HD
ATOM      3  C   LIG    1        4.100  -2.452  -1.917  0.00  0.00    +0.500 C 
ATOM      4  O   LIG    1        4.777  -1.545  -2.356  0.00  0.00    -0.490 OA
ENDROOT
BRANCH   1  10
ATOM      5  C   LIG    1        3.758  -0.692  -4.519  0.00  0.00    +0.180 C 
ATOM      6  C   LIG    1        3.920  -2.126  -4.953  0.00  0.00    +0.040 A 
ATOM      7  N   LIG    1        4.189  -2.550  -6.154  0.00  0.00    -0.350 NA
ATOM      8  O   LIG    1        4.255  -3.756  -6.207  0.00  0.00    +0.120 OA
ATOM      9  C   LIG    1        4.036  -4.316  -5.002  0.00  0.00    -0.000 A 
ATOM     10  C   LIG    1        3.811  -3.276  -4.134  0.00  0.00    +0.050 A 
BRANCH   9  11
ATOM     11  C   LIG    1        4.036  -5.757  -4.679  0.00  0.00    -0.020 A 
ATOM     12  C   LIG    1        3.889  -6.180  -3.356  0.00  0.00    +0.020 A 
ATOM     13  C   LIG    1        3.886  -7.527  -3.062  0.00  0.00    +0.020 A 
ATOM     14  C   LIG    1        4.038  -8.460  -4.073  0.00  0.00    +0.030 A 
ATOM     15  C   LIG    1        4.189  -8.048  -5.385  0.00  0.00    +0.020 A 
ATOM     16  C   LIG    1        4.189  -6.704  -5.694  0.00  0.00    +0.040 A 
ENDBRANCH   9  11
ENDBRANCH   1  10
BRANCH   3  17
ATOM     17  C   LIG    1        3.894  -2.587  -0.431  0.00  0.00    +0.340 C 
BRANCH  17  18
ATOM     18  N   LIG    1        4.607  -1.511   0.261  0.00  0.00    -0.530 N 
ATOM     19  C   LIG    1        3.973  -0.347   0.388  0.00  0.00    +0.530 C 
ATOM     20  C   LIG    1        4.562   0.846   1.087  0.00  0.00    +0.150 C 
ATOM     21  S   LIG    1        5.572   0.273   2.486  0.00  0.00    -0.080 S 
ATOM     22  C   LIG    1        6.471  -1.060   1.759  0.00  0.00    -0.130 A 
ATOM     23  C   LIG    1        7.743  -1.369   2.210  0.00  0.00    +0.080 A 
ATOM     24  C   LIG    1        8.444  -2.413   1.634  0.00  0.00    +0.020 A 
ATOM     25  C   LIG    1        7.873  -3.146   0.611  0.00  0.00    +0.050 A 
ATOM     26  C   LIG    1        6.604  -2.843   0.157  0.00  0.00    -0.010 A 
ATOM     27  O   LIG    1        2.860  -0.245  -0.084  0.00  0.00    -0.510 OA
ATOM     28  C   LIG    1        5.888  -1.797   0.727  0.00  0.00    +0.170 A 
ENDBRANCH  17  18
ENDBRANCH   3  17
TORSDOF 4
