REMARK  Name = ZINCqH0000007QRS.0
REMARK                            x       y       z     vdW  Elec       q    Type
REMARK                         _______ _______ _______ _____ _____    ______ ____
ROOT
ATOM      1  C   LIG    1       -1.242  -7.132  -2.239  0.00  0.00    +0.370 A 
ATOM      2  N   LIG    1       -1.722  -6.205  -3.029  0.00  0.00    -0.490 NA
ATOM      3  C   LIG    1       -2.392  -6.508  -4.166  0.00  0.00    +0.140 A 
ATOM      4  C   LIG    1       -2.584  -7.864  -4.517  0.00  0.00    -0.080 A 
ATOM      5  C   LIG    1       -2.040  -8.889  -3.620  0.00  0.00    +0.330 A 
ATOM      6  N   LIG    1       -2.026 -10.206  -3.624  0.00  0.00    -0.520 NA
ATOM      7  C   LIG    1       -1.383 -10.650  -2.548  0.00  0.00    +0.260 A 
ATOM      8  N   LIG    1       -0.970  -9.633  -1.833  0.00  0.00    -0.300 NA
ATOM      9  C   LIG    1       -1.162 -12.100  -2.204  0.00  0.00    +0.210 C 
ATOM     10  C   LIG    1       -3.272  -8.191  -5.683  0.00  0.00    +0.090 A 
ATOM     11  C   LIG    1       -3.763  -7.187  -6.489  0.00  0.00    +0.020 A 
ATOM     12  C   LIG    1       -3.576  -5.854  -6.147  0.00  0.00    +0.060 A 
ATOM     13  C   LIG    1       -2.900  -5.508  -5.000  0.00  0.00    +0.060 A 
ATOM     14  N   LIG    1       -1.375  -8.469  -2.500  0.00  0.00    -0.340 N 
ENDROOT
BRANCH   1  15
ATOM     15  S   LIG    1       -0.384  -6.638  -0.781  0.00  0.00    +0.060 S 
BRANCH  15  16
ATOM     16  C   LIG    1       -0.500  -4.839  -0.942  0.00  0.00    +0.100 C 
BRANCH  16  17
ATOM     17  C   LIG    1        0.197  -4.175   0.247  0.00  0.00    +0.210 C 
BRANCH  17  18
ATOM     18  O   LIG    1        0.105  -2.755   0.120  0.00  0.00    -0.300 OA
BRANCH  18  24
ATOM     19  C   LIG    1        0.626  -0.619   1.042  0.00  0.00    +0.100 A 
ATOM     20  C   LIG    1        1.207   0.137   2.048  0.00  0.00    -0.030 A 
ATOM     21  C   LIG    1        1.841  -0.490   3.105  0.00  0.00    +0.020 A 
ATOM     22  C   LIG    1        1.898  -1.870   3.161  0.00  0.00    +0.010 A 
ATOM     23  C   LIG    1        1.320  -2.630   2.160  0.00  0.00    -0.030 A 
ATOM     24  C   LIG    1        0.678  -2.009   1.102  0.00  0.00    +0.100 A 
BRANCH  19  26
ATOM     25  C   LIG    1       -0.017   1.425   0.010  0.00  0.00    +0.250 C 
ATOM     26  O   LIG    1        0.002  -0.004   0.002  0.00  0.00    -0.310 OA
ENDBRANCH  19  26
ENDBRANCH  18  24
ENDBRANCH  17  18
ENDBRANCH  16  17
ENDBRANCH  15  16
ENDBRANCH   1  15
TORSDOF 6
