REMARK  Name = ZINCpk00000e9Qh3.0
REMARK                            x       y       z     vdW  Elec       q    Type
REMARK                         _______ _______ _______ _____ _____    ______ ____
ROOT
ATOM      1  N   LIG    1        3.132   7.016   1.386  0.00  0.00    -0.690 N 
ATOM      2  H   LIG    1        2.816   6.466   2.120  0.00  0.00    +0.420 HD
ENDROOT
BRANCH   1   5
ATOM      3  C   LIG    1        5.128   9.452   3.003  0.00  0.00    +0.290 A 
ATOM      4  N   LIG    1        4.340   8.407   2.865  0.00  0.00    -0.570 NA
ATOM      5  C   LIG    1        3.966   8.105   1.639  0.00  0.00    +0.540 A 
ATOM      6  N   LIG    1        4.408   8.857   0.667  0.00  0.00    -0.540 NA
ATOM      7  S   LIG    1        5.371  10.047   1.405  0.00  0.00    +0.200 S 
BRANCH   3  12
ATOM      8  C   LIG    1        6.588  12.490   7.431  0.00  0.00    +0.190 C 
ATOM      9  N   LIG    1        6.035  11.947   6.182  0.00  0.00    -0.550 NA
ATOM     10  C   LIG    1        7.106  11.627   5.228  0.00  0.00    +0.210 C 
ATOM     11  C   LIG    1        6.486  11.141   3.915  0.00  0.00    +0.210 C 
ATOM     12  N   LIG    1        5.649   9.963   4.178  0.00  0.00    -0.430 N 
ATOM     13  C   LIG    1        4.578  10.284   5.133  0.00  0.00    +0.230 C 
ATOM     14  C   LIG    1        5.198  10.769   6.445  0.00  0.00    +0.190 C 
ENDBRANCH   3  12
ENDBRANCH   1   5
BRANCH   1  15
ATOM     15  C   LIG    1        2.732   6.703   0.012  0.00  0.00    +0.420 C 
BRANCH  15  16
ATOM     16  C   LIG    1        1.837   5.490   0.013  0.00  0.00    -0.010 A 
ATOM     17  N   LIG    1        2.211   4.230   0.008  0.00  0.00    -0.260 NA
ATOM     18  N   LIG    1        1.161   3.488   0.009  0.00  0.00    -0.100 N 
ATOM     19  N   LIG    1        0.095   4.206   0.023  0.00  0.00    -0.280 NA
ATOM     20  C   LIG    1        0.440   5.474   0.027  0.00  0.00    +0.220 A 
BRANCH  18  21
ATOM     21  C   LIG    1        1.177   2.086   0.002  0.00  0.00    +0.140 A 
ATOM     22  C   LIG    1       -0.017   1.377   0.010  0.00  0.00    +0.040 A 
ATOM     23  C   LIG    1        0.002  -0.004   0.002  0.00  0.00    +0.040 A 
ATOM     24  C   LIG    1        1.208  -0.680  -0.013  0.00  0.00    +0.020 A 
ATOM     25  C   LIG    1        2.398   0.023  -0.021  0.00  0.00    +0.040 A 
ATOM     26  C   LIG    1        2.386   1.404  -0.014  0.00  0.00    +0.040 A 
ENDBRANCH  18  21
ENDBRANCH  15  16
ENDBRANCH   1  15
TORSDOF 5
