REMARK  Name = ZINCqH0000005CvN.0
REMARK                            x       y       z     vdW  Elec       q    Type
REMARK                         _______ _______ _______ _____ _____    ______ ____
ROOT
ATOM      1  N   LIG    1       -0.514  -3.275   3.467  0.00  0.00    -0.680 N 
ATOM      2  H   LIG    1        0.454  -3.258   3.522  0.00  0.00    +0.410 HD
ATOM      3  C   LIG    1       -1.126  -3.046   2.289  0.00  0.00    +0.700 C 
ATOM      4  N   LIG    1       -0.400  -2.692   1.210  0.00  0.00    -0.620 N 
ATOM      5  C   LIG    1        1.055  -2.557   1.318  0.00  0.00    +0.280 C 
ATOM      6  O   LIG    1       -2.334  -3.158   2.199  0.00  0.00    -0.570 OA
ENDROOT
BRANCH   1  10
ATOM      7  C   LIG    1       -2.783  -4.053   6.879  0.00  0.00    +0.140 A 
ATOM      8  C   LIG    1       -1.544  -4.658   6.716  0.00  0.00    +0.010 A 
ATOM      9  C   LIG    1       -0.793  -4.400   5.587  0.00  0.00    +0.000 A 
ATOM     10  C   LIG    1       -1.277  -3.537   4.614  0.00  0.00    +0.160 A 
ATOM     11  C   LIG    1       -2.514  -2.928   4.779  0.00  0.00    +0.040 A 
ATOM     12  C   LIG    1       -3.267  -3.189   5.906  0.00  0.00    +0.040 A 
BRANCH   7  14
ATOM     13  C   LIG    1       -4.888  -4.385   7.940  0.00  0.00    +0.650 C 
ATOM     14  N   LIG    1       -3.545  -4.315   8.025  0.00  0.00    -0.650 N 
ATOM     15  H   LIG    1       -3.106  -4.446   8.880  0.00  0.00    +0.420 HD
ATOM     16  O   LIG    1       -5.444  -4.138   6.888  0.00  0.00    -0.550 OA
BRANCH  13  18
ATOM     17  C   LIG    1       -7.056  -4.782   8.856  0.00  0.00    +0.310 C 
ATOM     18  O   LIG    1       -5.615  -4.728   9.021  0.00  0.00    -0.370 OA
ENDBRANCH  13  18
ENDBRANCH   7  14
ENDBRANCH   1  10
BRANCH   4  19
ATOM     19  C   LIG    1       -1.065  -2.444  -0.072  0.00  0.00    +0.340 C 
BRANCH  19  20
ATOM     20  C   LIG    1       -1.453  -0.967  -0.167  0.00  0.00    +0.180 C 
BRANCH  20  21
ATOM     21  O   LIG    1       -0.270  -0.165  -0.193  0.00  0.00    -0.310 OA
BRANCH  21  22
ATOM     22  C   LIG    1       -0.439   1.181  -0.277  0.00  0.00    +0.120 A 
ATOM     23  C   LIG    1       -1.717   1.718  -0.339  0.00  0.00    -0.070 A 
ATOM     24  C   LIG    1       -1.886   3.087  -0.419  0.00  0.00    +0.040 A 
ATOM     25  C   LIG    1       -0.783   3.921  -0.448  0.00  0.00    -0.130 A 
ATOM     26  C   LIG    1        0.491   3.387  -0.392  0.00  0.00    +0.050 A 
ATOM     27  C   LIG    1       -0.970   5.413  -0.541  0.00  0.00    +0.090 C 
ATOM     28  C   LIG    1        0.666   2.019  -0.307  0.00  0.00    -0.020 A 
ENDBRANCH  21  22
ENDBRANCH  20  21
ENDBRANCH  19  20
ENDBRANCH   4  19
TORSDOF 7
