REMARK  Name = ZINCnE000004RciA.0
REMARK                            x       y       z     vdW  Elec       q    Type
REMARK                         _______ _______ _______ _____ _____    ______ ____
ROOT
ATOM      1  N   LIG    1       -3.473   1.448   0.163  0.00  0.00    -0.720 N 
ATOM      2  H   LIG    1       -3.322   2.400   0.273  0.00  0.00    +0.400 HD
ATOM      3  C   LIG    1       -2.430   0.595   0.161  0.00  0.00    +0.570 C 
ATOM      4  O   LIG    1       -2.619  -0.597   0.024  0.00  0.00    -0.540 OA
ENDROOT
BRANCH   3   5
ATOM      5  C   LIG    1       -1.051   1.111   0.326  0.00  0.00    -0.120 A 
ATOM      6  C   LIG    1        0.029   0.228   0.324  0.00  0.00    +0.050 A 
ATOM      7  C   LIG    1        1.313   0.705   0.472  0.00  0.00    +0.070 A 
ATOM      8  C   LIG    1        1.534   2.076   0.629  0.00  0.00    -0.140 A 
ATOM      9  C   LIG    1        0.452   2.962   0.637  0.00  0.00    +0.120 A 
ATOM     10  F   LIG    1        0.663   4.287   0.789  0.00  0.00    -0.120 F 
ATOM     11  C   LIG    1       -0.835   2.479   0.489  0.00  0.00    -0.010 A 
BRANCH   8  12
ATOM     12  C   LIG    1        2.910   2.588   0.787  0.00  0.00    +0.520 C 
ATOM     13  O   LIG    1        3.103   3.788   0.925  0.00  0.00    -0.670 OA
ATOM     14  O   LIG    1        3.856   1.813   0.780  0.00  0.00    -0.680 OA
ENDBRANCH   8  12
ENDBRANCH   3   5
BRANCH   1  15
ATOM     15  C   LIG    1       -4.837   0.937   0.000  0.00  0.00    +0.240 C 
ATOM     16  C   LIG    1       -5.150   0.788  -1.490  0.00  0.00    +0.020 C 
BRANCH  15  18
ATOM     17  C   LIG    1       -7.244   1.347   0.529  0.00  0.00    +0.040 C 
ATOM     18  C   LIG    1       -5.827   1.916   0.634  0.00  0.00    +0.020 C 
BRANCH  18  19
ATOM     19  C   LIG    1       -5.474   2.119   2.085  0.00  0.00    -0.080 A 
ATOM     20  C   LIG    1       -5.444   1.039   2.947  0.00  0.00    +0.010 A 
ATOM     21  C   LIG    1       -5.115   1.225   4.277  0.00  0.00    +0.000 A 
ATOM     22  C   LIG    1       -4.825   2.493   4.746  0.00  0.00    +0.000 A 
ATOM     23  C   LIG    1       -4.860   3.574   3.885  0.00  0.00    +0.000 A 
ATOM     24  C   LIG    1       -5.184   3.387   2.554  0.00  0.00    +0.000 A 
ENDBRANCH  18  19
ENDBRANCH  15  18
ENDBRANCH   1  15
TORSDOF 5
