REMARK  Name = ZINCrD000000Atvj.0
REMARK                            x       y       z     vdW  Elec       q    Type
REMARK                         _______ _______ _______ _____ _____    ______ ____
ROOT
ATOM      1  O   LIG    1        4.794   7.428  -0.007  0.00  0.00    -0.480 OA
ATOM      2  C   LIG    1        5.482   6.429  -0.018  0.00  0.00    +0.550 C 
ATOM      3  N   LIG    1        6.825   6.535  -0.029  0.00  0.00    -0.640 N 
ATOM      4  H   LIG    1        7.375   5.737  -0.038  0.00  0.00    +0.410 HD
ENDROOT
BRANCH   3   5
ATOM      5  C   LIG    1        7.425   7.795  -0.029  0.00  0.00    +0.300 A 
ATOM      6  C   LIG    1        6.779   8.993  -0.024  0.00  0.00    -0.100 A 
ATOM      7  C   LIG    1        7.747  10.001  -0.022  0.00  0.00    +0.250 A 
ATOM      8  N   LIG    1        8.928   9.437  -0.036  0.00  0.00    -0.280 NA
ATOM      9  N   LIG    1        8.753   8.048  -0.040  0.00  0.00    -0.380 N 
BRANCH   9  10
ATOM     10  C   LIG    1        9.822   7.045  -0.054  0.00  0.00    +0.390 C 
BRANCH  10  11
ATOM     11  C   LIG    1       10.175   6.707  -1.479  0.00  0.00    -0.110 A 
ATOM     12  C   LIG    1       11.156   7.425  -2.137  0.00  0.00    +0.060 A 
ATOM     13  C   LIG    1       11.481   7.114  -3.444  0.00  0.00    +0.040 A 
ATOM     14  C   LIG    1       10.826   6.086  -4.095  0.00  0.00    +0.040 A 
ATOM     15  C   LIG    1        9.843   5.367  -3.437  0.00  0.00    -0.040 A 
ATOM     16 CL   LIG    1        9.019   4.076  -4.253  0.00  0.00    -0.060 Cl
ATOM     17  C   LIG    1        9.522   5.675  -2.127  0.00  0.00    +0.030 A 
ENDBRANCH  10  11
ENDBRANCH   9  10
ENDBRANCH   3   5
BRANCH   2  18
ATOM     18  C   LIG    1        4.834   5.068  -0.018  0.00  0.00    +0.110 C 
BRANCH  18  19
ATOM     19  S   LIG    1        3.030   5.257  -0.000  0.00  0.00    +0.090 S 
BRANCH  19  20
ATOM     20  C   LIG    1        2.457   3.590  -0.003  0.00  0.00    +0.100 A 
ATOM     21  N   LIG    1        3.205   2.510  -0.015  0.00  0.00    -0.250 NA
ATOM     22  N   LIG    1        2.467   1.456  -0.013  0.00  0.00    -0.280 NA
ATOM     23  C   LIG    1        1.194   1.805   0.000  0.00  0.00    +0.200 A 
ATOM     24  C   LIG    1       -0.013   1.076   0.008  0.00  0.00    +0.080 A 
ATOM     25  C   LIG    1       -1.194   1.747   0.017  0.00  0.00    +0.070 A 
ATOM     26  C   LIG    1       -1.201   3.155   0.031  0.00  0.00    +0.030 A 
ATOM     27  C   LIG    1       -0.042   3.843   0.022  0.00  0.00    +0.240 A 
ATOM     28  N   LIG    1        1.156   3.183   0.008  0.00  0.00    -0.370 N 
ENDBRANCH  19  20
ENDBRANCH  18  19
ENDBRANCH   2  18
TORSDOF 6
