REMARK  Name = ZINC650000002oCd.0
REMARK                            x       y       z     vdW  Elec       q    Type
REMARK                         _______ _______ _______ _____ _____    ______ ____
ROOT
ATOM      1  CA  LIG    1        1.317  -0.740  -0.015  0.00  0.00    +0.220 C 
ENDROOT
BRANCH   1   2
ATOM      2  N   LIG    1        1.447  -1.483  -1.275  0.00  0.00    -0.630 N 
ATOM      3  H1  LIG    1        2.327  -1.975  -1.286  0.00  0.00    +0.440 HD
ATOM      4  H2  LIG    1        1.412  -0.838  -2.050  0.00  0.00    +0.440 HD
ATOM      5  H3  LIG    1        0.690  -2.145  -1.354  0.00  0.00    +0.430 HD
ENDBRANCH   1   2
BRANCH   1   7
ATOM      6  C   LIG    1       -0.016   1.306   0.009  0.00  0.00    +0.150 C 
ATOM      7  C   LIG    1        0.002  -0.004   0.002  0.00  0.00    -0.100 C 
ENDBRANCH   1   7
BRANCH   1   8
ATOM      8  C   LIG    1        1.370  -1.717   1.161  0.00  0.00    +0.220 C 
BRANCH   8   9
ATOM      9  O   LIG    1        2.660  -2.330   1.215  0.00  0.00    -0.580 OA
ATOM     10  H   LIG    1        2.765  -2.963   1.938  0.00  0.00    +0.410 HD
ENDBRANCH   8   9
ENDBRANCH   1   8
TORSDOF 4
