REMARK  Name = ZINCtV00000tRRTh.0
REMARK                            x       y       z     vdW  Elec       q    Type
REMARK                         _______ _______ _______ _____ _____    ______ ____
ROOT
ATOM      1  N   LIG    1       -0.513   2.020  -1.229  0.00  0.00    -0.850 N 
ATOM      2  N   LIG    1       -1.587   2.677  -0.634  0.00  0.00    -0.200 NA
ATOM      3  C   LIG    1       -1.630   2.563   0.648  0.00  0.00    +0.140 C 
ATOM      4  C   LIG    1       -0.460   1.724   1.122  0.00  0.00    +0.100 C 
ATOM      5  C   LIG    1        0.285   1.366  -0.179  0.00  0.00    +0.270 C 
ENDROOT
BRANCH   3   6
ATOM      6  C   LIG    1       -2.659   3.158   1.522  0.00  0.00    -0.030 A 
ATOM      7  C   LIG    1       -2.605   2.960   2.904  0.00  0.00    +0.070 A 
ATOM      8  C   LIG    1       -3.567   3.523   3.716  0.00  0.00    +0.030 A 
ATOM      9  C   LIG    1       -4.591   4.273   3.164  0.00  0.00    +0.070 A 
ATOM     10  C   LIG    1       -4.653   4.469   1.795  0.00  0.00    -0.090 A 
ATOM     11 BR   LIG    1       -6.056   5.497   1.052  0.00  0.00    -0.040 Br
ATOM     12  C   LIG    1       -3.694   3.916   0.971  0.00  0.00    +0.100 A 
ENDBRANCH   3   6
BRANCH   5  13
ATOM     13  C   LIG    1        0.307  -0.127  -0.383  0.00  0.00    -0.100 A 
ATOM     14  C   LIG    1        1.485  -0.831  -0.211  0.00  0.00    +0.050 A 
ATOM     15  C   LIG    1        1.506  -2.200  -0.398  0.00  0.00    +0.030 A 
ATOM     16  C   LIG    1        0.350  -2.867  -0.756  0.00  0.00    +0.060 A 
ATOM     17  C   LIG    1       -0.829  -2.163  -0.928  0.00  0.00    -0.090 A 
ATOM     18 BR   LIG    1       -2.412  -3.075  -1.419  0.00  0.00    -0.040 Br
ATOM     19  C   LIG    1       -0.851  -0.794  -0.737  0.00  0.00    +0.050 A 
ENDBRANCH   5  13
BRANCH   1  20
ATOM     20  S   LIG    1       -0.186   1.981  -2.852  0.00  0.00    +2.710 S 
ATOM     21  O   LIG    1       -1.433   2.136  -3.515  0.00  0.00    -0.930 OA
ATOM     22  O   LIG    1        0.673   0.869  -3.062  0.00  0.00    -0.930 OA
BRANCH  20  29
ATOM     23  C   LIG    1       -1.212   4.813  -2.567  0.00  0.00    +0.110 C 
ATOM     24  C   LIG    1        0.204   4.674  -3.066  0.00  0.00    +0.030 A 
ATOM     25  C   LIG    1        0.947   5.802  -3.357  0.00  0.00    -0.020 A 
ATOM     26  C   LIG    1        2.244   5.675  -3.820  0.00  0.00    +0.080 A 
ATOM     27  C   LIG    1        2.798   4.420  -3.987  0.00  0.00    -0.020 A 
ATOM     28  C   LIG    1        2.056   3.292  -3.691  0.00  0.00    +0.120 A 
ATOM     29  C   LIG    1        0.760   3.419  -3.228  0.00  0.00    -0.690 A 
ENDBRANCH  20  29
ENDBRANCH   1  20
TORSDOF 4
