REMARK  Name = ZINCqH0000002Y2u.0
REMARK                            x       y       z     vdW  Elec       q    Type
REMARK                         _______ _______ _______ _____ _____    ______ ____
ROOT
ATOM      1  N   LIG    1       -0.611   2.035   1.148  0.00  0.00    -0.600 N 
ATOM      2  C   LIG    1       -1.956   2.100   1.097  0.00  0.00    +0.600 C 
ATOM      3  O   LIG    1       -2.592   2.360   2.102  0.00  0.00    -0.520 OA
ENDROOT
BRANCH   2   4
ATOM      4  C   LIG    1       -2.654   1.858  -0.170  0.00  0.00    -0.280 A 
ATOM      5  C   LIG    1       -3.688   0.929  -0.394  0.00  0.00    +0.150 A 
ATOM      6  C   LIG    1       -4.339   0.007   0.438  0.00  0.00    -0.040 A 
ATOM      7  C   LIG    1       -5.330  -0.776  -0.081  0.00  0.00    +0.100 A 
ATOM      8  C   LIG    1       -5.673  -0.644  -1.433  0.00  0.00    +0.020 A 
ATOM      9  C   LIG    1       -5.032   0.251  -2.217  0.00  0.00    +0.300 A 
ATOM     10 CL   LIG    1       -3.892  -0.136   2.109  0.00  0.00    -0.010 Cl
ATOM     11  N   LIG    1       -4.042   1.038  -1.708  0.00  0.00    -0.260 N 
ATOM     12  N   LIG    1       -3.236   2.024  -2.291  0.00  0.00    -0.300 NA
ATOM     13  C   LIG    1       -2.423   2.513  -1.391  0.00  0.00    +0.320 A 
ENDBRANCH   2   4
BRANCH   1  15
ATOM     14  C   LIG    1        0.189   0.082  -0.087  0.00  0.00    +0.020 C 
ATOM     15  C   LIG    1        0.147   1.610  -0.031  0.00  0.00    +0.270 C 
ENDBRANCH   1  15
BRANCH   1  16
ATOM     16  C   LIG    1        0.093   2.389   2.383  0.00  0.00    +0.260 C 
BRANCH  16  17
ATOM     17  C   LIG    1        0.942   3.639   2.146  0.00  0.00    +0.080 C 
BRANCH  17  18
ATOM     18  C   LIG    1        0.041   4.811   1.850  0.00  0.00    -0.080 A 
ATOM     19  C   LIG    1       -0.317   5.095   0.546  0.00  0.00    +0.010 A 
ATOM     20  C   LIG    1       -1.148   6.166   0.275  0.00  0.00    +0.000 A 
ATOM     21  C   LIG    1       -1.611   6.960   1.308  0.00  0.00    +0.000 A 
ATOM     22  C   LIG    1       -1.248   6.679   2.612  0.00  0.00    +0.000 A 
ATOM     23  C   LIG    1       -0.422   5.604   2.883  0.00  0.00    +0.010 A 
ENDBRANCH  17  18
ENDBRANCH  16  17
BRANCH  16  24
ATOM     24  C   LIG    1        0.998   1.230   2.805  0.00  0.00    +0.170 C 
BRANCH  24  25
ATOM     25  O   LIG    1        2.039   1.063   1.841  0.00  0.00    -0.380 OA
ATOM     26  C   LIG    1        2.945   0.000   2.142  0.00  0.00    +0.200 C 
ENDBRANCH  24  25
ENDBRANCH  16  24
ENDBRANCH   1  16
TORSDOF 7
