REMARK  Name = ZINCqH0000002x4X.0
REMARK                            x       y       z     vdW  Elec       q    Type
REMARK                         _______ _______ _______ _____ _____    ______ ____
ROOT
ATOM      1  N   LIG    1       -1.854   2.692  -0.716  0.00  0.00    -0.530 N 
ATOM      2  C   LIG    1       -1.920   2.793   0.618  0.00  0.00    +0.530 C 
ATOM      3  C   LIG    1       -0.779   2.011   1.233  0.00  0.00    +0.110 C 
ATOM      4  C   LIG    1       -0.035   1.436   0.011  0.00  0.00    +0.260 C 
ATOM      5  O   LIG    1       -2.760   3.412   1.235  0.00  0.00    -0.460 OA
ATOM      6  C   LIG    1       -0.830   1.952  -1.169  0.00  0.00    +0.510 C 
ATOM      7  O   LIG    1       -0.580   1.732  -2.334  0.00  0.00    -0.450 OA
ENDROOT
BRANCH   1  11
ATOM      8  C   LIG    1       -4.600   4.532  -3.256  0.00  0.00    -0.070 A 
ATOM      9  C   LIG    1       -3.284   4.957  -3.239  0.00  0.00    +0.020 A 
ATOM     10  C   LIG    1       -2.372   4.349  -2.398  0.00  0.00    +0.030 A 
ATOM     11  C   LIG    1       -2.777   3.311  -1.570  0.00  0.00    +0.100 A 
ATOM     12  C   LIG    1       -4.098   2.884  -1.593  0.00  0.00    +0.020 A 
ATOM     13  C   LIG    1       -5.007   3.499  -2.432  0.00  0.00    +0.020 A 
BRANCH   8  14
ATOM     14  C   LIG    1       -5.593   5.197  -4.174  0.00  0.00    +0.080 C 
BRANCH  14  15
ATOM     15  C   LIG    1       -5.609   4.470  -5.520  0.00  0.00    +0.000 C 
BRANCH  15  17
ATOM     16  C   LIG    1       -6.632   4.418  -7.799  0.00  0.00    +0.000 C 
ATOM     17  C   LIG    1       -6.617   5.145  -6.453  0.00  0.00    -0.010 C 
ENDBRANCH  15  17
ENDBRANCH  14  15
ENDBRANCH   8  14
ENDBRANCH   1  11
BRANCH   4  18
ATOM     18  N   LIG    1       -0.050  -0.029   0.041  0.00  0.00    -0.730 N 
ATOM     19  H   LIG    1       -0.736  -0.497   0.542  0.00  0.00    +0.410 HD
BRANCH  18  20
ATOM     20  C   LIG    1        0.925  -0.753  -0.655  0.00  0.00    +0.170 A 
ATOM     21  C   LIG    1        1.903  -0.084  -1.378  0.00  0.00    -0.020 A 
ATOM     22  C   LIG    1        2.869  -0.799  -2.058  0.00  0.00    -0.030 A 
ATOM     23  C   LIG    1        2.854  -2.186  -2.030  0.00  0.00    +0.080 A 
ATOM     24  C   LIG    1        1.874  -2.855  -1.313  0.00  0.00    +0.020 A 
ATOM     25  C   LIG    1        0.911  -2.141  -0.626  0.00  0.00    -0.010 A 
BRANCH  23  26
ATOM     26  O   LIG    1        3.802  -2.890  -2.705  0.00  0.00    -0.320 OA
ATOM     27  C   LIG    1        4.782  -2.136  -3.422  0.00  0.00    +0.230 C 
ENDBRANCH  23  26
ENDBRANCH  18  20
ENDBRANCH   4  18
TORSDOF 7
