REMARK  Name = ZINCqH00000390Wj.0
REMARK                            x       y       z     vdW  Elec       q    Type
REMARK                         _______ _______ _______ _____ _____    ______ ____
ROOT
ATOM      1  C   LIG    1        5.375   2.655  -3.018  0.00  0.00    +0.220 C 
ATOM      2  C   LIG    1        5.134   1.980  -1.666  0.00  0.00    +0.190 C 
ATOM      3  N   LIG    1        3.795   1.372  -1.659  0.00  0.00    -0.550 NA
ATOM      4  C   LIG    1        3.664   0.388  -2.744  0.00  0.00    +0.170 C 
ATOM      5  C   LIG    1        3.921   1.079  -4.086  0.00  0.00    +0.240 C 
ATOM      6  O   LIG    1        5.213   1.690  -4.062  0.00  0.00    -0.370 OA
ENDROOT
BRANCH   1  11
ATOM      7  F   LIG    1       10.600   4.731  -3.173  0.00  0.00    -0.140 F 
ATOM      8  C   LIG    1        9.345   4.232  -3.136  0.00  0.00    +0.100 A 
ATOM      9  C   LIG    1        8.286   5.046  -2.769  0.00  0.00    -0.010 A 
ATOM     10  C   LIG    1        7.003   4.534  -2.732  0.00  0.00    +0.060 A 
ATOM     11  C   LIG    1        6.776   3.211  -3.060  0.00  0.00    -0.100 A 
ATOM     12  C   LIG    1        7.832   2.396  -3.421  0.00  0.00    +0.080 A 
ATOM     13  C   LIG    1        9.116   2.906  -3.465  0.00  0.00    -0.020 A 
ENDBRANCH   1  11
BRANCH   3  14
ATOM     14  C   LIG    1        3.500   0.761  -0.356  0.00  0.00    +0.530 C 
BRANCH  14  15
ATOM     15  N   LIG    1        2.050   0.709  -0.159  0.00  0.00    -0.360 N 
ATOM     16  N   LIG    1        1.215   1.788   0.160  0.00  0.00    -0.260 NA
ATOM     17  C   LIG    1        0.002   1.346   0.251  0.00  0.00    +0.310 A 
ATOM     18  N   LIG    1        0.002  -0.004   0.002  0.00  0.00    -0.460 N 
ATOM     19  C   LIG    1        1.269  -0.389  -0.250  0.00  0.00    +0.460 A 
ATOM     20  S   LIG    1        1.792  -1.977  -0.618  0.00  0.00    -0.580 S 
BRANCH  18  21
ATOM     21  C   LIG    1       -1.174  -0.878   0.009  0.00  0.00    +0.190 C 
ATOM     22  C   LIG    1       -0.932  -2.387   0.084  0.00  0.00    +0.080 C 
ATOM     23  C   LIG    1       -1.411  -1.753  -1.223  0.00  0.00    +0.060 C 
ENDBRANCH  18  21
BRANCH  17  24
ATOM     24  C   LIG    1       -1.213   2.178   0.572  0.00  0.00    +0.030 C 
ATOM     25  C   LIG    1       -1.342   3.537  -0.120  0.00  0.00    +0.080 C 
ATOM     26  C   LIG    1       -0.996   3.467   1.369  0.00  0.00    +0.080 C 
ENDBRANCH  17  24
ENDBRANCH  14  15
ENDBRANCH   3  14
TORSDOF 5
