REMARK  Name = ZINC9l0000002nT6.0
REMARK                            x       y       z     vdW  Elec       q    Type
REMARK                         _______ _______ _______ _____ _____    ______ ____
ROOT
ATOM      1  C   LIG    1        1.417   2.032  -0.001  0.00  0.00    +0.020 C 
ATOM      2  C   LIG    1       -0.018   1.503   0.010  0.00  0.00    -0.120 C 
ATOM      3  C   LIG    1       -0.758   2.010  -1.229  0.00  0.00    +0.020 C 
ENDROOT
BRANCH   2   4
ATOM      4  C   LIG    1       -0.735   1.996   1.269  0.00  0.00    -0.040 C 
ATOM      5  C   LIG    1       -1.088   0.956   2.334  0.00  0.00    +0.000 C 
ATOM      6  C   LIG    1       -2.190   1.569   1.467  0.00  0.00    +0.010 C 
ENDBRANCH   2   4
BRANCH   2   7
ATOM      7  C   LIG    1        0.002  -0.004   0.002  0.00  0.00    +0.510 C 
ATOM      8  O   LIG    1       -1.045  -0.628   0.009  0.00  0.00    -0.690 OA
ATOM      9  O   LIG    1        1.066  -0.599  -0.011  0.00  0.00    -0.700 OA
ENDBRANCH   2   7
TORSDOF 2
