REMARK  Name = ZINCvU00000009L8.0
REMARK                            x       y       z     vdW  Elec       q    Type
REMARK                         _______ _______ _______ _____ _____    ______ ____
ROOT
ATOM      1  N   LIG    1       -0.663  -2.496  -1.524  0.00  0.00    -0.580 N 
ATOM      2  C   LIG    1        0.517  -2.949  -1.056  0.00  0.00    +0.550 C 
ATOM      3  O   LIG    1        1.197  -3.687  -1.737  0.00  0.00    -0.530 OA
ENDROOT
BRANCH   2   4
ATOM      4  C   LIG    1        0.991  -2.539   0.315  0.00  0.00    -0.030 C 
ATOM      5  C   LIG    1        2.319  -3.233   0.624  0.00  0.00    +0.050 C 
ATOM      6  C   LIG    1        3.362  -2.827  -0.419  0.00  0.00    +0.020 C 
ATOM      7  C   LIG    1        3.558  -1.310  -0.380  0.00  0.00    +0.000 C 
ATOM      8  C   LIG    1        2.229  -0.616  -0.689  0.00  0.00    +0.010 C 
ATOM      9  C   LIG    1        1.187  -1.022   0.354  0.00  0.00    +0.040 C 
BRANCH   4  10
ATOM     10  C   LIG    1       -0.036  -2.940   1.342  0.00  0.00    -0.070 A 
ATOM     11  C   LIG    1       -0.497  -4.242   1.388  0.00  0.00    +0.050 A 
ATOM     12  C   LIG    1       -1.439  -4.610   2.330  0.00  0.00    +0.050 A 
ATOM     13  C   LIG    1       -1.920  -3.676   3.228  0.00  0.00    +0.020 A 
ATOM     14  C   LIG    1       -1.459  -2.373   3.183  0.00  0.00    -0.030 A 
ATOM     15 CL   LIG    1       -2.064  -1.199   4.310  0.00  0.00    -0.070 Cl
ATOM     16  C   LIG    1       -0.517  -2.005   2.240  0.00  0.00    +0.020 A 
ENDBRANCH   4  10
ENDBRANCH   2   4
BRANCH   1  18
ATOM     17  C   LIG    1       -1.141  -0.110  -1.282  0.00  0.00    +0.010 C 
ATOM     18  C   LIG    1       -1.430  -1.515  -0.752  0.00  0.00    +0.280 C 
ENDBRANCH   1  18
BRANCH   1  19
ATOM     19  C   LIG    1       -1.179  -2.984  -2.805  0.00  0.00    +0.390 C 
BRANCH  19  20
ATOM     20  C   LIG    1       -2.028  -4.207  -2.572  0.00  0.00    +0.430 A 
ATOM     21  N   LIG    1       -2.172  -4.635  -1.349  0.00  0.00    -0.570 NA
ATOM     22  C   LIG    1       -2.919  -5.718  -1.060  0.00  0.00    +0.540 A 
ATOM     23  C   LIG    1       -3.572  -6.428  -2.174  0.00  0.00    -0.210 A 
ATOM     24  C   LIG    1       -4.358  -7.559  -1.972  0.00  0.00    +0.140 A 
ATOM     25  C   LIG    1       -4.940  -8.178  -3.044  0.00  0.00    +0.010 A 
ATOM     26  C   LIG    1       -4.753  -7.688  -4.330  0.00  0.00    +0.030 A 
ATOM     27  C   LIG    1       -3.977  -6.567  -4.551  0.00  0.00    -0.010 A 
ATOM     28 CL   LIG    1       -5.504  -8.492  -5.673  0.00  0.00    -0.050 Cl
ATOM     29  C   LIG    1       -3.379  -5.926  -3.475  0.00  0.00    +0.190 A 
ATOM     30  O   LIG    1       -3.047  -6.103   0.090  0.00  0.00    -0.470 OA
ATOM     31  N   LIG    1       -2.593  -4.803  -3.637  0.00  0.00    -0.620 N 
ATOM     32  H   LIG    1       -2.447  -4.441  -4.525  0.00  0.00    +0.420 HD
ENDBRANCH  19  20
ENDBRANCH   1  19
TORSDOF 5
