REMARK  Name = ZINCpk00000y2hFM.0
REMARK                            x       y       z     vdW  Elec       q    Type
REMARK                         _______ _______ _______ _____ _____    ______ ____
ROOT
ATOM      1  C   LIG    1       -2.528   3.866   0.046  0.00  0.00    +0.580 C 
ATOM      2  N   LIG    1       -3.685   3.182  -0.048  0.00  0.00    -0.610 N 
ATOM      3  C   LIG    1       -3.816   1.717  -0.066  0.00  0.00    +0.250 C 
ATOM      4  C   LIG    1       -5.318   1.393  -0.211  0.00  0.00    +0.050 C 
ATOM      5  C   LIG    1       -5.895   2.691  -0.835  0.00  0.00    +0.140 C 
ATOM      6  C   LIG    1       -5.031   3.777  -0.143  0.00  0.00    +0.290 C 
ATOM      7  O   LIG    1       -2.545   5.077   0.145  0.00  0.00    -0.530 OA
ENDROOT
BRANCH   1  12
ATOM      8  C   LIG    1        1.165   3.169  -0.060  0.00  0.00    +0.120 A 
ATOM      9  C   LIG    1        1.177   1.782  -0.004  0.00  0.00    -0.050 A 
ATOM     10  C   LIG    1       -0.011   1.077   0.067  0.00  0.00    +0.040 A 
ATOM     11  C   LIG    1       -1.216   1.748   0.078  0.00  0.00    +0.000 A 
ATOM     12  C   LIG    1       -1.238   3.143   0.029  0.00  0.00    -0.090 A 
ATOM     13  C   LIG    1       -0.040   3.853  -0.043  0.00  0.00    +0.050 A 
BRANCH   8  15
ATOM     14  C   LIG    1        3.539   3.087  -0.142  0.00  0.00    +0.250 C 
ATOM     15  O   LIG    1        2.335   3.856  -0.130  0.00  0.00    -0.310 OA
ENDBRANCH   8  15
ENDBRANCH   1  12
BRANCH   5  16
ATOM     16  N   LIG    1       -7.314   2.853  -0.494  0.00  0.00    -0.520 NA
ATOM     17  C   LIG    1       -8.093   1.679  -0.907  0.00  0.00    +0.190 C 
BRANCH  16  18
ATOM     18  C   LIG    1       -7.860   4.082  -1.085  0.00  0.00    +0.290 C 
BRANCH  18  19
ATOM     19  C   LIG    1       -9.232   4.345  -0.519  0.00  0.00    +0.370 A 
ATOM     20  N   LIG    1      -10.285   3.843  -1.133  0.00  0.00    -0.560 NA
ATOM     21  C   LIG    1      -11.509   4.045  -0.666  0.00  0.00    +0.350 A 
ATOM     22  C   LIG    1      -11.678   4.804   0.475  0.00  0.00    -0.160 A 
ATOM     23  C   LIG    1      -10.541   5.326   1.098  0.00  0.00    +0.440 A 
ATOM     24  N   LIG    1       -9.347   5.074   0.572  0.00  0.00    -0.560 NA
BRANCH  23  25
ATOM     25  N   LIG    1      -10.658   6.094   2.246  0.00  0.00    -0.840 N 
ATOM     26  H   LIG    1      -11.534   6.272   2.623  0.00  0.00    +0.410 HD
ATOM     27  H   LIG    1       -9.864   6.452   2.672  0.00  0.00    +0.410 HD
ENDBRANCH  23  25
ENDBRANCH  18  19
ENDBRANCH  16  18
ENDBRANCH   5  16
TORSDOF 6
