REMARK  Name = ZINCrD000000CDdH.0
REMARK                            x       y       z     vdW  Elec       q    Type
REMARK                         _______ _______ _______ _____ _____    ______ ____
ROOT
ATOM      1  O   LIG    1        2.834   5.455   0.225  0.00  0.00    -0.520 OA
ATOM      2  C   LIG    1        2.918   4.270   0.484  0.00  0.00    +0.570 C 
ATOM      3  N   LIG    1        3.760   3.485  -0.217  0.00  0.00    -0.590 N 
ENDROOT
BRANCH   2   4
ATOM      4  C   LIG    1        2.096   3.690   1.567  0.00  0.00    -0.120 A 
ATOM      5  C   LIG    1        1.351   2.532   1.341  0.00  0.00    +0.030 A 
ATOM      6  C   LIG    1        0.587   2.001   2.357  0.00  0.00    +0.020 A 
ATOM      7  C   LIG    1        0.548   2.612   3.602  0.00  0.00    -0.100 A 
ATOM      8  C   LIG    1       -0.316   2.004   4.677  0.00  0.00    +0.280 C 
ATOM      9  O   LIG    1        0.048   2.523   5.956  0.00  0.00    -0.370 OA
ATOM     10  C   LIG    1        0.077   3.954   5.995  0.00  0.00    +0.220 C 
ATOM     11  C   LIG    1        1.287   4.430   5.182  0.00  0.00    +0.060 C 
ATOM     12  C   LIG    1        1.291   3.753   3.835  0.00  0.00    -0.070 A 
ATOM     13  C   LIG    1        2.060   4.297   2.822  0.00  0.00    +0.070 A 
ENDBRANCH   2   4
BRANCH   3  14
ATOM     14  C   LIG    1        3.759   2.035  -0.003  0.00  0.00    +0.260 C 
BRANCH  14  15
ATOM     15  C   LIG    1        3.876   1.321  -1.350  0.00  0.00    +0.200 C 
BRANCH  15  16
ATOM     16  C   LIG    1        3.876  -0.193  -1.126  0.00  0.00    +0.420 C 
ATOM     17  F   LIG    1        4.961  -0.545  -0.317  0.00  0.00    -0.170 F 
ATOM     18  F   LIG    1        3.982  -0.847  -2.359  0.00  0.00    -0.170 F 
ATOM     19  F   LIG    1        2.684  -0.571  -0.499  0.00  0.00    -0.180 F 
ENDBRANCH  15  16
BRANCH  15  20
ATOM     20  O   LIG    1        2.768   1.680  -2.178  0.00  0.00    -0.520 OA
ATOM     21  H   LIG    1        1.913   1.373  -1.845  0.00  0.00    +0.390 HD
ENDBRANCH  15  20
ENDBRANCH  14  15
ENDBRANCH   3  14
BRANCH   3  22
ATOM     22  C   LIG    1        4.676   4.080  -1.193  0.00  0.00    +0.340 C 
BRANCH  22  23
ATOM     23  C   LIG    1        5.973   4.434  -0.513  0.00  0.00    -0.110 A 
ATOM     24  C   LIG    1        6.139   5.685   0.052  0.00  0.00    +0.030 A 
ATOM     25  C   LIG    1        7.328   6.008   0.680  0.00  0.00    +0.000 A 
ATOM     26  C   LIG    1        8.354   5.084   0.733  0.00  0.00    +0.010 A 
ATOM     27  C   LIG    1        8.191   3.835   0.164  0.00  0.00    +0.000 A 
ATOM     28  C   LIG    1        7.000   3.510  -0.460  0.00  0.00    +0.010 A 
ENDBRANCH  22  23
ENDBRANCH   3  22
TORSDOF 7
