REMARK  Name = ZINCrD0000073meG.0
REMARK                            x       y       z     vdW  Elec       q    Type
REMARK                         _______ _______ _______ _____ _____    ______ ____
ROOT
ATOM      1  N   LIG    1        0.939   2.117  -1.173  0.00  0.00    -0.450 N 
ATOM      2  C   LIG    1        0.465   3.407  -1.354  0.00  0.00    +0.050 A 
ATOM      3  C   LIG    1        1.071   4.625  -1.621  0.00  0.00    +0.020 A 
ATOM      4  C   LIG    1        0.299   5.762  -1.749  0.00  0.00    +0.030 A 
ATOM      5  C   LIG    1       -1.079   5.694  -1.613  0.00  0.00    +0.010 A 
ATOM      6  C   LIG    1       -1.698   4.493  -1.347  0.00  0.00    +0.060 A 
ATOM      7  C   LIG    1       -0.931   3.333  -1.215  0.00  0.00    +0.070 A 
ATOM      8  N   LIG    1       -1.240   2.033  -0.966  0.00  0.00    -0.470 NA
ATOM      9  C   LIG    1       -0.144   1.318  -0.936  0.00  0.00    +0.510 A 
ENDROOT
BRANCH   1  13
ATOM     10  C   LIG    1        4.927   0.902  -1.322  0.00  0.00    +0.150 A 
ATOM     11  C   LIG    1        4.026   0.441  -2.270  0.00  0.00    +0.020 A 
ATOM     12  C   LIG    1        2.705   0.843  -2.221  0.00  0.00    +0.070 A 
ATOM     13  C   LIG    1        2.280   1.709  -1.223  0.00  0.00    +0.070 A 
ATOM     14  C   LIG    1        3.184   2.174  -0.278  0.00  0.00    +0.070 A 
ATOM     15  C   LIG    1        4.503   1.767  -0.324  0.00  0.00    -0.050 A 
BRANCH  10  17
ATOM     16  C   LIG    1        7.100   1.020  -0.363  0.00  0.00    +0.250 C 
ATOM     17  O   LIG    1        6.227   0.506  -1.371  0.00  0.00    -0.310 OA
ENDBRANCH  10  17
ENDBRANCH   1  13
BRANCH   9  18
ATOM     18  N   LIG    1       -0.091  -0.045  -0.705  0.00  0.00    -0.620 N 
ATOM     19  H   LIG    1        0.764  -0.504  -0.703  0.00  0.00    +0.430 HD
ATOM     20  C   LIG    1       -1.227  -0.736  -0.482  0.00  0.00    +0.580 C 
ATOM     21  O   LIG    1       -2.297  -0.161  -0.484  0.00  0.00    -0.440 OA
BRANCH  20  22
ATOM     22  C   LIG    1       -1.170  -2.195  -0.234  0.00  0.00    +0.020 A 
ATOM     23  N   LIG    1       -0.016  -2.845  -0.337  0.00  0.00    -0.210 NA
ATOM     24  N   LIG    1        0.074  -4.108  -0.130  0.00  0.00    -0.240 NA
ATOM     25  C   LIG    1       -0.973  -4.846   0.199  0.00  0.00    +0.250 A 
ATOM     26  C   LIG    1       -2.221  -4.261   0.331  0.00  0.00    +0.030 A 
ATOM     27  C   LIG    1       -2.328  -2.894   0.114  0.00  0.00    -0.020 A 
ATOM     28  C   LIG    1       -3.653  -2.188   0.245  0.00  0.00    +0.130 C 
ENDBRANCH  20  22
ENDBRANCH   9  18
TORSDOF 4
