REMARK  Name = ZINCrD000000C3SU.0
REMARK                            x       y       z     vdW  Elec       q    Type
REMARK                         _______ _______ _______ _____ _____    ______ ____
ROOT
ATOM      1  O   LIG    1       -5.215  -3.390  -0.127  0.00  0.00    -0.560 OA
ATOM      2  C   LIG    1       -5.986  -2.452  -0.059  0.00  0.00    +0.710 C 
ATOM      3  N   LIG    1       -7.314  -2.663  -0.150  0.00  0.00    -0.630 N 
ATOM      4  C   LIG    1       -8.247  -1.531  -0.240  0.00  0.00    +0.260 C 
ATOM      5  C   LIG    1       -9.109  -1.712  -1.501  0.00  0.00    +0.270 C 
ATOM      6  N   LIG    1       -9.651  -3.079  -1.506  0.00  0.00    -0.610 N 
ATOM      7  C   LIG    1       -8.718  -4.210  -1.409  0.00  0.00    +0.290 C 
ATOM      8  C   LIG    1      -10.979  -3.290  -1.597  0.00  0.00    +0.550 C 
ATOM      9  O   LIG    1      -11.414  -4.422  -1.600  0.00  0.00    -0.530 OA
ATOM     10  C   LIG    1       -7.856  -4.029  -0.154  0.00  0.00    +0.310 C 
ATOM     11  N   LIG    1       -5.512  -1.201   0.108  0.00  0.00    -0.680 N 
ATOM     12  H   LIG    1       -6.124  -0.472   0.293  0.00  0.00    +0.410 HD
ENDROOT
BRANCH  11  13
ATOM     13  C   LIG    1       -4.139  -0.955   0.014  0.00  0.00    +0.170 A 
ATOM     14  C   LIG    1       -3.232  -1.986   0.231  0.00  0.00    +0.030 A 
ATOM     15  C   LIG    1       -1.878  -1.747   0.140  0.00  0.00    +0.060 A 
ATOM     16  C   LIG    1       -1.412  -0.467  -0.172  0.00  0.00    -0.080 A 
ATOM     17  C   LIG    1       -2.327   0.561  -0.388  0.00  0.00    -0.070 A 
ATOM     18  C   LIG    1       -1.541   1.812  -0.695  0.00  0.00    +0.160 C 
ATOM     19  C   LIG    1       -0.086   1.413  -0.647  0.00  0.00    -0.100 A 
ATOM     20  C   LIG    1        1.076   2.126  -0.845  0.00  0.00    +0.020 A 
ATOM     21  C   LIG    1        2.304   1.496  -0.731  0.00  0.00    +0.010 A 
ATOM     22  C   LIG    1        2.366   0.151  -0.418  0.00  0.00    +0.010 A 
ATOM     23  C   LIG    1        1.208  -0.571  -0.218  0.00  0.00    +0.020 A 
ATOM     24  C   LIG    1       -0.034   0.057  -0.332  0.00  0.00    -0.050 A 
ATOM     25  C   LIG    1       -3.680   0.320  -0.295  0.00  0.00    -0.010 A 
ENDBRANCH  11  13
BRANCH   8  26
ATOM     26  C   LIG    1      -11.923  -2.119  -1.695  0.00  0.00    -0.070 C 
ATOM     27  C   LIG    1      -12.841  -1.851  -0.500  0.00  0.00    +0.060 C 
ATOM     28  C   LIG    1      -13.419  -2.425  -1.796  0.00  0.00    +0.070 C 
ENDBRANCH   8  26
TORSDOF 2
