REMARK  Name = ZINCpk00001AZj8T.0
REMARK                            x       y       z     vdW  Elec       q    Type
REMARK                         _______ _______ _______ _____ _____    ______ ____
ROOT
ATOM      1  C   LIG    1       -2.322   4.903   0.051  0.00  0.00    +0.570 C 
ATOM      2  N   LIG    1       -1.182   4.185   0.045  0.00  0.00    -0.610 N 
ATOM      3  C   LIG    1       -0.603   3.710  -1.219  0.00  0.00    +0.290 C 
ATOM      4  C   LIG    1       -0.385   2.196  -1.124  0.00  0.00    +0.050 C 
ATOM      5  C   LIG    1        0.463   1.885   0.112  0.00  0.00    +0.120 C 
ATOM      6  C   LIG    1       -0.277   2.346   1.369  0.00  0.00    +0.040 C 
ATOM      7  C   LIG    1       -0.494   3.861   1.302  0.00  0.00    +0.280 C 
ATOM      8  O   LIG    1       -2.841   5.229  -0.999  0.00  0.00    -0.520 OA
ENDROOT
BRANCH   1  17
ATOM      9  O   LIG    1       -6.750   2.596   0.828  0.00  0.00    -0.450 OA
ATOM     10  C   LIG    1       -6.339   3.705   1.072  0.00  0.00    +0.360 C 
ATOM     11  C   LIG    1       -7.119   4.668   1.945  0.00  0.00    +0.030 C 
ATOM     12  C   LIG    1       -6.266   4.972   3.175  0.00  0.00    +0.110 C 
ATOM     13  C   LIG    1       -4.850   5.312   2.792  0.00  0.00    -0.080 A 
ATOM     14  C   LIG    1       -4.100   6.027   3.723  0.00  0.00    +0.040 A 
ATOM     15  C   LIG    1       -2.787   6.367   3.469  0.00  0.00    +0.010 A 
ATOM     16  C   LIG    1       -2.197   5.997   2.279  0.00  0.00    +0.040 A 
ATOM     17  C   LIG    1       -2.943   5.294   1.335  0.00  0.00    -0.120 A 
ATOM     18  C   LIG    1       -4.277   4.951   1.598  0.00  0.00    -0.030 A 
ATOM     19  C   LIG    1       -5.022   4.199   0.523  0.00  0.00    +0.090 C 
ENDBRANCH   1  17
BRANCH   5  20
ATOM     20  C   LIG    1        0.709   0.400   0.191  0.00  0.00    +0.250 A 
ATOM     21  N   LIG    1       -0.049  -0.511  -0.323  0.00  0.00    -0.260 NA
ATOM     22  N   LIG    1        0.523  -1.760  -0.035  0.00  0.00    -0.550 N 
ATOM     23  H   LIG    1        0.178  -2.628  -0.295  0.00  0.00    +0.460 HD
ATOM     24  C   LIG    1        1.644  -1.518   0.679  0.00  0.00    +0.610 A 
ATOM     25  O   LIG    1        2.413  -2.352   1.118  0.00  0.00    -0.480 OA
ATOM     26  O   LIG    1        1.751  -0.186   0.813  0.00  0.00    -0.270 OA
ENDBRANCH   5  20
TORSDOF 2
