REMARK  Name = ZINCrD000000AbqL.0
REMARK                            x       y       z     vdW  Elec       q    Type
REMARK                         _______ _______ _______ _____ _____    ______ ____
ROOT
ATOM      1  O   LIG    1       -3.527   6.049  -0.995  0.00  0.00    -0.330 OA
ENDROOT
BRANCH   1   3
ATOM      2  O   LIG    1       -4.829   4.317  -1.432  0.00  0.00    -0.510 OA
ATOM      3  C   LIG    1       -4.697   5.518  -1.381  0.00  0.00    +0.470 C 
BRANCH   3   4
ATOM      4  C   LIG    1       -5.848   6.418  -1.750  0.00  0.00    +0.140 C 
BRANCH   4   5
ATOM      5  C   LIG    1       -7.054   5.566  -2.150  0.00  0.00    +0.060 C 
BRANCH   5   6
ATOM      6  C   LIG    1       -8.205   6.466  -2.520  0.00  0.00    +0.400 C 
ATOM      7  O   LIG    1       -8.073   7.670  -2.469  0.00  0.00    -0.450 OA
BRANCH   6   8
ATOM      8  C   LIG    1       -9.487   5.884  -2.943  0.00  0.00    -0.190 A 
ATOM      9  C   LIG    1       -9.640   4.494  -3.009  0.00  0.00    +0.110 A 
ATOM     10  C   LIG    1      -10.846   3.955  -3.402  0.00  0.00    -0.030 A 
ATOM     11  C   LIG    1      -11.903   4.787  -3.741  0.00  0.00    +0.130 A 
ATOM     12  C   LIG    1      -11.756   6.165  -3.683  0.00  0.00    -0.030 A 
ATOM     13  F   LIG    1      -13.081   4.252  -4.130  0.00  0.00    -0.130 F 
ATOM     14  C   LIG    1      -10.558   6.717  -3.287  0.00  0.00    +0.120 A 
ENDBRANCH   6   8
ENDBRANCH   5   6
ENDBRANCH   4   5
ENDBRANCH   3   4
ENDBRANCH   1   3
BRANCH   1  15
ATOM     15  C   LIG    1       -2.463   5.122  -0.653  0.00  0.00    +0.270 C 
BRANCH  15  16
ATOM     16  C   LIG    1       -1.234   5.894  -0.247  0.00  0.00    +0.520 C 
ATOM     17  N   LIG    1       -0.084   5.243   0.013  0.00  0.00    -0.550 N 
ATOM     18  C   LIG    1       -0.045   3.774   0.034  0.00  0.00    +0.260 C 
ATOM     19  C   LIG    1        0.759   3.344   1.268  0.00  0.00    +0.020 C 
ATOM     20  C   LIG    1        2.194   3.850   1.124  0.00  0.00    +0.080 C 
ATOM     21  C   LIG    1        2.206   5.322   0.806  0.00  0.00    -0.110 A 
ATOM     22  C   LIG    1        3.355   6.052   1.057  0.00  0.00    +0.030 A 
ATOM     23  C   LIG    1        3.400   7.402   0.768  0.00  0.00    -0.020 A 
ATOM     24  C   LIG    1        2.293   8.035   0.233  0.00  0.00    +0.030 A 
ATOM     25  C   LIG    1        1.144   7.313  -0.024  0.00  0.00    +0.010 A 
ATOM     26  C   LIG    1        1.097   5.955   0.267  0.00  0.00    +0.150 A 
ATOM     27  O   LIG    1       -1.282   7.103  -0.153  0.00  0.00    -0.490 OA
ENDBRANCH  15  16
ENDBRANCH   1  15
TORSDOF 7
