REMARK  Name = ZINCrH000004pKCC.0
REMARK                            x       y       z     vdW  Elec       q    Type
REMARK                         _______ _______ _______ _____ _____    ______ ____
ROOT
ATOM      1  C   LIG    1       -1.327   0.924  -0.157  0.00  0.00    +0.520 C 
ATOM      2  F   LIG    1       -0.641   0.147   0.782  0.00  0.00    -0.150 F 
ATOM      3  F   LIG    1       -1.221   0.332  -1.420  0.00  0.00    -0.140 F 
ENDROOT
BRANCH   1   8
ATOM      4  C   LIG    1        3.984   2.877   0.228  0.00  0.00    +0.060 C 
ATOM      5  C   LIG    1        2.632   2.650  -0.452  0.00  0.00    +0.010 C 
ATOM      6  C   LIG    1        1.749   1.595   0.233  0.00  0.00    +0.280 C 
ATOM      7  N   LIG    1        0.597   2.472  -0.022  0.00  0.00    -0.630 N 
ATOM      8  C   LIG    1       -0.729   2.307  -0.199  0.00  0.00    +0.520 C 
ATOM      9  O   LIG    1       -1.439   3.269  -0.396  0.00  0.00    -0.440 OA
ATOM     10  C   LIG    1        1.527   3.611   0.007  0.00  0.00    +0.300 C 
BRANCH  10  11
ATOM     11  C   LIG    1        1.751   4.168   1.389  0.00  0.00    -0.090 A 
ATOM     12  C   LIG    1        1.482   3.391   2.500  0.00  0.00    +0.010 A 
ATOM     13  C   LIG    1        1.692   3.900   3.768  0.00  0.00    +0.000 A 
ATOM     14  C   LIG    1        2.160   5.191   3.925  0.00  0.00    +0.010 A 
ATOM     15  C   LIG    1        2.424   5.971   2.814  0.00  0.00    +0.020 A 
ATOM     16  C   LIG    1        2.220   5.459   1.546  0.00  0.00    +0.030 A 
ENDBRANCH  10  11
ENDBRANCH   1   8
BRANCH   1  17
ATOM     17  N   LIG    1       -2.740   1.015   0.222  0.00  0.00    -0.350 N 
ATOM     18  C   LIG    1       -3.590  -0.028   0.358  0.00  0.00    +0.180 A 
ATOM     19  C   LIG    1       -4.791   0.509   0.721  0.00  0.00    +0.040 A 
ATOM     20  N   LIG    1       -4.603   1.840   0.783  0.00  0.00    -0.230 NA
ATOM     21  N   LIG    1       -3.379   2.099   0.487  0.00  0.00    -0.010 NA
BRANCH  19  22
ATOM     22  C   LIG    1       -6.051  -0.227   0.992  0.00  0.00    -0.020 A 
ATOM     23  C   LIG    1       -6.088  -1.615   0.879  0.00  0.00    +0.020 A 
ATOM     24  C   LIG    1       -7.261  -2.295   1.137  0.00  0.00    +0.010 A 
ATOM     25  C   LIG    1       -8.402  -1.599   1.496  0.00  0.00    +0.020 A 
ATOM     26  C   LIG    1       -8.372  -0.221   1.605  0.00  0.00    +0.010 A 
ATOM     27  C   LIG    1       -7.203   0.469   1.354  0.00  0.00    +0.040 A 
ENDBRANCH  19  22
ENDBRANCH   1  17
TORSDOF 4
