REMARK  Name = ZINCah0000006kv2.0
REMARK                            x       y       z     vdW  Elec       q    Type
REMARK                         _______ _______ _______ _____ _____    ______ ____
ROOT
ATOM      1  C   LIG    1       -3.219   2.614  -1.476  0.00  0.00    +0.100 C 
ATOM      2  C   LIG    1       -2.014   2.388  -0.560  0.00  0.00    +0.090 C 
ATOM      3  C   LIG    1       -0.814   1.625  -1.200  0.00  0.00    +0.010 C 
ATOM      4  C   LIG    1       -0.013   1.086   0.008  0.00  0.00    +0.050 C 
ATOM      5  C   LIG    1       -0.798   1.617   1.249  0.00  0.00    -0.190 C 
ATOM      6  C   LIG    1       -0.625   3.166   1.159  0.00  0.00    +0.230 C 
ATOM      7  C   LIG    1       -2.277   1.508   0.712  0.00  0.00    +0.040 C 
ATOM      8  O   LIG    1       -1.423   3.578   0.029  0.00  0.00    -0.370 OA
ENDROOT
BRANCH   5   9
ATOM      9  C   LIG    1       -0.496   0.960   2.571  0.00  0.00    +0.490 C 
ATOM     10  O   LIG    1       -1.370   0.385   3.174  0.00  0.00    -0.440 OA
ENDBRANCH   5   9
TORSDOF 1
