REMARK  Name = ZINCpk00000y67wn.0
REMARK                            x       y       z     vdW  Elec       q    Type
REMARK                         _______ _______ _______ _____ _____    ______ ____
ROOT
ATOM      1  N   LIG    1       -3.440  -2.023  -3.752  0.00  0.00    -0.510 NA
ATOM      2  C   LIG    1       -2.717  -3.012  -2.942  0.00  0.00    +0.180 C 
ATOM      3  C   LIG    1       -1.496  -2.346  -2.300  0.00  0.00    +0.300 C 
ATOM      4  N   LIG    1       -1.945  -1.152  -1.568  0.00  0.00    -1.000 NA
ATOM      5  C   LIG    1       -2.797  -0.183  -2.274  0.00  0.00    +0.320 C 
ATOM      6  C   LIG    1       -3.962  -0.931  -2.920  0.00  0.00    +0.230 C 
ENDROOT
BRANCH   6   7
ATOM      7  C   LIG    1       -4.759   0.018  -3.777  0.00  0.00    +0.200 A 
ATOM      8  N   LIG    1       -4.605   0.197  -5.060  0.00  0.00    -0.450 NA
ATOM      9  C   LIG    1       -5.486   1.113  -5.489  0.00  0.00    +0.140 A 
ATOM     10  C   LIG    1       -6.208   1.524  -4.429  0.00  0.00    +0.130 A 
ATOM     11  N   LIG    1       -5.748   0.830  -3.342  0.00  0.00    -0.570 N 
ATOM     12  H   LIG    1       -6.071   0.906  -2.431  0.00  0.00    +0.420 HD
ENDBRANCH   6   7
BRANCH   4  13
ATOM     13  S   LIG    1       -1.510  -0.909   0.011  0.00  0.00    +2.700 S 
ATOM     14  O   LIG    1       -2.491  -0.045   0.569  0.00  0.00    -0.960 OA
ATOM     15  O   LIG    1       -1.208  -2.190   0.546  0.00  0.00    -0.950 OA
BRANCH  13  16
ATOM     16  C   LIG    1        0.002  -0.004   0.002  0.00  0.00    -0.710 A 
ATOM     17  C   LIG    1        1.211  -0.674  -0.013  0.00  0.00    +0.170 A 
ATOM     18  C   LIG    1        2.398   0.029  -0.017  0.00  0.00    -0.020 A 
ATOM     19  C   LIG    1        2.388   1.422  -0.006  0.00  0.00    +0.160 A 
ATOM     20  O   LIG    1        3.426   2.303   0.010  0.00  0.00    -0.300 OA
ATOM     21  C   LIG    1        2.958   3.592  -0.420  0.00  0.00    +0.240 C 
ATOM     22  C   LIG    1        1.467   3.570  -0.010  0.00  0.00    +0.090 C 
ATOM     23  C   LIG    1        1.167   2.084   0.002  0.00  0.00    -0.200 A 
ATOM     24  C   LIG    1       -0.017   1.380   0.010  0.00  0.00    +0.170 A 
ENDBRANCH  13  16
ENDBRANCH   4  13
BRANCH   1  26
ATOM     25  C   LIG    1       -3.913  -3.607  -5.559  0.00  0.00    +0.040 C 
ATOM     26  C   LIG    1       -4.518  -2.659  -4.522  0.00  0.00    +0.170 C 
ENDBRANCH   1  26
TORSDOF 4
