REMARK  Name = ZINCvU0000000Hyp.0
REMARK                            x       y       z     vdW  Elec       q    Type
REMARK                         _______ _______ _______ _____ _____    ______ ____
ROOT
ATOM      1  C   LIG    1       -2.557   1.462  -0.066  0.00  0.00    -0.230 C 
ATOM      2  C   LIG    1       -3.810   1.971  -0.126  0.00  0.00    +0.110 C 
ATOM      3  C   LIG    1       -4.785   0.862  -0.124  0.00  0.00    +0.530 C 
ATOM      4  N   LIG    1       -4.141  -0.317  -0.064  0.00  0.00    -0.590 N 
ATOM      5  O   LIG    1       -5.992   0.996  -0.172  0.00  0.00    -0.500 OA
ATOM      6  C   LIG    1       -2.700  -0.042  -0.028  0.00  0.00    +0.390 C 
ENDROOT
BRANCH   6   7
ATOM      7  C   LIG    1       -2.022  -0.657  -1.226  0.00  0.00    -0.210 A 
ATOM      8  C   LIG    1       -0.887  -1.357  -1.192  0.00  0.00    +0.030 A 
ATOM      9  C   LIG    1       -0.456  -1.828  -2.420  0.00  0.00    +0.000 A 
ATOM     10  C   LIG    1       -1.235  -1.502  -3.452  0.00  0.00    -0.030 A 
ATOM     11  S   LIG    1       -2.603  -0.555  -2.883  0.00  0.00    +0.140 S 
ENDBRANCH   6   7
BRANCH   1  13
ATOM     12  O   LIG    1       -0.977   2.883  -1.017  0.00  0.00    -0.400 OA
ATOM     13  C   LIG    1       -1.303   2.222  -0.047  0.00  0.00    +0.520 C 
BRANCH  13  14
ATOM     14  C   LIG    1       -0.441   2.188   1.142  0.00  0.00    -0.050 A 
ATOM     15  C   LIG    1        0.786   2.769   1.237  0.00  0.00    +0.070 A 
ATOM     16  C   LIG    1        1.270   2.474   2.584  0.00  0.00    -0.150 A 
ATOM     17  C   LIG    1        2.437   2.781   3.288  0.00  0.00    +0.070 A 
ATOM     18  C   LIG    1        2.587   2.342   4.574  0.00  0.00    -0.010 A 
ATOM     19  C   LIG    1        1.589   1.595   5.183  0.00  0.00    +0.060 A 
ATOM     20  C   LIG    1        0.430   1.280   4.505  0.00  0.00    +0.030 A 
ATOM     21  C   LIG    1        0.254   1.715   3.197  0.00  0.00    +0.080 A 
ATOM     22  O   LIG    1       -0.743   1.570   2.303  0.00  0.00    -0.180 OA
ENDBRANCH  13  14
ENDBRANCH   1  13
BRANCH   2  23
ATOM     23  O   LIG    1       -4.119   3.288  -0.179  0.00  0.00    -0.430 OA
ATOM     24  H   LIG    1       -5.068   3.467  -0.218  0.00  0.00    +0.420 HD
ENDBRANCH   2  23
BRANCH   4  25
ATOM     25  C   LIG    1       -4.767  -1.642  -0.043  0.00  0.00    +0.320 C 
BRANCH  25  26
ATOM     26  C   LIG    1       -4.935  -2.149  -1.476  0.00  0.00    +0.060 C 
BRANCH  26  27
ATOM     27  C   LIG    1       -5.579  -3.511  -1.455  0.00  0.00    -0.080 A 
ATOM     28  C   LIG    1       -4.792  -4.647  -1.397  0.00  0.00    +0.010 A 
ATOM     29  C   LIG    1       -5.383  -5.896  -1.373  0.00  0.00    +0.000 A 
ATOM     30  C   LIG    1       -6.760  -6.011  -1.416  0.00  0.00    +0.000 A 
ATOM     31  C   LIG    1       -7.546  -4.876  -1.479  0.00  0.00    +0.000 A 
ATOM     32  C   LIG    1       -6.955  -3.626  -1.499  0.00  0.00    +0.010 A 
ENDBRANCH  26  27
ENDBRANCH  25  26
ENDBRANCH   4  25
TORSDOF 7
