REMARK  Name = ZINCkj000018RDOb.0
REMARK                            x       y       z     vdW  Elec       q    Type
REMARK                         _______ _______ _______ _____ _____    ______ ____
ROOT
ATOM      1  N   LIG    1        0.002  -0.004   0.002  0.00  0.00    -0.390 N 
ATOM      2  C   LIG    1        0.526  -0.500  -1.289  0.00  0.00    +0.290 C 
ATOM      3  C   LIG    1       -0.247  -1.788  -1.626  0.00  0.00    +0.020 C 
ATOM      4  C   LIG    1       -1.255  -1.968  -0.468  0.00  0.00    +0.010 C 
ATOM      5  C   LIG    1       -1.381  -0.536   0.110  0.00  0.00    +0.310 C 
ATOM      6  H   LIG    1        0.568  -0.349   0.763  0.00  0.00    +0.430 HD
ENDROOT
BRANCH   3   7
ATOM      7  C   LIG    1        0.695  -2.962  -1.690  0.00  0.00    +0.520 C 
ATOM      8  O   LIG    1        0.556  -3.893  -0.925  0.00  0.00    -0.510 OA
ATOM      9  N   LIG    1        1.692  -2.978  -2.597  0.00  0.00    -0.840 N 
ATOM     10  H   LIG    1        2.298  -3.734  -2.638  0.00  0.00    +0.420 HD
ATOM     11  H   LIG    1        1.802  -2.234  -3.208  0.00  0.00    +0.410 HD
ENDBRANCH   3   7
BRANCH   4  12
ATOM     12  C   LIG    1       -2.603  -2.464  -0.995  0.00  0.00    +0.470 C 
ATOM     13  F   LIG    1       -3.120  -1.533  -1.903  0.00  0.00    -0.180 F 
ATOM     14  F   LIG    1       -3.494  -2.618   0.073  0.00  0.00    -0.170 F 
ATOM     15  F   LIG    1       -2.429  -3.694  -1.638  0.00  0.00    -0.160 F 
ENDBRANCH   4  12
BRANCH   1  16
ATOM     16  C   LIG    1       -0.018   1.465   0.010  0.00  0.00    +0.280 C 
BRANCH  16  19
ATOM     17  C   LIG    1        2.657   3.455   0.904  0.00  0.00    +0.160 C 
ATOM     18  C   LIG    1        1.508   3.525  -0.116  0.00  0.00    +0.060 C 
ATOM     19  C   LIG    1        1.417   1.994  -0.001  0.00  0.00    -0.020 C 
ATOM     20  C   LIG    1        2.030   2.142   1.402  0.00  0.00    +0.020 C 
BRANCH  17  21
ATOM     21  O   LIG    1        3.944   3.284   0.306  0.00  0.00    -0.370 OA
BRANCH  21  23
ATOM     22  C   LIG    1        6.337   3.623   0.323  0.00  0.00    +0.060 C 
ATOM     23  C   LIG    1        5.014   3.865   1.053  0.00  0.00    +0.170 C 
ENDBRANCH  21  23
ENDBRANCH  17  21
ENDBRANCH  16  19
ENDBRANCH   1  16
TORSDOF 6
