REMARK  Name = ZINCkj000018RDOb.1
REMARK                            x       y       z     vdW  Elec       q    Type
REMARK                         _______ _______ _______ _____ _____    ______ ____
ROOT
ATOM      1  N   LIG    1       -0.726   1.573   1.208  0.00  0.00    -0.390 N 
ATOM      2  C   LIG    1       -1.449   2.800   0.776  0.00  0.00    +0.310 C 
ATOM      3  C   LIG    1       -1.948   2.439  -0.646  0.00  0.00    +0.010 C 
ATOM      4  C   LIG    1       -0.779   1.607  -1.222  0.00  0.00    +0.020 C 
ATOM      5  C   LIG    1       -0.013   1.086   0.008  0.00  0.00    +0.310 C 
ATOM      6  H   LIG    1       -1.384   0.878   1.528  0.00  0.00    +0.430 HD
ENDROOT
BRANCH   3   7
ATOM      7  C   LIG    1       -2.171   3.684  -1.465  0.00  0.00    +0.530 C 
ATOM      8  O   LIG    1       -1.470   3.909  -2.429  0.00  0.00    -0.510 OA
ATOM      9  N   LIG    1       -3.148   4.548  -1.127  0.00  0.00    -0.840 N 
ATOM     10  H   LIG    1       -3.291   5.349  -1.654  0.00  0.00    +0.420 HD
ATOM     11  H   LIG    1       -3.709   4.368  -0.356  0.00  0.00    +0.410 HD
ENDBRANCH   3   7
BRANCH   4  12
ATOM     12  C   LIG    1       -1.315   0.436  -2.049  0.00  0.00    +0.460 C 
ATOM     13  F   LIG    1       -0.245  -0.339  -2.507  0.00  0.00    -0.170 F 
ATOM     14  F   LIG    1       -2.036   0.929  -3.142  0.00  0.00    -0.160 F 
ATOM     15  F   LIG    1       -2.155  -0.351  -1.253  0.00  0.00    -0.180 F 
ENDBRANCH   4  12
BRANCH   1  16
ATOM     16  C   LIG    1        0.234   1.894   2.273  0.00  0.00    +0.290 C 
BRANCH  16  19
ATOM     17  C   LIG    1       -0.547   3.719   5.097  0.00  0.00    +0.170 C 
ATOM     18  C   LIG    1        0.391   2.551   4.750  0.00  0.00    +0.070 C 
ATOM     19  C   LIG    1       -0.525   2.277   3.545  0.00  0.00    -0.030 C 
ATOM     20  C   LIG    1       -0.919   3.763   3.604  0.00  0.00    +0.010 C 
BRANCH  17  21
ATOM     21  O   LIG    1        0.139   4.888   5.552  0.00  0.00    -0.370 OA
BRANCH  21  23
ATOM     22  C   LIG    1        0.214   6.899   6.890  0.00  0.00    +0.050 C 
ATOM     23  C   LIG    1       -0.613   5.681   6.473  0.00  0.00    +0.160 C 
ENDBRANCH  21  23
ENDBRANCH  17  21
ENDBRANCH  16  19
ENDBRANCH   1  16
TORSDOF 6
