REMARK  Name = ZINCvU0000000INV.0
REMARK                            x       y       z     vdW  Elec       q    Type
REMARK                         _______ _______ _______ _____ _____    ______ ____
ROOT
ATOM      1  C   LIG    1       -0.915   2.854   1.584  0.00  0.00    +0.140 A 
ATOM      2  N   LIG    1       -1.564   2.825   2.725  0.00  0.00    -0.290 NA
ATOM      3  N   LIG    1       -1.756   1.606   3.086  0.00  0.00    -0.270 NA
ATOM      4  C   LIG    1       -1.250   0.793   2.204  0.00  0.00    +0.190 A 
ATOM      5  N   LIG    1       -0.698   1.558   1.213  0.00  0.00    -0.450 N 
ENDROOT
BRANCH   5   6
ATOM      6  C   LIG    1       -0.013   1.086   0.008  0.00  0.00    +0.230 C 
ATOM      7  C   LIG    1       -0.753   1.593  -1.232  0.00  0.00    +0.010 C 
ATOM      8  C   LIG    1       -0.037   1.099  -2.490  0.00  0.00    +0.040 C 
ATOM      9  C   LIG    1        1.399   1.629  -2.501  0.00  0.00    +0.010 C 
ATOM     10  C   LIG    1        2.139   1.122  -1.262  0.00  0.00    +0.030 C 
ATOM     11  C   LIG    1        1.423   1.615  -0.003  0.00  0.00    +0.020 C 
ENDBRANCH   5   6
BRANCH   1  12
ATOM     12  S   LIG    1       -0.419   4.294   0.698  0.00  0.00    +0.090 S 
BRANCH  12  13
ATOM     13  C   LIG    1       -1.052   5.578   1.806  0.00  0.00    +0.100 C 
BRANCH  13  24
ATOM     14  C   LIG    1        0.643   9.675   1.327  0.00  0.00    +0.050 C 
ATOM     15  C   LIG    1       -0.862   9.420   1.438  0.00  0.00    +0.230 C 
ATOM     16  C   LIG    1       -1.479  10.323   2.519  0.00  0.00    +0.100 C 
ATOM     17  C   LIG    1       -2.052   9.361   3.536  0.00  0.00    -0.130 A 
ATOM     18  C   LIG    1       -2.726   9.591   4.720  0.00  0.00    +0.060 A 
ATOM     19  C   LIG    1       -3.159   8.527   5.489  0.00  0.00    -0.010 A 
ATOM     20  C   LIG    1       -2.916   7.231   5.072  0.00  0.00    +0.050 A 
ATOM     21  C   LIG    1       -2.243   6.998   3.891  0.00  0.00    -0.020 A 
ATOM     22  C   LIG    1       -1.808   8.067   3.106  0.00  0.00    +0.130 A 
ATOM     23  N   LIG    1       -1.113   8.050   1.892  0.00  0.00    -0.540 N 
ATOM     24  C   LIG    1       -0.735   6.936   1.234  0.00  0.00    +0.550 C 
ATOM     25  O   LIG    1       -0.138   7.027   0.182  0.00  0.00    -0.500 OA
ENDBRANCH  13  24
ENDBRANCH  12  13
ENDBRANCH   1  12
BRANCH   4  26
ATOM     26  C   LIG    1       -1.268  -0.713   2.262  0.00  0.00    +0.250 C 
BRANCH  26  27
ATOM     27  C   LIG    1       -0.037  -1.203   2.980  0.00  0.00    -0.190 A 
ATOM     28  C   LIG    1        0.056  -1.410   4.294  0.00  0.00    +0.040 A 
ATOM     29  C   LIG    1        1.290  -1.863   4.728  0.00  0.00    +0.010 A 
ATOM     30  C   LIG    1        2.199  -2.025   3.765  0.00  0.00    -0.030 A 
ATOM     31  S   LIG    1        1.495  -1.598   2.211  0.00  0.00    +0.090 S 
ENDBRANCH  26  27
ENDBRANCH   4  26
TORSDOF 6
