REMARK  Name = ZINCtV00001bB37z.1
REMARK                            x       y       z     vdW  Elec       q    Type
REMARK                         _______ _______ _______ _____ _____    ______ ____
ROOT
ATOM      1  C   LIG    1       -3.955   0.257  -1.073  0.00  0.00    +0.140 A 
ATOM      2  C   LIG    1       -4.453  -0.096   0.174  0.00  0.00    +0.100 A 
ATOM      3  C   LIG    1       -5.636  -0.802   0.270  0.00  0.00    +0.050 A 
ATOM      4  C   LIG    1       -6.326  -1.158  -0.876  0.00  0.00    +0.040 A 
ATOM      5  C   LIG    1       -5.832  -0.807  -2.120  0.00  0.00    -0.650 A 
ATOM      6 CL   LIG    1       -7.813  -2.045  -0.752  0.00  0.00    -0.040 Cl
ATOM      7  C   LIG    1       -4.652  -0.097  -2.221  0.00  0.00    +0.130 A 
ENDROOT
BRANCH   1  10
ATOM      8  O   LIG    1       -3.217   2.135   0.663  0.00  0.00    -0.490 OA
ATOM      9  C   LIG    1       -2.430   1.874  -0.226  0.00  0.00    +0.570 C 
ATOM     10  N   LIG    1       -2.757   0.972  -1.173  0.00  0.00    -0.660 N 
ATOM     11  H   LIG    1       -2.162   0.819  -1.923  0.00  0.00    +0.420 HD
BRANCH   9  12
ATOM     12  C   LIG    1       -1.115   2.545  -0.269  0.00  0.00    -0.120 A 
ATOM     13  C   LIG    1       -0.018   1.982   0.389  0.00  0.00    +0.000 A 
ATOM     14  C   LIG    1        1.210   2.612   0.339  0.00  0.00    +0.050 A 
ATOM     15  C   LIG    1        1.354   3.801  -0.354  0.00  0.00    +0.080 A 
ATOM     16  C   LIG    1        0.271   4.367  -1.003  0.00  0.00    +0.050 A 
ATOM     17 CL   LIG    1       -0.196   0.491   1.259  0.00  0.00    -0.040 Cl
ATOM     18  C   LIG    1       -0.963   3.749  -0.962  0.00  0.00    +0.000 A 
ATOM     19 CL   LIG    1       -2.321   4.462  -1.776  0.00  0.00    -0.040 Cl
ENDBRANCH   9  12
ENDBRANCH   1  10
BRANCH   5  20
ATOM     20  S   LIG    1       -6.713  -1.261  -3.577  0.00  0.00    +2.690 S 
ATOM     21  O   LIG    1       -5.931  -0.813  -4.676  0.00  0.00    -0.940 OA
ATOM     22  O   LIG    1       -8.062  -0.864  -3.370  0.00  0.00    -0.930 OA
BRANCH  20  23
ATOM     23  N   LIG    1       -6.719  -2.915  -3.651  0.00  0.00    -1.050 N 
ATOM     24  H   LIG    1       -7.559  -3.399  -3.616  0.00  0.00    +0.430 HD
BRANCH  23  25
ATOM     25  C   LIG    1       -5.514  -3.614  -3.762  0.00  0.00    +0.150 A 
ATOM     26  C   LIG    1       -4.547  -3.194  -4.666  0.00  0.00    +0.030 A 
ATOM     27  C   LIG    1       -3.355  -3.883  -4.771  0.00  0.00    +0.050 A 
ATOM     28  C   LIG    1       -3.128  -4.998  -3.983  0.00  0.00    -0.040 A 
ATOM     29  C   LIG    1       -4.092  -5.423  -3.085  0.00  0.00    +0.050 A 
ATOM     30 CL   LIG    1       -1.631  -5.866  -4.121  0.00  0.00    -0.060 Cl
ATOM     31  C   LIG    1       -5.284  -4.734  -2.973  0.00  0.00    +0.030 A 
ENDBRANCH  23  25
ENDBRANCH  20  23
ENDBRANCH   5  20
TORSDOF 5
