REMARK  Name = ZINCqH0000035SZZ.0
REMARK                            x       y       z     vdW  Elec       q    Type
REMARK                         _______ _______ _______ _____ _____    ______ ____
ROOT
ATOM      1  C   LIG    1       -0.062  -0.123   0.005  0.00  0.00    -0.020 C 
ATOM      2  C   LIG    1        0.634  -0.460  -1.316  0.00  0.00    +0.040 C 
ATOM      3  C   LIG    1        0.925  -1.961  -1.371  0.00  0.00    +0.010 C 
ATOM      4  C   LIG    1       -0.389  -2.740  -1.273  0.00  0.00    +0.000 C 
ATOM      5  C   LIG    1       -1.084  -2.403   0.048  0.00  0.00    +0.010 C 
ATOM      6  C   LIG    1       -1.375  -0.902   0.102  0.00  0.00    +0.020 C 
ENDROOT
BRANCH   1  10
ATOM      7  C   LIG    1       -0.876   4.069   0.157  0.00  0.00    +0.130 A 
ATOM      8  C   LIG    1        0.433   3.618   0.069  0.00  0.00    -0.020 A 
ATOM      9  C   LIG    1        0.694   2.263   0.020  0.00  0.00    +0.060 A 
ATOM     10  C   LIG    1       -0.349   1.355   0.058  0.00  0.00    -0.110 A 
ATOM     11  C   LIG    1       -1.655   1.802   0.140  0.00  0.00    +0.050 A 
ATOM     12  C   LIG    1       -1.920   3.157   0.195  0.00  0.00    -0.080 A 
BRANCH   7  14
ATOM     13  C   LIG    1       -2.506   5.794   0.294  0.00  0.00    +0.250 C 
ATOM     14  O   LIG    1       -1.135   5.402   0.204  0.00  0.00    -0.320 OA
ENDBRANCH   7  14
ENDBRANCH   1  10
BRANCH   1  15
ATOM     15  C   LIG    1        0.848  -0.509   1.173  0.00  0.00    +0.300 C 
BRANCH  15  16
ATOM     16  N   LIG    1        0.205  -0.137   2.436  0.00  0.00    -0.730 N 
ATOM     17  H   LIG    1       -0.666   0.291   2.429  0.00  0.00    +0.400 HD
ATOM     18  C   LIG    1        0.823  -0.390   3.607  0.00  0.00    +0.710 C 
ATOM     19  N   LIG    1        0.231  -0.048   4.768  0.00  0.00    -0.660 N 
ATOM     20  H   LIG    1       -0.639   0.381   4.762  0.00  0.00    +0.400 HD
ATOM     21  O   LIG    1        1.913  -0.927   3.615  0.00  0.00    -0.560 OA
BRANCH  19  22
ATOM     22  C   LIG    1        0.871  -0.309   5.980  0.00  0.00    +0.320 A 
ATOM     23  C   LIG    1        2.084  -0.906   6.137  0.00  0.00    -0.110 A 
ATOM     24  C   LIG    1        2.353  -0.974   7.506  0.00  0.00    +0.090 A 
ATOM     25  N   LIG    1        1.344  -0.448   8.151  0.00  0.00    -0.290 NA
ATOM     26  C   LIG    1        3.593  -1.558   8.134  0.00  0.00    +0.160 C 
ATOM     27  N   LIG    1        0.395  -0.021   7.213  0.00  0.00    -0.390 N 
ATOM     28  C   LIG    1       -0.885   0.624   7.514  0.00  0.00    +0.340 C 
ENDBRANCH  19  22
ENDBRANCH  15  16
ENDBRANCH   1  15
TORSDOF 5
