REMARK  Name = ZINCkj000005ln1A.0
REMARK                            x       y       z     vdW  Elec       q    Type
REMARK                         _______ _______ _______ _____ _____    ______ ____
ROOT
ATOM      1  N   LIG    1       -2.442   1.646   0.024  0.00  0.00    -0.710 N 
ATOM      2  H   LIG    1       -2.534   0.680   0.019  0.00  0.00    +0.410 HD
ATOM      3  C   LIG    1       -1.217   2.207   0.020  0.00  0.00    +0.610 C 
ATOM      4  O   LIG    1       -1.102   3.418   0.026  0.00  0.00    -0.540 OA
ENDROOT
BRANCH   3   5
ATOM      5  C   LIG    1       -0.016   1.353   0.009  0.00  0.00    -0.070 A 
ATOM      6  C   LIG    1        1.278   1.784  -0.001  0.00  0.00    +0.230 A 
ATOM      7  N   LIG    1        2.062   0.671  -0.014  0.00  0.00    -0.400 N 
ATOM      8  C   LIG    1        1.238  -0.412  -0.012  0.00  0.00    +0.420 A 
ATOM      9  N   LIG    1        0.002  -0.004   0.002  0.00  0.00    -0.460 NA
BRANCH   7  10
ATOM     10  C   LIG    1        3.464   0.645  -0.027  0.00  0.00    +0.120 A 
ATOM     11  C   LIG    1        4.181   1.834  -0.033  0.00  0.00    +0.000 A 
ATOM     12  C   LIG    1        5.562   1.805  -0.042  0.00  0.00    +0.050 A 
ATOM     13  C   LIG    1        6.230   0.594  -0.054  0.00  0.00    +0.020 A 
ATOM     14  C   LIG    1        5.518  -0.591  -0.053  0.00  0.00    +0.050 A 
ATOM     15  C   LIG    1        4.137  -0.569  -0.040  0.00  0.00    +0.000 A 
ENDBRANCH   7  10
ENDBRANCH   3   5
BRANCH   1  18
ATOM     16  C   LIG    1       -5.685   2.476   0.574  0.00  0.00    -0.030 C 
ATOM     17  C   LIG    1       -4.377   2.500   1.382  0.00  0.00    +0.030 C 
ATOM     18  C   LIG    1       -3.636   2.495   0.034  0.00  0.00    +0.250 C 
ATOM     19  C   LIG    1       -4.881   1.814  -0.558  0.00  0.00    +0.060 C 
BRANCH  16  20
ATOM     20  C   LIG    1       -6.760   1.567   1.174  0.00  0.00    +0.270 C 
BRANCH  20  21
ATOM     21  N   LIG    1       -7.547   2.323   2.157  0.00  0.00    -0.640 N 
ATOM     22  H   LIG    1       -6.939   2.655   2.891  0.00  0.00    +0.440 HD
ATOM     23  H   LIG    1       -8.255   1.724   2.553  0.00  0.00    +0.440 HD
ATOM     24  H   LIG    1       -7.987   3.110   1.703  0.00  0.00    +0.440 HD
ENDBRANCH  20  21
ENDBRANCH  16  20
ENDBRANCH   1  18
TORSDOF 5
