REMARK  Name = ZINCtV00000L6l8A.0
REMARK                            x       y       z     vdW  Elec       q    Type
REMARK                         _______ _______ _______ _____ _____    ______ ____
ROOT
ATOM      1  C   LIG    1       -3.306  -3.065  -0.713  0.00  0.00    +0.280 A 
ATOM      2  N   LIG    1       -4.461  -3.475  -0.249  0.00  0.00    -0.490 NA
ATOM      3  C   LIG    1       -4.459  -3.404   1.108  0.00  0.00    +0.060 A 
ATOM      4  C   LIG    1       -5.409  -3.710   2.086  0.00  0.00    +0.070 A 
ATOM      5  C   LIG    1       -5.104  -3.527   3.416  0.00  0.00    +0.010 A 
ATOM      6  C   LIG    1       -3.861  -3.041   3.793  0.00  0.00    +0.030 A 
ATOM      7  C   LIG    1       -2.912  -2.733   2.839  0.00  0.00    +0.010 A 
ATOM      8  C   LIG    1       -3.200  -2.917   1.495  0.00  0.00    +0.060 A 
ATOM      9  N   LIG    1       -2.491  -2.706   0.324  0.00  0.00    -0.470 N 
ENDROOT
BRANCH   1  10
ATOM     10  S   LIG    1       -2.869  -2.990  -2.418  0.00  0.00    -0.020 S 
BRANCH  10  11
ATOM     11  C   LIG    1       -4.400  -3.603  -3.163  0.00  0.00    +0.110 C 
BRANCH  11  12
ATOM     12  C   LIG    1       -4.253  -3.627  -4.685  0.00  0.00    +0.030 C 
BRANCH  12  13
ATOM     13  C   LIG    1       -5.547  -4.145  -5.315  0.00  0.00    +0.030 C 
BRANCH  13  14
ATOM     14  C   LIG    1       -5.400  -4.169  -6.838  0.00  0.00    +0.000 C 
BRANCH  14  15
ATOM     15  C   LIG    1       -6.694  -4.687  -7.467  0.00  0.00    +0.000 C 
BRANCH  15  17
ATOM     16  C   LIG    1       -7.841  -5.229  -9.620  0.00  0.00    +0.000 C 
ATOM     17  C   LIG    1       -6.547  -4.711  -8.990  0.00  0.00    -0.010 C 
ENDBRANCH  15  17
ENDBRANCH  14  15
ENDBRANCH  13  14
ENDBRANCH  12  13
ENDBRANCH  11  12
ENDBRANCH  10  11
ENDBRANCH   1  10
BRANCH   9  18
ATOM     18  C   LIG    1       -1.121  -2.197   0.216  0.00  0.00    +0.350 C 
BRANCH  18  19
ATOM     19  C   LIG    1       -1.150  -0.694   0.111  0.00  0.00    +0.500 C 
ATOM     20  N   LIG    1        0.002  -0.004   0.002  0.00  0.00    -0.660 N 
ATOM     21  H   LIG    1        0.844  -0.477  -0.089  0.00  0.00    +0.420 HD
ATOM     22  O   LIG    1       -2.211  -0.106   0.124  0.00  0.00    -0.490 OA
BRANCH  20  23
ATOM     23  C   LIG    1       -0.016   1.397   0.021  0.00  0.00    +0.150 A 
ATOM     24  C   LIG    1       -1.058   2.070   0.642  0.00  0.00    +0.070 A 
ATOM     25  C   LIG    1       -1.072   3.451   0.664  0.00  0.00    +0.030 A 
ATOM     26  C   LIG    1       -0.052   4.165   0.057  0.00  0.00    +0.100 A 
ATOM     27  C   LIG    1        0.987   3.495  -0.568  0.00  0.00    +0.030 A 
ATOM     28  F   LIG    1       -0.070   5.515   0.076  0.00  0.00    -0.130 F 
ATOM     29  C   LIG    1        1.007   2.114  -0.588  0.00  0.00    -0.040 A 
ATOM     30 CL   LIG    1        2.309   1.275  -1.372  0.00  0.00    -0.050 Cl
ENDBRANCH  20  23
ENDBRANCH  18  19
ENDBRANCH   9  18
TORSDOF 10
