REMARK  Name = ZINCrg000000qKZw.0
REMARK                            x       y       z     vdW  Elec       q    Type
REMARK                         _______ _______ _______ _____ _____    ______ ____
ROOT
ATOM      1  C   LIG    1        5.205  -1.052  -1.817  0.00  0.00    -0.060 A 
ATOM      2  C   LIG    1        4.952  -0.363  -0.650  0.00  0.00    +0.150 A 
ATOM      3  C   LIG    1        4.040  -1.124   0.088  0.00  0.00    -0.760 A 
ATOM      4  C   LIG    1        3.763  -2.244  -0.623  0.00  0.00    +0.340 A 
ATOM      5  N   LIG    1        4.460  -2.209  -1.785  0.00  0.00    -0.530 N 
ATOM      6  H   LIG    1        4.440  -2.889  -2.477  0.00  0.00    +0.420 HD
ENDROOT
BRANCH   1   9
ATOM      7  N   LIG    1        6.259  -1.406  -3.987  0.00  0.00    -0.730 N 
ATOM      8  H   LIG    1        5.775  -2.244  -4.059  0.00  0.00    +0.390 HD
ATOM      9  C   LIG    1        6.104  -0.630  -2.896  0.00  0.00    +0.590 C 
ATOM     10  O   LIG    1        6.710   0.422  -2.806  0.00  0.00    -0.520 OA
BRANCH   7  11
ATOM     11  C   LIG    1        7.156  -0.984  -5.065  0.00  0.00    +0.270 C 
BRANCH  11  12
ATOM     12  C   LIG    1        7.149  -2.036  -6.176  0.00  0.00    +0.070 C 
BRANCH  12  16
ATOM     13  C   LIG    1        9.768  -0.805  -9.321  0.00  0.00    +0.130 A 
ATOM     14  C   LIG    1       10.253  -1.576  -8.274  0.00  0.00    -0.020 A 
ATOM     15  C   LIG    1        9.405  -1.973  -7.259  0.00  0.00    +0.060 A 
ATOM     16  C   LIG    1        8.073  -1.602  -7.285  0.00  0.00    -0.130 A 
ATOM     17  C   LIG    1        7.586  -0.838  -8.329  0.00  0.00    +0.060 A 
ATOM     18  C   LIG    1        8.432  -0.434  -9.344  0.00  0.00    -0.080 A 
BRANCH  13  20
ATOM     19  C   LIG    1       10.033   0.378 -11.366  0.00  0.00    +0.250 C 
ATOM     20  O   LIG    1       10.601  -0.414 -10.321  0.00  0.00    -0.320 OA
ENDBRANCH  13  20
ENDBRANCH  12  16
ENDBRANCH  11  12
ENDBRANCH   7  11
ENDBRANCH   1   9
BRANCH   3  21
ATOM     21  S   LIG    1        3.376  -0.705   1.665  0.00  0.00    +2.720 S 
ATOM     22  O   LIG    1        2.973  -1.927   2.268  0.00  0.00    -0.960 OA
ATOM     23  O   LIG    1        4.302   0.189   2.266  0.00  0.00    -0.950 OA
BRANCH  21  24
ATOM     24  N   LIG    1        1.992   0.164   1.399  0.00  0.00    -1.000 NA
ATOM     25  C   LIG    1        0.688  -0.507   1.278  0.00  0.00    +0.280 C 
ATOM     26  C   LIG    1        0.002  -0.004   0.002  0.00  0.00    +0.210 C 
ATOM     27  O   LIG    1       -0.017   1.425   0.010  0.00  0.00    -0.380 OA
ATOM     28  C   LIG    1        1.279   2.028   0.001  0.00  0.00    +0.220 C 
ATOM     29  C   LIG    1        2.030   1.630   1.276  0.00  0.00    +0.280 C 
ENDBRANCH  21  24
ENDBRANCH   3  21
TORSDOF 7
