REMARK  Name = ZINCvU00000009Sm.0
REMARK                            x       y       z     vdW  Elec       q    Type
REMARK                         _______ _______ _______ _____ _____    ______ ____
ROOT
ATOM      1  C   LIG    1        3.568   1.953  -1.238  0.00  0.00    +0.510 C 
ATOM      2  N   LIG    1        3.844   3.272  -1.228  0.00  0.00    -0.640 N 
ATOM      3  H   LIG    1        3.121   3.919  -1.231  0.00  0.00    +0.420 HD
ATOM      4  O   LIG    1        4.472   1.145  -1.235  0.00  0.00    -0.460 OA
ENDROOT
BRANCH   1   8
ATOM      5  N   LIG    1        0.002  -0.004   0.002  0.00  0.00    -0.480 N 
ATOM      6  C   LIG    1       -0.018   1.464   0.010  0.00  0.00    +0.230 C 
ATOM      7  C   LIG    1        1.417   1.995  -0.001  0.00  0.00    +0.040 C 
ATOM      8  C   LIG    1        2.137   1.483  -1.252  0.00  0.00    -0.010 C 
ATOM      9  C   LIG    1        2.101  -0.048  -1.260  0.00  0.00    +0.080 C 
ATOM     10  C   LIG    1        0.646  -0.520  -1.213  0.00  0.00    +0.200 C 
BRANCH   5  14
ATOM     11  C   LIG    1       -3.799  -1.506   0.421  0.00  0.00    -0.110 A 
ATOM     12  C   LIG    1       -2.728  -2.405   0.298  0.00  0.00    +0.150 A 
ATOM     13  C   LIG    1       -1.464  -1.899   0.159  0.00  0.00    -0.040 A 
ATOM     14  C   LIG    1       -1.277  -0.519   0.143  0.00  0.00    +0.340 A 
ATOM     15  N   LIG    1       -2.305   0.309   0.267  0.00  0.00    -0.520 NA
ATOM     16  C   LIG    1       -3.538  -0.134   0.398  0.00  0.00    +0.360 A 
BRANCH  11  18
ATOM     17  N   LIG    1       -6.202  -2.370   0.688  0.00  0.00    -0.410 NA
ATOM     18  C   LIG    1       -5.139  -1.988   0.570  0.00  0.00    +0.260 C 
ENDBRANCH  11  18
ENDBRANCH   5  14
ENDBRANCH   1   8
BRANCH   2  19
ATOM     19  C   LIG    1        5.165   3.706  -1.216  0.00  0.00    +0.260 A 
ATOM     20  N   LIG    1        6.202   2.929  -1.206  0.00  0.00    -0.470 NA
ATOM     21  C   LIG    1        7.386   3.511  -1.199  0.00  0.00    +0.260 A 
ATOM     22  C   LIG    1        7.347   4.845  -1.192  0.00  0.00    -0.230 A 
ATOM     23  S   LIG    1        5.657   5.343  -1.203  0.00  0.00    +0.140 S 
BRANCH  22  24
ATOM     24  C   LIG    1        8.541   5.765  -1.177  0.00  0.00    +0.200 C 
BRANCH  24  25
ATOM     25  C   LIG    1        8.950   6.080  -2.593  0.00  0.00    -0.070 A 
ATOM     26  C   LIG    1        9.873   5.279  -3.241  0.00  0.00    -0.020 A 
ATOM     27  C   LIG    1       10.244   5.565  -4.543  0.00  0.00    +0.040 A 
ATOM     28  C   LIG    1        9.701   6.658  -5.192  0.00  0.00    +0.050 A 
ATOM     29  C   LIG    1        8.783   7.462  -4.543  0.00  0.00    +0.040 A 
ATOM     30 CL   LIG    1       10.561   3.911  -2.424  0.00  0.00    -0.050 Cl
ATOM     31  C   LIG    1        8.406   7.173  -3.244  0.00  0.00    -0.020 A 
ATOM     32 CL   LIG    1        7.253   8.183  -2.429  0.00  0.00    -0.050 Cl
ENDBRANCH  24  25
ENDBRANCH  22  24
ENDBRANCH   2  19
TORSDOF 6
