REMARK  Name = ZINCpk00000jWp4w.0
REMARK                            x       y       z     vdW  Elec       q    Type
REMARK                         _______ _______ _______ _____ _____    ______ ____
ROOT
ATOM      1  C   LIG    1        0.030   1.807  -0.163  0.00  0.00    +0.290 C 
ATOM      2  N   LIG    1       -0.664   1.897   1.124  0.00  0.00    -0.610 N 
ATOM      3  C   LIG    1       -2.011   1.861   1.167  0.00  0.00    +0.560 C 
ATOM      4  O   LIG    1       -2.590   2.034   2.222  0.00  0.00    -0.520 OA
ENDROOT
BRANCH   3   5
ATOM      5  C   LIG    1       -2.784   1.613  -0.069  0.00  0.00    -0.120 A 
ATOM      6  C   LIG    1       -2.183   0.970  -1.150  0.00  0.00    +0.060 A 
ATOM      7  C   LIG    1       -2.910   0.740  -2.301  0.00  0.00    -0.050 A 
ATOM      8  C   LIG    1       -4.230   1.147  -2.380  0.00  0.00    +0.070 A 
ATOM      9  C   LIG    1       -4.835   1.786  -1.308  0.00  0.00    -0.090 A 
ATOM     10  C   LIG    1       -6.244   2.317  -1.154  0.00  0.00    +0.090 C 
ATOM     11  C   LIG    1       -6.181   3.285   0.047  0.00  0.00    +0.030 C 
ATOM     12  C   LIG    1       -4.994   2.727   0.859  0.00  0.00    +0.090 C 
ATOM     13 CL   LIG    1       -2.168  -0.060  -3.651  0.00  0.00    -0.060 Cl
ATOM     14  C   LIG    1       -4.120   2.017  -0.152  0.00  0.00    -0.030 A 
ENDBRANCH   3   5
BRANCH   2  15
ATOM     15  C   LIG    1        0.105   2.025   2.364  0.00  0.00    +0.250 C 
ATOM     16  C   LIG    1        1.016   3.268   2.295  0.00  0.00    +0.030 C 
ATOM     17  C   LIG    1        2.313   2.830   3.018  0.00  0.00    +0.030 C 
ATOM     18  C   LIG    1        2.475   1.357   2.566  0.00  0.00    +0.240 C 
ATOM     19  C   LIG    1        1.033   0.810   2.537  0.00  0.00    +0.020 C 
BRANCH  18  20
ATOM     20  N   LIG    1        3.288   0.609   3.529  0.00  0.00    -0.690 N 
ATOM     21  H   LIG    1        2.863   0.157   4.274  0.00  0.00    +0.410 HD
ATOM     22  C   LIG    1        4.626   0.549   3.379  0.00  0.00    +0.510 C 
ATOM     23  O   LIG    1        5.157   1.115   2.446  0.00  0.00    -0.520 OA
BRANCH  22  24
ATOM     24  C   LIG    1        5.455  -0.213   4.361  0.00  0.00    +0.510 C 
ATOM     25  O   LIG    1        4.923  -0.779   5.293  0.00  0.00    -0.520 OA
ATOM     26  N   LIG    1        6.793  -0.273   4.210  0.00  0.00    -0.820 N 
ATOM     27  H   LIG    1        7.331  -0.768   4.848  0.00  0.00    +0.410 HD
ATOM     28  H   LIG    1        7.218   0.179   3.465  0.00  0.00    +0.410 HD
ENDBRANCH  22  24
ENDBRANCH  18  20
ENDBRANCH   2  15
TORSDOF 4
