REMARK  Name = ZINCpe00000FUbaV.0
REMARK                            x       y       z     vdW  Elec       q    Type
REMARK                         _______ _______ _______ _____ _____    ______ ____
ROOT
ATOM      1  N   LIG    1       -2.608  -2.668   0.011  0.00  0.00    -0.550 N 
ATOM      2  C   LIG    1       -2.164  -1.395   0.014  0.00  0.00    +0.600 A 
ATOM      3  C   LIG    1       -0.781  -1.148   0.003  0.00  0.00    -0.190 A 
ATOM      4  C   LIG    1        0.102  -2.228  -0.011  0.00  0.00    +0.380 A 
ATOM      5  N   LIG    1       -0.417  -3.514  -0.014  0.00  0.00    -0.510 N 
ATOM      6  C   LIG    1        0.486  -4.667  -0.029  0.00  0.00    +0.340 C 
ATOM      7  N   LIG    1        1.337  -1.733  -0.020  0.00  0.00    -0.500 NA
ATOM      8  C   LIG    1        1.294  -0.409  -0.013  0.00  0.00    +0.460 A 
ATOM      9  N   LIG    1        2.077   0.715  -0.014  0.00  0.00    -0.450 N 
ATOM     10  C   LIG    1        1.240   1.815   0.000  0.00  0.00    +0.070 A 
ATOM     11  C   LIG    1        1.676   3.257   0.004  0.00  0.00    +0.180 C 
ATOM     12  C   LIG    1       -0.017   1.380   0.010  0.00  0.00    +0.180 A 
ATOM     13  N   LIG    1        0.002  -0.004   0.002  0.00  0.00    -0.350 N 
ATOM     14  O   LIG    1       -2.954  -0.467   0.027  0.00  0.00    -0.520 OA
ATOM     15  C   LIG    1       -1.750  -3.702  -0.002  0.00  0.00    +0.710 A 
ATOM     16  O   LIG    1       -2.188  -4.837  -0.004  0.00  0.00    -0.530 OA
ENDROOT
BRANCH   1  17
ATOM     17  C   LIG    1       -4.050  -2.929   0.022  0.00  0.00    +0.350 C 
BRANCH  17  19
ATOM     18  C   LIG    1       -5.512  -2.261   1.861  0.00  0.00    +0.040 C 
ATOM     19  C   LIG    1       -4.532  -3.026   1.447  0.00  0.00    -0.070 C 
ENDBRANCH  17  19
ENDBRANCH   1  17
BRANCH   9  20
ATOM     20  C   LIG    1        3.541   0.746  -0.028  0.00  0.00    +0.340 C 
BRANCH  20  21
ATOM     21  C   LIG    1        4.037   0.765  -1.475  0.00  0.00    +0.140 C 
ATOM     22  C   LIG    1        5.586   0.726  -1.514  0.00  0.00    +0.030 C 
ATOM     23  C   LIG    1        5.830   0.115  -2.920  0.00  0.00    +0.020 C 
ATOM     24  C   LIG    1        4.637  -0.854  -3.068  0.00  0.00    +0.190 C 
ATOM     25  O   LIG    1        3.615  -0.423  -2.163  0.00  0.00    -0.370 OA
ENDBRANCH  20  21
ENDBRANCH   9  20
TORSDOF 4
