REMARK  Name = ZINCrD00000fCFms.0
REMARK                            x       y       z     vdW  Elec       q    Type
REMARK                         _______ _______ _______ _____ _____    ______ ____
ROOT
ATOM      1  C   LIG    1        5.989   6.245  -0.019  0.00  0.00    +0.320 C 
ENDROOT
BRANCH   1   5
ATOM      2  C   LIG    1        2.365   3.977   0.001  0.00  0.00    -0.020 A 
ATOM      3  C   LIG    1        3.220   3.918  -1.097  0.00  0.00    +0.030 A 
ATOM      4  C   LIG    1        4.386   4.657  -1.100  0.00  0.00    +0.030 A 
ATOM      5  C   LIG    1        4.711   5.446  -0.012  0.00  0.00    -0.110 A 
ATOM      6  C   LIG    1        3.868   5.504   1.083  0.00  0.00    +0.030 A 
ATOM      7  C   LIG    1        2.697   4.774   1.095  0.00  0.00    +0.020 A 
BRANCH   2  12
ATOM      8  O   LIG    1       -2.286   1.147   0.019  0.00  0.00    -0.550 OA
ATOM      9  C   LIG    1       -1.236   1.768   0.018  0.00  0.00    +0.510 A 
ATOM     10  C   LIG    1       -0.013   1.076   0.008  0.00  0.00    -0.090 A 
ATOM     11  C   LIG    1        1.154   1.778   0.001  0.00  0.00    +0.140 A 
ATOM     12  C   LIG    1        1.107   3.189   0.009  0.00  0.00    -0.160 A 
ATOM     13  C   LIG    1       -0.100   3.826   0.024  0.00  0.00    +0.320 A 
ATOM     14  N   LIG    1       -1.254   3.114   0.030  0.00  0.00    -0.600 N 
ATOM     15  H   LIG    1       -2.105   3.581   0.040  0.00  0.00    +0.420 HD
ENDBRANCH   2  12
ENDBRANCH   1   5
BRANCH   1  16
ATOM     16  N   LIG    1        7.072   5.440   0.551  0.00  0.00    -0.730 N 
ATOM     17  H   LIG    1        6.895   4.537   0.859  0.00  0.00    +0.400 HD
ATOM     18  C   LIG    1        8.315   5.953   0.646  0.00  0.00    +0.510 C 
ATOM     19  O   LIG    1        8.536   7.082   0.261  0.00  0.00    -0.530 OA
BRANCH  18  20
ATOM     20  C   LIG    1        9.429   5.125   1.233  0.00  0.00    +0.100 C 
BRANCH  20  21
ATOM     21  C   LIG    1       10.706   5.924   1.225  0.00  0.00    -0.100 A 
ATOM     22  C   LIG    1       11.553   5.859   0.128  0.00  0.00    +0.040 A 
ATOM     23  C   LIG    1       12.723   6.586   0.099  0.00  0.00    -0.010 A 
ATOM     24  C   LIG    1       13.067   7.385   1.184  0.00  0.00    +0.100 A 
ATOM     25  N   LIG    1       14.139   8.205   1.455  0.00  0.00    -0.600 N 
ATOM     26  H   LIG    1       14.890   8.357   0.860  0.00  0.00    +0.420 HD
ATOM     27  C   LIG    1       13.989   8.775   2.690  0.00  0.00    +0.220 A 
ATOM     28  C   LIG    1       12.843   8.356   3.251  0.00  0.00    -0.050 A 
ATOM     29  C   LIG    1       12.208   7.444   2.296  0.00  0.00    -0.110 A 
ATOM     30  C   LIG    1       11.024   6.703   2.302  0.00  0.00    +0.070 A 
ENDBRANCH  20  21
ENDBRANCH  18  20
ENDBRANCH   1  16
TORSDOF 5
