REMARK  Name = ZINCtj00000rnbLx.0
REMARK                            x       y       z     vdW  Elec       q    Type
REMARK                         _______ _______ _______ _____ _____    ______ ____
ROOT
ATOM      1  C   LIG    1       -1.259  10.768   0.304  0.00  0.00    +0.110 C 
ATOM      2  C   LIG    1       -1.531  11.510   1.634  0.00  0.00    +0.290 C 
ATOM      3  N   LIG    1       -1.716  10.429   2.637  0.00  0.00    -0.400 N 
ATOM      4  C   LIG    1       -0.708   9.399   2.263  0.00  0.00    +0.320 C 
ATOM      5  C   LIG    1       -1.452  10.935   3.991  0.00  0.00    +0.350 C 
ATOM      6  H   LIG    1       -2.648  10.048   2.577  0.00  0.00    +0.430 HD
ATOM      7  C   LIG    1       -0.719   9.399   0.730  0.00  0.00    -0.120 C 
ATOM      8  C   LIG    1        0.559   8.934   0.046  0.00  0.00    +0.350 C 
ATOM      9  N   LIG    1       -0.009   7.574   0.044  0.00  0.00    -0.650 N 
ATOM     10  C   LIG    1        0.482   6.320   0.032  0.00  0.00    +0.640 C 
ATOM     11  O   LIG    1        1.686   6.138   0.019  0.00  0.00    -0.530 OA
ATOM     12  C   LIG    1       -1.349   8.186   0.054  0.00  0.00    +0.300 C 
ENDROOT
BRANCH  10  13
ATOM     13  C   LIG    1       -0.432   5.174   0.034  0.00  0.00    -0.330 A 
ATOM     14  C   LIG    1       -0.071   3.812   0.023  0.00  0.00    +0.170 A 
ATOM     15  C   LIG    1        1.165   3.154   0.008  0.00  0.00    +0.040 A 
ATOM     16  C   LIG    1        1.194   1.790   0.000  0.00  0.00    +0.090 A 
ATOM     17  C   LIG    1       -0.013   1.076   0.008  0.00  0.00    +0.020 A 
ATOM     18  C   LIG    1       -1.194   1.732   0.017  0.00  0.00    +0.290 A 
ATOM     19  N   LIG    1       -1.233   3.094   0.030  0.00  0.00    -0.260 N 
ATOM     20  N   LIG    1       -2.300   4.001   0.046  0.00  0.00    -0.310 NA
ATOM     21  C   LIG    1       -1.836   5.224   0.048  0.00  0.00    +0.300 A 
ENDBRANCH  10  13
BRANCH   1  24
ATOM     22  C   LIG    1       -3.630  10.431  -2.497  0.00  0.00    +0.580 A 
ATOM     23  N   LIG    1       -2.511  10.572  -1.802  0.00  0.00    -0.560 NA
ATOM     24  C   LIG    1       -2.537  10.608  -0.479  0.00  0.00    +0.220 A 
ATOM     25  C   LIG    1       -3.752  10.491   0.176  0.00  0.00    -0.200 A 
ATOM     26  C   LIG    1       -4.904  10.351  -0.582  0.00  0.00    +0.390 A 
ATOM     27  N   LIG    1       -4.808  10.322  -1.901  0.00  0.00    -0.560 NA
BRANCH  22  29
ATOM     28  C   LIG    1       -2.272  10.517  -4.556  0.00  0.00    +0.310 C 
ATOM     29  N   LIG    1       -3.566  10.398  -3.879  0.00  0.00    -0.580 N 
ATOM     30  C   LIG    1       -4.793  10.243  -4.665  0.00  0.00    +0.310 C 
ENDBRANCH  22  29
ENDBRANCH   1  24
TORSDOF 3
