REMARK  Name = ZINCtj00000rnbLx.1
REMARK                            x       y       z     vdW  Elec       q    Type
REMARK                         _______ _______ _______ _____ _____    ______ ____
ROOT
ATOM      1  C   LIG    1        0.460   9.445  -2.147  0.00  0.00    +0.100 C 
ATOM      2  C   LIG    1        0.928  10.887  -2.451  0.00  0.00    +0.290 C 
ATOM      3  N   LIG    1        1.713  11.288  -1.254  0.00  0.00    -0.400 N 
ATOM      4  C   LIG    1        0.963  10.708  -0.107  0.00  0.00    +0.310 C 
ATOM      5  C   LIG    1        1.771  12.752  -1.144  0.00  0.00    +0.340 C 
ATOM      6  H   LIG    1        2.644  10.901  -1.297  0.00  0.00    +0.430 HD
ATOM      7  C   LIG    1        0.482   9.346  -0.619  0.00  0.00    -0.120 C 
ATOM      8  C   LIG    1       -0.768   8.780   0.040  0.00  0.00    +0.320 C 
ATOM      9  N   LIG    1       -0.138   7.451  -0.046  0.00  0.00    -0.640 N 
ATOM     10  C   LIG    1       -0.572   6.176  -0.111  0.00  0.00    +0.640 C 
ATOM     11  O   LIG    1       -1.766   5.939  -0.103  0.00  0.00    -0.530 OA
ATOM     12  C   LIG    1        1.173   8.123  -0.025  0.00  0.00    +0.300 C 
ENDROOT
BRANCH  10  13
ATOM     13  C   LIG    1        0.394   5.077  -0.190  0.00  0.00    -0.320 A 
ATOM     14  C   LIG    1        0.097   3.702  -0.262  0.00  0.00    +0.170 A 
ATOM     15  C   LIG    1       -1.108   2.987  -0.280  0.00  0.00    +0.040 A 
ATOM     16  C   LIG    1       -1.075   1.626  -0.363  0.00  0.00    +0.090 A 
ATOM     17  C   LIG    1        0.163   0.970  -0.417  0.00  0.00    +0.020 A 
ATOM     18  C   LIG    1        1.313   1.680  -0.398  0.00  0.00    +0.290 A 
ATOM     19  N   LIG    1        1.290   3.040  -0.321  0.00  0.00    -0.260 N 
ATOM     20  N   LIG    1        2.314   3.994  -0.286  0.00  0.00    -0.310 NA
ATOM     21  C   LIG    1        1.795   5.192  -0.209  0.00  0.00    +0.300 A 
ENDBRANCH  10  13
BRANCH   1  24
ATOM     22  C   LIG    1       -2.534   7.823  -3.557  0.00  0.00    +0.580 A 
ATOM     23  N   LIG    1       -1.308   8.027  -3.097  0.00  0.00    -0.550 NA
ATOM     24  C   LIG    1       -0.936   9.222  -2.668  0.00  0.00    +0.220 A 
ATOM     25  C   LIG    1       -1.848  10.265  -2.699  0.00  0.00    -0.170 A 
ATOM     26  C   LIG    1       -3.120  10.018  -3.191  0.00  0.00    +0.380 A 
ATOM     27  N   LIG    1       -3.428   8.800  -3.604  0.00  0.00    -0.560 NA
BRANCH  22  29
ATOM     28  C   LIG    1       -1.914   5.468  -3.952  0.00  0.00    +0.310 C 
ATOM     29  N   LIG    1       -2.889   6.560  -3.997  0.00  0.00    -0.580 N 
ATOM     30  C   LIG    1       -4.240   6.316  -4.509  0.00  0.00    +0.310 C 
ENDBRANCH  22  29
ENDBRANCH   1  24
TORSDOF 3
