REMARK  Name = ZINCkj000005jV2P.1
REMARK                            x       y       z     vdW  Elec       q    Type
REMARK                         _______ _______ _______ _____ _____    ______ ____
ROOT
ATOM      1  C   LIG    1       -2.728   1.718  -2.683  0.00  0.00    +0.090 C 
ATOM      2  C   LIG    1       -2.100   1.169  -1.399  0.00  0.00    +0.130 C 
ATOM      3  C   LIG    1       -0.638   1.613  -1.316  0.00  0.00    +0.280 C 
ATOM      4  N   LIG    1       -0.042   1.102  -0.074  0.00  0.00    -0.380 N 
ATOM      5  C   LIG    1       -0.769   1.647   1.080  0.00  0.00    +0.270 C 
ATOM      6  C   LIG    1       -2.233   1.204   1.016  0.00  0.00    +0.210 C 
ATOM      7  H   LIG    1       -0.100   0.095  -0.063  0.00  0.00    +0.420 HD
ATOM      8  N   LIG    1       -2.833   1.687  -0.235  0.00  0.00    -0.530 NA
ENDROOT
BRANCH   4   9
ATOM      9  C   LIG    1        1.367   1.513  -0.003  0.00  0.00    +0.220 C 
BRANCH   9  10
ATOM     10  C   LIG    1        2.155   0.825  -1.119  0.00  0.00    +0.200 C 
ATOM     11  C   LIG    1        3.621   1.260  -1.051  0.00  0.00    +0.050 C 
BRANCH  10  12
ATOM     12  O   LIG    1        2.072  -0.593  -0.957  0.00  0.00    -0.560 OA
ATOM     13  H   LIG    1        2.427  -0.914  -0.117  0.00  0.00    +0.390 HD
ENDBRANCH  10  12
ENDBRANCH   9  10
ENDBRANCH   4   9
BRANCH   8  14
ATOM     14  C   LIG    1       -4.256   1.330  -0.308  0.00  0.00    +0.270 C 
BRANCH  14  15
ATOM     15  C   LIG    1       -4.924   1.657   1.003  0.00  0.00    -0.220 A 
ATOM     16  C   LIG    1       -5.165   0.662   1.934  0.00  0.00    +0.120 A 
ATOM     17  C   LIG    1       -5.782   1.008   3.129  0.00  0.00    -0.050 A 
ATOM     18  C   LIG    1       -6.135   2.325   3.351  0.00  0.00    +0.190 A 
ATOM     19  N   LIG    1       -5.893   3.253   2.444  0.00  0.00    -0.520 NA
ATOM     20 BR   LIG    1       -6.977   2.804   4.976  0.00  0.00    +0.010 Br
ATOM     21  C   LIG    1       -5.301   2.963   1.296  0.00  0.00    +0.440 A 
BRANCH  21  22
ATOM     22  N   LIG    1       -5.060   3.973   0.371  0.00  0.00    -0.840 N 
ATOM     23  H   LIG    1       -5.321   4.886   0.571  0.00  0.00    +0.410 HD
ATOM     24  H   LIG    1       -4.630   3.765  -0.473  0.00  0.00    +0.410 HD
ENDBRANCH  21  22
ENDBRANCH  14  15
ENDBRANCH   8  14
TORSDOF 6
