REMARK  Name = ZINCkj000005jV2P.0
REMARK                            x       y       z     vdW  Elec       q    Type
REMARK                         _______ _______ _______ _____ _____    ______ ____
ROOT
ATOM      1  C   LIG    1       -2.768   1.586  -0.596  0.00  0.00    +0.010 C 
ATOM      2  C   LIG    1       -1.758   1.051  -1.613  0.00  0.00    +0.190 C 
ATOM      3  C   LIG    1       -2.155   1.513  -3.017  0.00  0.00    +0.270 C 
ATOM      4  N   LIG    1       -2.149   2.981  -3.070  0.00  0.00    -0.380 N 
ATOM      5  C   LIG    1       -0.800   3.478  -2.771  0.00  0.00    +0.270 C 
ATOM      6  C   LIG    1       -0.392   3.033  -1.365  0.00  0.00    +0.220 C 
ATOM      7  H   LIG    1       -2.800   3.344  -2.389  0.00  0.00    +0.420 HD
ATOM      8  N   LIG    1       -0.419   1.565  -1.291  0.00  0.00    -0.530 NA
ENDROOT
BRANCH   4   9
ATOM      9  C   LIG    1       -2.548   3.423  -4.413  0.00  0.00    +0.220 C 
BRANCH   9  10
ATOM     10  C   LIG    1       -2.665   4.949  -4.433  0.00  0.00    +0.200 C 
ATOM     11  C   LIG    1       -3.080   5.410  -5.831  0.00  0.00    +0.050 C 
BRANCH  10  12
ATOM     12  O   LIG    1       -3.649   5.364  -3.483  0.00  0.00    -0.560 OA
ATOM     13  H   LIG    1       -4.532   5.007  -3.651  0.00  0.00    +0.390 HD
ENDBRANCH  10  12
ENDBRANCH   9  10
ENDBRANCH   4   9
BRANCH   8  14
ATOM     14  C   LIG    1        0.022   1.096   0.029  0.00  0.00    +0.260 C 
BRANCH  14  15
ATOM     15  C   LIG    1       -0.106  -0.404   0.097  0.00  0.00    -0.210 A 
ATOM     16  C   LIG    1       -1.110  -0.989   0.848  0.00  0.00    +0.120 A 
ATOM     17  C   LIG    1       -1.191  -2.374   0.883  0.00  0.00    -0.050 A 
ATOM     18  C   LIG    1       -0.273  -3.123   0.172  0.00  0.00    +0.190 A 
ATOM     19  N   LIG    1        0.675  -2.538  -0.536  0.00  0.00    -0.520 NA
ATOM     20 BR   LIG    1       -0.376  -5.011   0.215  0.00  0.00    +0.010 Br
ATOM     21  C   LIG    1        0.781  -1.219  -0.599  0.00  0.00    +0.440 A 
BRANCH  21  22
ATOM     22  N   LIG    1        1.791  -0.645  -1.362  0.00  0.00    -0.840 N 
ATOM     23  H   LIG    1        2.457  -1.207  -1.788  0.00  0.00    +0.410 HD
ATOM     24  H   LIG    1        1.830   0.319  -1.468  0.00  0.00    +0.410 HD
ENDBRANCH  21  22
ENDBRANCH  14  15
ENDBRANCH   8  14
TORSDOF 6
