REMARK  Name = ZINCrD000000CUgf.0
REMARK                            x       y       z     vdW  Elec       q    Type
REMARK                         _______ _______ _______ _____ _____    ______ ____
ROOT
ATOM      1  C   LIG    1       -0.854   5.415  -1.706  0.00  0.00    +0.540 C 
ATOM      2  N   LIG    1       -1.038   4.565  -0.676  0.00  0.00    -0.610 N 
ATOM      3  C   LIG    1       -1.049   4.935   0.751  0.00  0.00    +0.260 C 
ATOM      4  C   LIG    1       -1.873   3.820   1.444  0.00  0.00    +0.040 C 
ATOM      5  C   LIG    1       -1.430   2.563   0.646  0.00  0.00    +0.010 C 
ATOM      6  C   LIG    1       -0.013   2.178   1.114  0.00  0.00    +0.020 C 
ATOM      7  C   LIG    1        0.876   2.101  -0.134  0.00  0.00    +0.010 C 
ATOM      8  C   LIG    1       -0.008   2.428  -1.347  0.00  0.00    +0.010 C 
ATOM      9  C   LIG    1       -1.261   3.120  -0.790  0.00  0.00    +0.230 C 
ATOM     10  O   LIG    1       -0.864   4.999  -2.845  0.00  0.00    -0.510 OA
ENDROOT
BRANCH   1  16
ATOM     11  O   LIG    1        3.003   6.939  -3.216  0.00  0.00    -0.530 OA
ATOM     12  C   LIG    1        1.949   7.100  -2.634  0.00  0.00    +0.570 C 
ATOM     13  N   LIG    1        1.820   6.732  -1.345  0.00  0.00    -0.730 N 
ATOM     14  H   LIG    1        2.537   6.240  -0.914  0.00  0.00    +0.410 HD
ATOM     15  C   LIG    1        0.616   7.061  -0.585  0.00  0.00    +0.290 C 
ATOM     16  C   LIG    1       -0.635   6.882  -1.441  0.00  0.00    +0.040 C 
ATOM     17  C   LIG    1       -0.473   7.607  -2.752  0.00  0.00    -0.030 A 
ATOM     18  C   LIG    1       -1.560   8.173  -3.381  0.00  0.00    +0.020 A 
ATOM     19  C   LIG    1       -1.398   8.818  -4.596  0.00  0.00    +0.040 A 
ATOM     20  C   LIG    1       -0.150   8.893  -5.187  0.00  0.00    +0.010 A 
ATOM     21  C   LIG    1        0.948   8.334  -4.564  0.00  0.00    +0.080 A 
ATOM     22  C   LIG    1        0.794   7.702  -3.333  0.00  0.00    -0.120 A 
ENDBRANCH   1  16
BRANCH   4  23
ATOM     23  C   LIG    1       -1.499   3.697   2.898  0.00  0.00    -0.070 A 
ATOM     24  C   LIG    1       -2.360   3.075   3.783  0.00  0.00    +0.010 A 
ATOM     25  C   LIG    1       -2.015   2.957   5.116  0.00  0.00    +0.010 A 
ATOM     26  C   LIG    1       -0.813   3.471   5.567  0.00  0.00    +0.000 A 
ATOM     27  C   LIG    1        0.046   4.097   4.683  0.00  0.00    +0.000 A 
ATOM     28  C   LIG    1       -0.297   4.210   3.349  0.00  0.00    +0.000 A 
ENDBRANCH   4  23
TORSDOF 2
