REMARK  Name = ZINCpe0000158Kt2.0
REMARK                            x       y       z     vdW  Elec       q    Type
REMARK                         _______ _______ _______ _____ _____    ______ ____
ROOT
ATOM      1  CA  LIG    1       -5.638  -6.316  -0.480  0.00  0.00    +0.260 C 
ATOM      2  N   LIG    1       -4.495  -7.133  -0.866  0.00  0.00    -0.710 N 
ATOM      3  H   LIG    1       -3.607  -6.835  -0.616  0.00  0.00    +0.420 HD
ATOM      4  C   LIG    1       -4.618  -8.275  -1.550  0.00  0.00    +0.520 C 
ATOM      5  CA  LIG    1       -5.946  -8.821  -1.982  0.00  0.00    +0.320 C 
ATOM      6  N   LIG    1       -7.033  -8.248  -1.201  0.00  0.00    -0.700 N 
ATOM      7  H   LIG    1       -7.884  -8.713  -1.179  0.00  0.00    +0.420 HD
ATOM      8  O   LIG    1       -3.615  -8.894  -1.832  0.00  0.00    -0.510 OA
ATOM      9  C   LIG    1       -6.909  -7.110  -0.514  0.00  0.00    +0.520 C 
ATOM     10  O   LIG    1       -7.866  -6.702   0.110  0.00  0.00    -0.520 OA
ENDROOT
BRANCH   5  11
ATOM     11  C   LIG    1       -5.945 -10.318  -1.802  0.00  0.00    +0.070 A 
ATOM     12  C   LIG    1       -6.235 -10.985  -0.661  0.00  0.00    -0.090 A 
ATOM     13  C   LIG    1       -6.119 -12.354  -0.922  0.00  0.00    +0.240 A 
ATOM     14  N   LIG    1       -5.771 -12.504  -2.174  0.00  0.00    -0.280 NA
ATOM     15  N   LIG    1       -5.660 -11.233  -2.753  0.00  0.00    -0.350 N 
ATOM     16  C   LIG    1       -5.296 -10.947  -4.143  0.00  0.00    +0.340 C 
ENDBRANCH   5  11
BRANCH   1  17
ATOM     17  C   LIG    1       -5.759  -5.135  -1.445  0.00  0.00    +0.100 C 
BRANCH  17  21
ATOM     18  C   LIG    1       -2.318  -2.629  -1.069  0.00  0.00    +0.130 A 
ATOM     19  C   LIG    1       -3.433  -2.402  -0.275  0.00  0.00    -0.080 A 
ATOM     20  C   LIG    1       -4.546  -3.210  -0.403  0.00  0.00    +0.060 A 
ATOM     21  C   LIG    1       -4.545  -4.252  -1.312  0.00  0.00    -0.130 A 
ATOM     22  C   LIG    1       -3.433  -4.484  -2.100  0.00  0.00    +0.060 A 
ATOM     23  C   LIG    1       -2.319  -3.675  -1.980  0.00  0.00    -0.020 A 
BRANCH  18  24
ATOM     24  O   LIG    1       -1.224  -1.832  -0.949  0.00  0.00    -0.310 OA
BRANCH  24  25
ATOM     25  C   LIG    1       -1.293  -0.775   0.010  0.00  0.00    +0.230 C 
BRANCH  25  27
ATOM     26  C   LIG    1       -0.016   1.306   0.009  0.00  0.00    +0.040 C 
ATOM     27  C   LIG    1        0.002  -0.004   0.002  0.00  0.00    -0.040 C 
ENDBRANCH  25  27
ENDBRANCH  24  25
ENDBRANCH  18  24
ENDBRANCH  17  21
ENDBRANCH   1  17
TORSDOF 6
