REMARK  Name = ZINCrg00000fSJwM.0
REMARK                            x       y       z     vdW  Elec       q    Type
REMARK                         _______ _______ _______ _____ _____    ______ ____
ROOT
ATOM      1  C   LIG    1       -4.076  -8.676   3.781  0.00  0.00    +0.000 C 
ATOM      2  C   LIG    1       -2.730  -9.413   3.753  0.00  0.00    +0.320 C 
ATOM      3  N   LIG    1       -2.111  -8.157   3.304  0.00  0.00    -0.660 N 
ATOM      4  C   LIG    1       -1.028  -7.814   2.578  0.00  0.00    +0.740 C 
ATOM      5  N   LIG    1       -0.752  -6.514   2.353  0.00  0.00    -0.740 N 
ATOM      6  H   LIG    1       -1.332  -5.825   2.714  0.00  0.00    +0.400 HD
ATOM      7  O   LIG    1       -0.301  -8.677   2.125  0.00  0.00    -0.580 OA
ATOM      8  C   LIG    1       -3.189  -7.440   4.000  0.00  0.00    +0.270 C 
ENDROOT
BRANCH   1  14
ATOM      9  O   LIG    1       -5.089  -7.032   7.774  0.00  0.00    -0.530 OA
ATOM     10  C   LIG    1       -5.262  -7.644   6.738  0.00  0.00    +0.700 C 
ATOM     11  N   LIG    1       -6.357  -7.525   5.979  0.00  0.00    -0.680 N 
ATOM     12  H   LIG    1       -7.105  -6.944   6.187  0.00  0.00    +0.440 HD
ATOM     13  C   LIG    1       -6.293  -8.314   4.887  0.00  0.00    +0.530 C 
ATOM     14  C   LIG    1       -4.961  -9.031   4.978  0.00  0.00    +0.240 C 
ATOM     15  O   LIG    1       -7.128  -8.426   4.015  0.00  0.00    -0.460 OA
ATOM     16  N   LIG    1       -4.372  -8.518   6.227  0.00  0.00    -0.720 N 
ATOM     17  H   LIG    1       -3.513  -8.763   6.606  0.00  0.00    +0.440 HD
ENDBRANCH   1  14
BRANCH   5  18
ATOM     18  C   LIG    1        0.425  -6.141   1.564  0.00  0.00    +0.330 C 
BRANCH  18  19
ATOM     19  C   LIG    1        0.506  -4.640   1.462  0.00  0.00    -0.140 A 
ATOM     20  C   LIG    1        1.204  -3.920   2.415  0.00  0.00    +0.060 A 
ATOM     21  C   LIG    1        1.280  -2.544   2.325  0.00  0.00    -0.010 A 
ATOM     22  C   LIG    1        0.655  -1.883   1.275  0.00  0.00    +0.120 A 
ATOM     23  C   LIG    1       -0.050  -2.608   0.322  0.00  0.00    -0.050 A 
ATOM     24  C   LIG    1       -0.117  -3.985   0.416  0.00  0.00    +0.050 A 
BRANCH  22  25
ATOM     25  N   LIG    1        0.729  -0.491   1.181  0.00  0.00    -0.490 N 
ATOM     26  C   LIG    1        0.002  -0.004   0.002  0.00  0.00    +0.180 C 
ATOM     27  C   LIG    1       -0.019   1.526   0.010  0.00  0.00    +0.020 C 
ATOM     28  C   LIG    1        1.420   2.051  -0.001  0.00  0.00    +0.010 C 
ATOM     29  C   LIG    1        2.169   1.490   1.211  0.00  0.00    +0.020 C 
ATOM     30  C   LIG    1        2.126  -0.039   1.168  0.00  0.00    +0.180 C 
ENDBRANCH  22  25
ENDBRANCH  18  19
ENDBRANCH   5  18
TORSDOF 4
