REMARK  Name = ZINCpk00000KfKvy.0
REMARK                            x       y       z     vdW  Elec       q    Type
REMARK                         _______ _______ _______ _____ _____    ______ ____
ROOT
ATOM      1  N   LIG    1        0.691  -2.570  -1.371  0.00  0.00    -0.530 NA
ENDROOT
BRANCH   1   2
ATOM      2  C   LIG    1        1.119  -2.223  -0.009  0.00  0.00    +0.480 C 
BRANCH   2  13
ATOM      3  O   LIG    1        3.228  -3.723   0.852  0.00  0.00    -0.510 OA
ATOM      4  C   LIG    1        3.490  -2.616   0.420  0.00  0.00    +0.530 A 
ATOM      5  C   LIG    1        4.875  -2.122   0.370  0.00  0.00    -0.150 A 
ATOM      6  C   LIG    1        5.945  -2.898   0.813  0.00  0.00    +0.090 A 
ATOM      7  C   LIG    1        7.225  -2.392   0.746  0.00  0.00    +0.030 A 
ATOM      8  C   LIG    1        7.455  -1.119   0.242  0.00  0.00    +0.060 A 
ATOM      9  C   LIG    1        6.412  -0.337  -0.200  0.00  0.00    +0.080 A 
ATOM     10  C   LIG    1        5.105  -0.827  -0.143  0.00  0.00    +0.070 A 
ATOM     11  N   LIG    1        4.054  -0.084  -0.570  0.00  0.00    -0.210 NA
ATOM     12  N   LIG    1        2.848  -0.522  -0.523  0.00  0.00    +0.110 NA
ATOM     13  N   LIG    1        2.518  -1.789  -0.033  0.00  0.00    -0.450 N 
ENDBRANCH   2  13
ENDBRANCH   1   2
BRANCH   1  14
ATOM     14  C   LIG    1       -0.752  -2.357  -1.539  0.00  0.00    +0.210 C 
BRANCH  14  15
ATOM     15  C   LIG    1       -1.035  -0.858  -1.665  0.00  0.00    +0.150 C 
ATOM     16  C   LIG    1       -2.550  -0.609  -1.837  0.00  0.00    +0.010 C 
ATOM     17  C   LIG    1       -2.626   0.569  -2.833  0.00  0.00    +0.000 C 
ATOM     18  C   LIG    1       -1.149   0.893  -3.145  0.00  0.00    +0.190 C 
ATOM     19  O   LIG    1       -0.436  -0.332  -2.869  0.00  0.00    -0.340 OA
ENDBRANCH  14  15
ENDBRANCH   1  14
BRANCH   1  20
ATOM     20  C   LIG    1        1.061  -3.952  -1.702  0.00  0.00    +0.190 C 
BRANCH  20  21
ATOM     21  C   LIG    1        0.829  -4.199  -3.194  0.00  0.00    +0.150 C 
ATOM     22  C   LIG    1        1.092  -5.681  -3.542  0.00  0.00    +0.010 C 
ATOM     23  C   LIG    1        1.756  -5.627  -4.936  0.00  0.00    +0.000 C 
ATOM     24  C   LIG    1        1.815  -4.119  -5.266  0.00  0.00    +0.190 C 
ATOM     25  O   LIG    1        1.787  -3.459  -3.982  0.00  0.00    -0.350 OA
ENDBRANCH  20  21
ENDBRANCH   1  20
TORSDOF 6
