REMARK  Name = ZINCrD000000Ata8.1
REMARK                            x       y       z     vdW  Elec       q    Type
REMARK                         _______ _______ _______ _____ _____    ______ ____
ROOT
ATOM      1  C   LIG    1        3.558   2.909  -0.016  0.00  0.00    +0.110 C 
ENDROOT
BRANCH   1   3
ATOM      2  O   LIG    1        5.527   1.608  -0.040  0.00  0.00    -0.520 OA
ATOM      3  C   LIG    1        5.053   2.725  -0.030  0.00  0.00    +0.530 C 
ATOM      4  N   LIG    1        5.865   3.801  -0.033  0.00  0.00    -0.720 N 
ATOM      5  H   LIG    1        5.486   4.694  -0.025  0.00  0.00    +0.410 HD
BRANCH   4   6
ATOM      6  C   LIG    1        7.319   3.622  -0.047  0.00  0.00    +0.340 C 
BRANCH   6   7
ATOM      7  C   LIG    1        7.991   4.971  -0.046  0.00  0.00    -0.110 A 
ATOM      8  C   LIG    1        8.293   5.591  -1.244  0.00  0.00    +0.050 A 
ATOM      9  C   LIG    1        8.905   6.831  -1.249  0.00  0.00    +0.040 A 
ATOM     10  C   LIG    1        9.227   7.450  -0.052  0.00  0.00    +0.040 A 
ATOM     11  O   LIG    1        9.827   8.646   0.215  0.00  0.00    -0.310 OA
ATOM     12  C   LIG    1       10.261   8.561   1.586  0.00  0.00    +0.440 C 
ATOM     13  O   LIG    1        9.341   7.625   2.178  0.00  0.00    -0.310 OA
ATOM     14  C   LIG    1        8.928   6.822   1.155  0.00  0.00    +0.030 A 
ATOM     15  C   LIG    1        8.310   5.582   1.152  0.00  0.00    +0.060 A 
ENDBRANCH   6   7
ENDBRANCH   4   6
ENDBRANCH   1   3
BRANCH   1  16
ATOM     16  S   LIG    1        2.750   1.289  -0.016  0.00  0.00    +0.090 S 
BRANCH  16  17
ATOM     17  C   LIG    1        1.061   1.789   0.002  0.00  0.00    +0.250 A 
ATOM     18  N   LIG    1        0.622   3.029   0.012  0.00  0.00    -0.530 NA
ATOM     19  C   LIG    1       -0.719   3.033   0.025  0.00  0.00    +0.260 A 
ATOM     20  N   LIG    1       -1.147   1.791   0.017  0.00  0.00    -0.260 NA
ATOM     21  N   LIG    1       -0.011   0.966   0.007  0.00  0.00    -0.460 N 
ATOM     22  H   LIG    1        0.002  -0.004   0.002  0.00  0.00    +0.450 HD
BRANCH  19  23
ATOM     23  C   LIG    1       -1.578   4.242   0.040  0.00  0.00    +0.010 A 
ATOM     24  C   LIG    1       -1.001   5.510   0.047  0.00  0.00    +0.070 A 
ATOM     25  C   LIG    1       -1.806   6.632   0.055  0.00  0.00    +0.030 A 
ATOM     26  C   LIG    1       -3.182   6.499   0.068  0.00  0.00    +0.040 A 
ATOM     27  C   LIG    1       -3.761   5.243   0.067  0.00  0.00    +0.040 A 
ATOM     28  C   LIG    1       -2.967   4.114   0.052  0.00  0.00    -0.070 A 
ATOM     29 BR   LIG    1       -3.760   2.397   0.051  0.00  0.00    -0.010 Br
ENDBRANCH  19  23
ENDBRANCH  16  17
ENDBRANCH   1  16
TORSDOF 6
