REMARK  Name = ZINCqH0000001EEG.0
REMARK                            x       y       z     vdW  Elec       q    Type
REMARK                         _______ _______ _______ _____ _____    ______ ____
ROOT
ATOM      1  N   LIG    1        0.277   0.036  -0.218  0.00  0.00    -0.740 N 
ATOM      2  H   LIG    1        1.135  -0.416  -0.215  0.00  0.00    +0.390 HD
ATOM      3  C   LIG    1        0.224   1.383  -0.224  0.00  0.00    +0.510 C 
ATOM      4  O   LIG    1       -0.849   1.948  -0.233  0.00  0.00    -0.530 OA
ENDROOT
BRANCH   1   5
ATOM      5  C   LIG    1       -0.963  -0.745  -0.218  0.00  0.00    +0.280 C 
BRANCH   5   6
ATOM      6  C   LIG    1       -0.627  -2.234  -0.329  0.00  0.00    +0.060 C 
BRANCH   6   7
ATOM      7  C   LIG    1        0.062  -2.498  -1.643  0.00  0.00    +0.090 A 
ATOM      8  C   LIG    1       -0.544  -2.673  -2.840  0.00  0.00    -0.110 A 
ATOM      9  C   LIG    1        0.452  -2.890  -3.798  0.00  0.00    +0.230 A 
ATOM     10  N   LIG    1        1.613  -2.846  -3.198  0.00  0.00    -0.290 NA
ATOM     11  N   LIG    1        1.394  -2.595  -1.837  0.00  0.00    -0.370 N 
ATOM     12  C   LIG    1        2.427  -2.463  -0.807  0.00  0.00    +0.340 C 
ENDBRANCH   6   7
BRANCH   6  14
ATOM     13  C   LIG    1       -1.574  -4.545  -0.266  0.00  0.00    +0.020 C 
ATOM     14  C   LIG    1       -1.917  -3.054  -0.255  0.00  0.00    +0.000 C 
ATOM     15  C   LIG    1       -2.666  -2.713   1.034  0.00  0.00    +0.030 C 
ENDBRANCH   6  14
ENDBRANCH   5   6
ENDBRANCH   1   5
BRANCH   3  16
ATOM     16  C   LIG    1        1.499   2.186  -0.224  0.00  0.00    +0.040 C 
BRANCH  16  17
ATOM     17  C   LIG    1        1.161   3.679  -0.231  0.00  0.00    +0.040 C 
BRANCH  17  18
ATOM     18  C   LIG    1        2.455   4.495  -0.231  0.00  0.00    +0.100 C 
BRANCH  18  19
ATOM     19  C   LIG    1        2.123   5.964  -0.237  0.00  0.00    -0.170 A 
ATOM     20  C   LIG    1        2.046   6.761  -1.315  0.00  0.00    +0.220 A 
ATOM     21  N   LIG    1        1.717   8.033  -0.932  0.00  0.00    -0.600 N 
ATOM     22  H   LIG    1        1.601   8.784  -1.535  0.00  0.00    +0.420 HD
ATOM     23  C   LIG    1        1.579   8.089   0.437  0.00  0.00    +0.090 A 
ATOM     24  C   LIG    1        1.266   9.111   1.326  0.00  0.00    -0.010 A 
ATOM     25  C   LIG    1        1.204   8.848   2.677  0.00  0.00    +0.020 A 
ATOM     26  C   LIG    1        1.450   7.570   3.161  0.00  0.00    -0.030 A 
ATOM     27  C   LIG    1        1.759   6.551   2.305  0.00  0.00    +0.050 A 
ATOM     28  C   LIG    1        1.827   6.796   0.932  0.00  0.00    -0.100 A 
ENDBRANCH  18  19
ENDBRANCH  17  18
ENDBRANCH  16  17
ENDBRANCH   3  16
TORSDOF 8
