REMARK  Name = ZINCrD00000hQ64V.0
REMARK                            x       y       z     vdW  Elec       q    Type
REMARK                         _______ _______ _______ _____ _____    ______ ____
ROOT
ATOM      1  C   LIG    1        0.532   1.801   4.906  0.00  0.00    +0.550 C 
ATOM      2  N   LIG    1        0.158   2.222   6.130  0.00  0.00    -0.590 N 
ATOM      3  C   LIG    1       -1.242   2.579   6.423  0.00  0.00    +0.260 C 
ATOM      4  C   LIG    1       -1.258   3.928   7.142  0.00  0.00    +0.160 C 
ATOM      5  O   LIG    1       -0.401   3.875   8.284  0.00  0.00    -0.360 OA
ATOM      6  C   LIG    1        0.982   3.673   7.970  0.00  0.00    +0.240 C 
ATOM      7  C   LIG    1        1.131   2.349   7.222  0.00  0.00    +0.110 C 
ATOM      8  C   LIG    1        2.570   2.031   6.805  0.00  0.00    +0.050 C 
ATOM      9  C   LIG    1        2.270   0.571   7.191  0.00  0.00    +0.020 C 
ATOM     10  C   LIG    1        1.190   1.123   8.138  0.00  0.00    +0.020 C 
ATOM     11  O   LIG    1        1.699   1.564   4.676  0.00  0.00    -0.520 OA
ENDROOT
BRANCH   1  14
ATOM     12  C   LIG    1       -0.013   1.143   2.454  0.00  0.00    +0.010 C 
ATOM     13  C   LIG    1       -0.803   0.197   3.360  0.00  0.00    +0.060 C 
ATOM     14  C   LIG    1       -0.500   1.624   3.822  0.00  0.00    -0.080 C 
BRANCH  12  16
ATOM     15  C   LIG    1       -0.018   1.193  -0.044  0.00  0.00    +0.030 C 
ATOM     16  C   LIG    1       -0.725   1.694   1.217  0.00  0.00    +0.040 C 
ENDBRANCH  12  16
ENDBRANCH   1  14
BRANCH   4  17
ATOM     17  C   LIG    1       -2.685   4.250   7.590  0.00  0.00    +0.100 C 
BRANCH  17  18
ATOM     18  C   LIG    1       -2.724   5.635   8.183  0.00  0.00    +0.520 C 
ATOM     19  N   LIG    1       -3.885   6.137   8.648  0.00  0.00    -0.680 N 
ATOM     20  H   LIG    1       -4.679   5.580   8.671  0.00  0.00    +0.410 HD
ATOM     21  O   LIG    1       -1.710   6.299   8.241  0.00  0.00    -0.500 OA
BRANCH  19  22
ATOM     22  C   LIG    1       -3.946   7.460   9.097  0.00  0.00    +0.180 A 
ATOM     23  C   LIG    1       -4.777   7.798  10.157  0.00  0.00    -0.030 A 
ATOM     24  C   LIG    1       -4.831   9.104  10.604  0.00  0.00    +0.070 A 
ATOM     25  C   LIG    1       -4.067  10.078   9.989  0.00  0.00    -0.030 A 
ATOM     26  C   LIG    1       -3.241   9.747   8.927  0.00  0.00    +0.120 A 
ATOM     27  F   LIG    1       -2.496  10.702   8.329  0.00  0.00    -0.140 F 
ATOM     28  C   LIG    1       -3.179   8.440   8.481  0.00  0.00    -0.020 A 
ENDBRANCH  19  22
ENDBRANCH  17  18
ENDBRANCH   4  17
TORSDOF 5
