REMARK  Name = ZINC650000002Juz.0
REMARK                            x       y       z     vdW  Elec       q    Type
REMARK                         _______ _______ _______ _____ _____    ______ ____
ROOT
ATOM      1  C   LIG    1       -0.013   1.086   0.008  0.00  0.00    +0.190 C 
ATOM      2  C   LIG    1        1.426   1.641  -0.003  0.00  0.00    +0.080 C 
ATOM      3  C   LIG    1        1.529   2.465  -1.304  0.00  0.00    +0.280 C 
ATOM      4  N   LIG    1        0.126   2.836  -1.624  0.00  0.00    -0.520 N 
ATOM      5  H   LIG    1        0.034   3.058  -2.604  0.00  0.00    +0.430 HD
ATOM      6  H   LIG    1       -0.170   3.616  -1.056  0.00  0.00    +0.440 HD
ATOM      7  C   LIG    1       -0.659   1.620  -1.288  0.00  0.00    +0.240 C 
ENDROOT
BRANCH   1   8
ATOM      8  O   LIG    1       -0.721   1.565   1.153  0.00  0.00    -0.550 OA
ATOM      9  H   LIG    1       -1.639   1.266   1.201  0.00  0.00    +0.400 HD
ENDBRANCH   1   8
TORSDOF 1
