REMARK  Name = ZINCkj000005jlPs.1
REMARK                            x       y       z     vdW  Elec       q    Type
REMARK                         _______ _______ _______ _____ _____    ______ ____
ROOT
ATOM      1  C   LIG    1        1.154   3.541  -0.044  0.00  0.00    +0.110 C 
ATOM      2  C   LIG    1        1.285   2.018   0.001  0.00  0.00    +0.160 C 
ATOM      3  C   LIG    1        2.050   1.534  -1.234  0.00  0.00    +0.240 C 
ATOM      4  N   LIG    1        2.124   0.067  -1.217  0.00  0.00    -0.380 N 
ATOM      5  C   LIG    1        0.765  -0.492  -1.232  0.00  0.00    +0.250 C 
ATOM      6  C   LIG    1        0.002  -0.004   0.002  0.00  0.00    +0.160 C 
ATOM      7  H   LIG    1        2.603  -0.237  -0.383  0.00  0.00    +0.420 HD
ATOM      8  O   LIG    1       -0.017   1.426   0.010  0.00  0.00    -0.340 OA
ENDROOT
BRANCH   6   9
ATOM      9  C   LIG    1       -1.433  -0.534  -0.042  0.00  0.00    +0.230 C 
BRANCH   9  10
ATOM     10  O   LIG    1       -2.111  -0.172   1.163  0.00  0.00    -0.560 OA
ATOM     11  H   LIG    1       -3.028  -0.477   1.204  0.00  0.00    +0.400 HD
ENDBRANCH   9  10
ENDBRANCH   6   9
BRANCH   4  12
ATOM     12  C   LIG    1        2.858  -0.400  -2.401  0.00  0.00    +0.320 C 
BRANCH  12  13
ATOM     13  C   LIG    1        4.288   0.071  -2.323  0.00  0.00    -0.160 A 
ATOM     14  C   LIG    1        4.686   1.181  -3.042  0.00  0.00    +0.040 A 
ATOM     15  C   LIG    1        5.997   1.613  -2.970  0.00  0.00    +0.030 A 
ATOM     16  C   LIG    1        6.904   0.933  -2.183  0.00  0.00    +0.060 A 
ATOM     17  C   LIG    1        6.506  -0.183  -1.463  0.00  0.00    -0.110 A 
ATOM     18  C   LIG    1        7.529  -0.906  -0.625  0.00  0.00    +0.290 C 
ATOM     19  O   LIG    1        6.877  -1.761   0.319  0.00  0.00    -0.370 OA
ATOM     20  C   LIG    1        5.923  -2.638  -0.291  0.00  0.00    +0.230 C 
ATOM     21  C   LIG    1        4.721  -1.806  -0.744  0.00  0.00    +0.040 C 
ATOM     22  C   LIG    1        5.196  -0.608  -1.527  0.00  0.00    -0.050 A 
ENDBRANCH  12  13
ENDBRANCH   4  12
TORSDOF 4
