REMARK  Name = ZINCkj000005jlPs.2
REMARK                            x       y       z     vdW  Elec       q    Type
REMARK                         _______ _______ _______ _____ _____    ______ ____
ROOT
ATOM      1  C   LIG    1       -1.675   4.917   1.800  0.00  0.00    +0.110 C 
ATOM      2  C   LIG    1       -1.637   3.412   2.070  0.00  0.00    +0.150 C 
ATOM      3  C   LIG    1       -0.980   3.151   3.428  0.00  0.00    +0.230 C 
ATOM      4  N   LIG    1       -0.893   1.702   3.657  0.00  0.00    -0.380 N 
ATOM      5  C   LIG    1       -0.086   1.086   2.595  0.00  0.00    +0.260 C 
ATOM      6  C   LIG    1       -0.743   1.351   1.238  0.00  0.00    +0.160 C 
ATOM      7  H   LIG    1       -0.461   1.528   4.552  0.00  0.00    +0.430 HD
ATOM      8  O   LIG    1       -0.877   2.762   1.046  0.00  0.00    -0.340 OA
ENDROOT
BRANCH   6   9
ATOM      9  C   LIG    1        0.127   0.764   0.125  0.00  0.00    +0.230 C 
BRANCH   9  10
ATOM     10  O   LIG    1       -0.542   0.911  -1.129  0.00  0.00    -0.560 OA
ATOM     11  H   LIG    1       -0.047   0.560  -1.882  0.00  0.00    +0.400 HD
ENDBRANCH   9  10
ENDBRANCH   6   9
BRANCH   4  12
ATOM     12  C   LIG    1       -2.243   1.122   3.644  0.00  0.00    +0.310 C 
BRANCH  12  13
ATOM     13  C   LIG    1       -3.025   1.644   4.822  0.00  0.00    -0.150 A 
ATOM     14  C   LIG    1       -3.926   2.676   4.646  0.00  0.00    +0.040 A 
ATOM     15  C   LIG    1       -4.647   3.151   5.725  0.00  0.00    +0.030 A 
ATOM     16  C   LIG    1       -4.454   2.603   6.977  0.00  0.00    +0.060 A 
ATOM     17  C   LIG    1       -3.545   1.572   7.157  0.00  0.00    -0.110 A 
ATOM     18  C   LIG    1       -3.355   1.006   8.540  0.00  0.00    +0.290 C 
ATOM     19  O   LIG    1       -2.689  -0.254   8.471  0.00  0.00    -0.360 OA
ATOM     20  C   LIG    1       -1.480  -0.210   7.705  0.00  0.00    +0.230 C 
ATOM     21  C   LIG    1       -1.846  -0.038   6.230  0.00  0.00    +0.040 C 
ATOM     22  C   LIG    1       -2.833   1.091   6.078  0.00  0.00    -0.050 A 
ENDBRANCH  12  13
ENDBRANCH   4  12
TORSDOF 4
