REMARK  Name = ZINCqH0000032TMj.0
REMARK                            x       y       z     vdW  Elec       q    Type
REMARK                         _______ _______ _______ _____ _____    ______ ____
ROOT
ATOM      1  C   LIG    1        4.721   7.086  -0.063  0.00  0.00    +0.540 C 
ENDROOT
BRANCH   1   2
ATOM      2  N   LIG    1        4.250   5.733  -0.368  0.00  0.00    -0.370 N 
ATOM      3  N   LIG    1        2.954   5.368  -0.759  0.00  0.00    -0.250 NA
ATOM      4  C   LIG    1        2.941   4.079  -0.936  0.00  0.00    +0.290 A 
ATOM      5  O   LIG    1        4.170   3.584  -0.672  0.00  0.00    -0.210 OA
ATOM      6  C   LIG    1        4.981   4.599  -0.328  0.00  0.00    +0.420 A 
ATOM      7  S   LIG    1        6.636   4.475   0.092  0.00  0.00    -0.460 S 
BRANCH   4   8
ATOM      8  C   LIG    1        1.766   3.282  -1.353  0.00  0.00    -0.040 A 
ATOM      9  C   LIG    1        1.878   1.899  -1.509  0.00  0.00    +0.090 A 
ATOM     10  C   LIG    1        0.779   1.161  -1.899  0.00  0.00    +0.040 A 
ATOM     11  C   LIG    1       -0.431   1.790  -2.139  0.00  0.00    -0.000 A 
ATOM     12  C   LIG    1       -0.548   3.161  -1.980  0.00  0.00    +0.040 A 
ATOM     13 CL   LIG    1       -1.807   0.856  -2.635  0.00  0.00    -0.050 Cl
ATOM     14  C   LIG    1        0.543   3.909  -1.591  0.00  0.00    +0.100 A 
ENDBRANCH   4   8
ENDBRANCH   1   2
BRANCH   1  15
ATOM     15  N   LIG    1        4.229   7.489   1.262  0.00  0.00    -0.530 NA
BRANCH  15  16
ATOM     16  C   LIG    1        5.115   6.996   2.325  0.00  0.00    +0.190 C 
ATOM     17  C   LIG    1        4.301   6.757   3.608  0.00  0.00    +0.080 C 
ATOM     18  C   LIG    1        5.326   6.567   4.755  0.00  0.00    -0.310 C 
ATOM     19  S   LIG    1        6.565   7.871   4.404  0.00  0.00    +2.390 S 
ATOM     20  O   LIG    1        7.871   7.338   4.571  0.00  0.00    -0.930 OA
ATOM     21  O   LIG    1        6.194   9.066   5.078  0.00  0.00    -0.930 OA
ATOM     22  C   LIG    1        6.203   8.047   2.621  0.00  0.00    -0.350 C 
ENDBRANCH  15  16
BRANCH  15  23
ATOM     23  C   LIG    1        4.069   8.947   1.343  0.00  0.00    +0.200 C 
BRANCH  23  24
ATOM     24  C   LIG    1        3.503   9.322   2.714  0.00  0.00    +0.020 C 
BRANCH  24  26
ATOM     25  C   LIG    1        2.627  11.195   4.117  0.00  0.00    +0.010 C 
ATOM     26  C   LIG    1        3.193  10.820   2.746  0.00  0.00    +0.010 C 
ENDBRANCH  24  26
ENDBRANCH  23  24
ENDBRANCH  15  23
ENDBRANCH   1  15
TORSDOF 7
