REMARK  Name = ZINCqH00000327GD.1
REMARK                            x       y       z     vdW  Elec       q    Type
REMARK                         _______ _______ _______ _____ _____    ______ ____
ROOT
ATOM      1  C   LIG    1        6.421   6.929   1.415  0.00  0.00    +0.220 C 
ENDROOT
BRANCH   1   6
ATOM      2  C   LIG    1        7.997   7.441   4.812  0.00  0.00    +0.140 A 
ATOM      3  C   LIG    1        6.984   8.110   5.486  0.00  0.00    +0.020 A 
ATOM      4  C   LIG    1        5.796   8.392   4.840  0.00  0.00    +0.030 A 
ATOM      5  C   LIG    1        5.617   8.014   3.522  0.00  0.00    -0.010 A 
ATOM      6  C   LIG    1        6.622   7.344   2.849  0.00  0.00    -0.070 A 
ATOM      7  C   LIG    1        7.812   7.059   3.489  0.00  0.00    +0.010 A 
BRANCH   2   9
ATOM      8  C   LIG    1        9.704   8.020   6.365  0.00  0.00    +0.520 C 
ATOM      9  N   LIG    1        9.202   7.154   5.463  0.00  0.00    -0.670 N 
ATOM     10  H   LIG    1        9.675   6.331   5.266  0.00  0.00    +0.410 HD
ATOM     11  O   LIG    1        9.071   9.008   6.675  0.00  0.00    -0.520 OA
BRANCH   8  13
ATOM     12  C   LIG    1       12.118   7.708   5.895  0.00  0.00    +0.040 C 
ATOM     13  C   LIG    1       11.051   7.762   6.989  0.00  0.00    -0.010 C 
ATOM     14  C   LIG    1       11.383   8.888   7.971  0.00  0.00    +0.050 C 
ENDBRANCH   8  13
ENDBRANCH   2   9
ENDBRANCH   1   6
BRANCH   1  15
ATOM     15  N   LIG    1        5.838   5.582   1.371  0.00  0.00    -0.680 NA
ATOM     16  H   LIG    1        4.978   5.543   1.897  0.00  0.00    +0.340 HD
BRANCH  15  17
ATOM     17  C   LIG    1        5.628   5.144  -0.015  0.00  0.00    +0.260 C 
BRANCH  17  18
ATOM     18  C   LIG    1        5.029   3.760  -0.019  0.00  0.00    -0.220 A 
ATOM     19  C   LIG    1        3.709   3.464  -0.006  0.00  0.00    +0.230 A 
ATOM     20  N   LIG    1        3.590   2.117  -0.017  0.00  0.00    -0.320 N 
ATOM     21  N   LIG    1        4.880   1.571  -0.031  0.00  0.00    -0.290 NA
ATOM     22  C   LIG    1        5.741   2.556  -0.038  0.00  0.00    +0.270 A 
BRANCH  20  23
ATOM     23  C   LIG    1        2.389   1.395  -0.008  0.00  0.00    +0.160 A 
ATOM     24  C   LIG    1        1.174   2.067   0.014  0.00  0.00    -0.010 A 
ATOM     25  C   LIG    1       -0.009   1.353   0.024  0.00  0.00    +0.040 A 
ATOM     26  C   LIG    1        0.017  -0.030   0.011  0.00  0.00    +0.000 A 
ATOM     27  C   LIG    1        1.225  -0.702  -0.011  0.00  0.00    +0.040 A 
ATOM     28  C   LIG    1        2.411   0.007  -0.020  0.00  0.00    +0.020 A 
ENDBRANCH  20  23
ENDBRANCH  17  18
ENDBRANCH  15  17
ENDBRANCH   1  15
TORSDOF 7
