REMARK  Name = ZINCc70000002rsm.1
REMARK                            x       y       z     vdW  Elec       q    Type
REMARK                         _______ _______ _______ _____ _____    ______ ____
ROOT
ATOM      1  C   LIG    1        2.045   0.594  -0.014  0.00  0.00    +0.160 A 
ATOM      2  N   LIG    1        1.220  -0.419  -0.012  0.00  0.00    -0.220 NA
ATOM      3  N   LIG    1        0.002  -0.004   0.002  0.00  0.00    -0.260 NA
ATOM      4  C   LIG    1       -0.016   1.319   0.009  0.00  0.00    +0.350 A 
ATOM      5  N   LIG    1       -1.006   2.221   0.029  0.00  0.00    -0.430 NA
ATOM      6  C   LIG    1       -0.744   3.507   0.028  0.00  0.00    +0.380 A 
ATOM      7  C   LIG    1        0.583   3.962   0.018  0.00  0.00    -0.030 A 
ATOM      8  C   LIG    1        1.595   3.060   0.003  0.00  0.00    +0.300 A 
ATOM      9  N   LIG    1        1.295   1.730  -0.001  0.00  0.00    -0.430 N 
ENDROOT
BRANCH   1  11
ATOM     10  C   LIG    1        4.027   0.128  -1.430  0.00  0.00    +0.010 C 
ATOM     11  C   LIG    1        3.550   0.519  -0.029  0.00  0.00    +0.280 C 
BRANCH  11  12
ATOM     12  N   LIG    1        4.000  -0.488   0.940  0.00  0.00    -0.840 NA
ATOM     13  H   LIG    1        5.007  -0.512   0.996  0.00  0.00    +0.350 HD
ATOM     14  H   LIG    1        3.628  -1.399   0.715  0.00  0.00    +0.360 HD
ENDBRANCH  11  12
ENDBRANCH   1  11
TORSDOF 2
