REMARK  Name = ZINCkj000005biA5.0
REMARK                            x       y       z     vdW  Elec       q    Type
REMARK                         _______ _______ _______ _____ _____    ______ ____
ROOT
ATOM      1  C   LIG    1        2.512   0.801   1.343  0.00  0.00    +0.230 C 
ATOM      2  C   LIG    1        2.247   0.186  -0.035  0.00  0.00    +0.020 C 
ATOM      3  C   LIG    1        1.108  -0.830   0.074  0.00  0.00    +0.030 C 
ATOM      4  C   LIG    1        1.513  -1.951   1.034  0.00  0.00    +0.020 C 
ATOM      5  C   LIG    1        1.769  -1.360   2.424  0.00  0.00    +0.280 C 
ATOM      6  N   LIG    1        2.760  -0.282   2.304  0.00  0.00    -0.600 N 
ATOM      7  C   LIG    1        3.874  -0.286   3.061  0.00  0.00    +0.590 C 
ATOM      8  O   LIG    1        4.673   0.626   2.973  0.00  0.00    -0.540 OA
ENDROOT
BRANCH   7   9
ATOM      9  C   LIG    1        4.126  -1.398   3.998  0.00  0.00    -0.260 A 
ATOM     10  C   LIG    1        5.421  -1.859   4.194  0.00  0.00    +0.250 A 
ATOM     11  C   LIG    1        5.613  -2.918   5.099  0.00  0.00    -0.280 A 
ATOM     12  C   LIG    1        6.712  -3.629   5.553  0.00  0.00    +0.340 A 
ATOM     13  N   LIG    1        6.274  -4.545   6.423  0.00  0.00    -0.400 N 
ATOM     14  H   LIG    1        6.838  -5.179   6.893  0.00  0.00    +0.460 HD
ATOM     15  N   LIG    1        4.885  -4.453   6.558  0.00  0.00    -0.280 NA
ATOM     16  C   LIG    1        4.437  -3.486   5.780  0.00  0.00    +0.280 A 
ATOM     17  N   LIG    1        3.219  -2.979   5.524  0.00  0.00    -0.460 NA
ATOM     18  C   LIG    1        3.051  -1.993   4.686  0.00  0.00    +0.380 A 
ENDBRANCH   7   9
BRANCH   1  20
ATOM     19  C   LIG    1        4.901   0.960   0.627  0.00  0.00    +0.090 C 
ATOM     20  C   LIG    1        3.737   1.715   1.273  0.00  0.00    +0.200 C 
BRANCH  20  21
ATOM     21  N   LIG    1        3.417   2.902   0.469  0.00  0.00    -0.640 N 
ATOM     22  H   LIG    1        3.253   2.626  -0.488  0.00  0.00    +0.420 HD
ATOM     23  H   LIG    1        4.189   3.550   0.504  0.00  0.00    +0.440 HD
ATOM     24  H   LIG    1        2.589   3.345   0.837  0.00  0.00    +0.430 HD
ENDBRANCH  20  21
ENDBRANCH   1  20
TORSDOF 3
