REMARK  Name = ZINC550000002Dw3.0
REMARK                            x       y       z     vdW  Elec       q    Type
REMARK                         _______ _______ _______ _____ _____    ______ ____
ROOT
ATOM      1  C   LIG    1       -0.013   1.086   0.008  0.00  0.00    +0.030 C 
ENDROOT
BRANCH   1   2
ATOM      2  C   LIG    1       -0.753   1.593  -1.232  0.00  0.00    +0.300 C 
BRANCH   2   3
ATOM      3  N   LIG    1       -0.065   1.119  -2.440  0.00  0.00    -0.640 N 
ATOM      4  H   LIG    1       -0.051   0.110  -2.446  0.00  0.00    +0.440 HD
ATOM      5  H   LIG    1        0.881   1.468  -2.447  0.00  0.00    +0.440 HD
ATOM      6  H   LIG    1       -0.553   1.453  -3.258  0.00  0.00    +0.450 HD
ENDBRANCH   2   3
ENDBRANCH   1   2
BRANCH   1   7
ATOM      7  C   LIG    1       -0.729   1.579   1.267  0.00  0.00    +0.300 C 
BRANCH   7   8
ATOM      8  N   LIG    1       -0.018   1.093   2.457  0.00  0.00    -0.640 N 
ATOM      9  H   LIG    1       -0.005   0.084   2.451  0.00  0.00    +0.440 HD
ATOM     10  H   LIG    1       -0.491   1.418   3.287  0.00  0.00    +0.450 HD
ATOM     11  H   LIG    1        0.928   1.442   2.450  0.00  0.00    +0.440 HD
ENDBRANCH   7   8
ENDBRANCH   1   7
TORSDOF 4
