REMARK  Name = ZINCnE000005tkxD.0
REMARK                            x       y       z     vdW  Elec       q    Type
REMARK                         _______ _______ _______ _____ _____    ______ ____
ROOT
ATOM      1  C   LIG    1       -0.229   5.291  -0.431  0.00  0.00    +0.570 C 
ATOM      2  N   LIG    1        0.887   6.034  -0.572  0.00  0.00    -1.110 NA
ATOM      3  O   LIG    1       -1.322   5.819  -0.493  0.00  0.00    -0.610 OA
ENDROOT
BRANCH   1  10
ATOM      4  C   LIG    1       -2.614   3.761   0.136  0.00  0.00    +0.110 C 
ATOM      5  C   LIG    1       -1.268   3.084   0.073  0.00  0.00    -0.010 A 
ATOM      6  C   LIG    1       -1.172   1.723   0.282  0.00  0.00    -0.010 A 
ATOM      7  C   LIG    1        0.057   1.095   0.232  0.00  0.00    +0.070 A 
ATOM      8  C   LIG    1        1.211   1.833  -0.042  0.00  0.00    -0.070 A 
ATOM      9  C   LIG    1        1.120   3.208  -0.260  0.00  0.00    +0.140 A 
ATOM     10  C   LIG    1       -0.123   3.834  -0.202  0.00  0.00    -0.090 A 
BRANCH   8  11
ATOM     11  C   LIG    1        2.484   1.181  -0.101  0.00  0.00    +0.270 C 
ATOM     12  N   LIG    1        3.494   0.662  -0.147  0.00  0.00    -0.440 NA
ENDBRANCH   8  11
ENDBRANCH   1  10
BRANCH   2  13
ATOM     13  S   LIG    1        0.768   7.666  -0.829  0.00  0.00    +2.640 S 
ATOM     14  O   LIG    1        0.221   8.221   0.359  0.00  0.00    -1.010 OA
ATOM     15  O   LIG    1        0.172   7.828  -2.108  0.00  0.00    -1.010 OA
BRANCH  13  16
ATOM     16  C   LIG    1        2.409   8.294  -0.962  0.00  0.00    -0.610 A 
ATOM     17  C   LIG    1        3.074   8.733   0.168  0.00  0.00    +0.160 A 
ATOM     18  C   LIG    1        4.364   9.221   0.065  0.00  0.00    -0.050 A 
ATOM     19  C   LIG    1        4.985   9.280  -1.170  0.00  0.00    +0.100 A 
ATOM     20  C   LIG    1        4.317   8.845  -2.301  0.00  0.00    -0.110 A 
ATOM     21 BR   LIG    1        5.165   8.924  -3.989  0.00  0.00    -0.040 Br
ATOM     22 CL   LIG    1        5.202   9.767   1.484  0.00  0.00    -0.060 Cl
ATOM     23  C   LIG    1        3.029   8.352  -2.196  0.00  0.00    +0.160 A 
ENDBRANCH  13  16
ENDBRANCH   2  13
TORSDOF 4
