REMARK  Name = ZINCrg00000J2NFK.1
REMARK                            x       y       z     vdW  Elec       q    Type
REMARK                         _______ _______ _______ _____ _____    ______ ____
ROOT
ATOM      1  N   LIG    1       -0.380   0.747  -4.803  0.00  0.00    -0.570 N 
ATOM      2  C   LIG    1        0.594   1.720  -5.316  0.00  0.00    +0.290 C 
ATOM      3  C   LIG    1        1.761   1.817  -4.329  0.00  0.00    +0.020 C 
ATOM      4  C   LIG    1        1.220   2.143  -2.935  0.00  0.00    -0.020 C 
ATOM      5  C   LIG    1        0.287   1.022  -2.472  0.00  0.00    +0.160 C 
ATOM      6  C   LIG    1       -0.897   0.916  -3.439  0.00  0.00    +0.300 C 
ENDROOT
BRANCH   1  12
ATOM      7  C   LIG    1       -3.353  -3.110  -5.538  0.00  0.00    +0.320 C 
ATOM      8  N   LIG    1       -2.271  -2.209  -5.945  0.00  0.00    -0.480 N 
ATOM      9  C   LIG    1       -1.635  -2.387  -7.138  0.00  0.00    +0.160 A 
ATOM     10  C   LIG    1       -0.638  -1.562  -7.521  0.00  0.00    +0.190 A 
ATOM     11  N   LIG    1       -0.236  -0.546  -6.758  0.00  0.00    -0.510 NA
ATOM     12  C   LIG    1       -0.804  -0.314  -5.594  0.00  0.00    +0.350 A 
ATOM     13  C   LIG    1       -1.887  -1.193  -5.140  0.00  0.00    +0.480 A 
ATOM     14  O   LIG    1       -2.432  -1.009  -4.064  0.00  0.00    -0.520 OA
ENDBRANCH   1  12
BRANCH   5  15
ATOM     15  N   LIG    1       -0.208   1.322  -1.122  0.00  0.00    -0.670 NA
ATOM     16  H   LIG    1       -0.404   2.306  -1.019  0.00  0.00    +0.340 HD
BRANCH  15  17
ATOM     17  C   LIG    1        0.743   0.864  -0.100  0.00  0.00    +0.280 C 
BRANCH  17  18
ATOM     18  C   LIG    1        0.203   1.188   1.269  0.00  0.00    -0.060 A 
ATOM     19  C   LIG    1       -0.504   0.360   2.069  0.00  0.00    +0.260 A 
ATOM     20  N   LIG    1       -0.802   1.008   3.198  0.00  0.00    -0.480 NA
ATOM     21  C   LIG    1       -0.303   2.234   3.142  0.00  0.00    +0.230 A 
ATOM     22  C   LIG    1       -0.332   3.310   4.055  0.00  0.00    +0.100 A 
ATOM     23  C   LIG    1        0.276   4.479   3.730  0.00  0.00    +0.070 A 
ATOM     24  C   LIG    1        0.931   4.602   2.478  0.00  0.00    -0.040 A 
ATOM     25  C   LIG    1        0.946   3.548   1.610  0.00  0.00    +0.290 A 
ATOM     26  N   LIG    1        0.341   2.375   1.939  0.00  0.00    -0.360 N 
BRANCH  24  27
ATOM     27  C   LIG    1        1.575   5.831   2.125  0.00  0.00    +0.260 C 
ATOM     28  N   LIG    1        2.087   6.806   1.844  0.00  0.00    -0.390 NA
ENDBRANCH  24  27
ENDBRANCH  17  18
ENDBRANCH  15  17
ENDBRANCH   5  15
TORSDOF 5
