REMARK  Name = ZINCvU0000000HFG.0
REMARK                            x       y       z     vdW  Elec       q    Type
REMARK                         _______ _______ _______ _____ _____    ______ ____
ROOT
ATOM      1  C   LIG    1       -4.916   0.348   0.979  0.00  0.00    +0.500 C 
ATOM      2  O   LIG    1       -5.131  -0.709   0.420  0.00  0.00    -0.470 OA
ENDROOT
BRANCH   1   3
ATOM      3  C   LIG    1       -5.929   0.924   1.879  0.00  0.00    -0.080 A 
ATOM      4  C   LIG    1       -5.685   2.137   2.529  0.00  0.00    +0.090 A 
ATOM      5  C   LIG    1       -6.640   2.673   3.365  0.00  0.00    +0.040 A 
ATOM      6  C   LIG    1       -7.839   2.011   3.575  0.00  0.00    +0.050 A 
ATOM      7  C   LIG    1       -8.094   0.810   2.945  0.00  0.00    +0.080 A 
ATOM      8  C   LIG    1       -7.146   0.255   2.094  0.00  0.00    -0.100 A 
BRANCH   8   9
ATOM      9  S   LIG    1       -7.469  -1.278   1.288  0.00  0.00    +0.060 S 
BRANCH   9  10
ATOM     10  C   LIG    1       -6.528  -2.429   2.233  0.00  0.00    -0.040 A 
ATOM     11  C   LIG    1       -5.877  -2.016   3.389  0.00  0.00    -0.010 A 
ATOM     12  C   LIG    1       -5.140  -2.919   4.128  0.00  0.00    +0.060 A 
ATOM     13  C   LIG    1       -5.044  -4.242   3.726  0.00  0.00    +0.010 A 
ATOM     14  C   LIG    1       -5.683  -4.670   2.582  0.00  0.00    +0.090 A 
ATOM     15  C   LIG    1       -6.437  -3.770   1.826  0.00  0.00    -0.020 A 
BRANCH  15  16
ATOM     16  C   LIG    1       -7.109  -4.210   0.641  0.00  0.00    +0.250 C 
ATOM     17  N   LIG    1       -7.642  -4.559  -0.300  0.00  0.00    -0.400 NA
ENDBRANCH  15  16
ENDBRANCH   9  10
ENDBRANCH   8   9
ENDBRANCH   1   3
BRANCH   1  18
ATOM     18  O   LIG    1       -3.750   0.993   0.776  0.00  0.00    -0.330 OA
BRANCH  18  19
ATOM     19  C   LIG    1       -2.798   0.367  -0.123  0.00  0.00    +0.270 C 
BRANCH  19  22
ATOM     20  N   LIG    1       -0.538   0.840  -1.011  0.00  0.00    -0.670 N 
ATOM     21  H   LIG    1       -0.624   0.051  -1.569  0.00  0.00    +0.410 HD
ATOM     22  C   LIG    1       -1.564   1.226  -0.226  0.00  0.00    +0.510 C 
ATOM     23  O   LIG    1       -1.494   2.264   0.398  0.00  0.00    -0.490 OA
BRANCH  20  30
ATOM     24  C   LIG    1        1.858   0.966  -0.730  0.00  0.00    -0.080 A 
ATOM     25  C   LIG    1        3.028   1.699  -0.750  0.00  0.00    +0.020 A 
ATOM     26  C   LIG    1        2.995   3.048  -1.054  0.00  0.00    +0.020 A 
ATOM     27  C   LIG    1        1.792   3.665  -1.343  0.00  0.00    +0.010 A 
ATOM     28  C   LIG    1        0.619   2.936  -1.330  0.00  0.00    -0.070 A 
ATOM     29  C   LIG    1       -0.692   3.610  -1.645  0.00  0.00    +0.090 C 
ATOM     30  C   LIG    1        0.649   1.582  -1.025  0.00  0.00    +0.130 A 
BRANCH  24  32
ATOM     31  C   LIG    1        1.960  -1.321  -1.683  0.00  0.00    +0.020 C 
ATOM     32  C   LIG    1        1.894  -0.503  -0.392  0.00  0.00    +0.060 C 
ENDBRANCH  24  32
ENDBRANCH  20  30
ENDBRANCH  19  22
ENDBRANCH  18  19
ENDBRANCH   1  18
TORSDOF 9
