REMARK  Name = ZINCtV00001bB39R.0
REMARK                            x       y       z     vdW  Elec       q    Type
REMARK                         _______ _______ _______ _____ _____    ______ ____
ROOT
ATOM      1  C   LIG    1        2.424   1.051  -0.015  0.00  0.00    +0.280 A 
ATOM      2  N   LIG    1        3.606   1.622  -0.024  0.00  0.00    -0.470 NA
ATOM      3  C   LIG    1        4.557   0.654  -0.037  0.00  0.00    +0.030 A 
ATOM      4  C   LIG    1        5.953   0.678  -0.050  0.00  0.00    +0.090 A 
ATOM      5  C   LIG    1        6.659  -0.517  -0.062  0.00  0.00    -0.040 A 
ATOM      6  C   LIG    1        5.977  -1.737  -0.062  0.00  0.00    +0.070 A 
ATOM      7  C   LIG    1        4.599  -1.765  -0.050  0.00  0.00    +0.050 A 
ATOM      8  C   LIG    1        3.881  -0.579  -0.037  0.00  0.00    +0.010 A 
ATOM      9  O   LIG    1        2.560  -0.290  -0.018  0.00  0.00    -0.210 OA
ENDROOT
BRANCH   5  10
ATOM     10  C   LIG    1        8.143  -0.500  -0.076  0.00  0.00    -0.050 A 
ATOM     11  C   LIG    1        8.828   0.714  -0.082  0.00  0.00    +0.020 A 
ATOM     12  C   LIG    1       10.208   0.725  -0.090  0.00  0.00    +0.010 A 
ATOM     13  C   LIG    1       10.911  -0.466  -0.102  0.00  0.00    +0.000 A 
ATOM     14  C   LIG    1       10.237  -1.674  -0.101  0.00  0.00    +0.010 A 
ATOM     15  C   LIG    1        8.857  -1.696  -0.088  0.00  0.00    +0.020 A 
ENDBRANCH   5  10
BRANCH   1  17
ATOM     16  C   LIG    1       -0.013   1.076   0.008  0.00  0.00    +0.100 C 
ATOM     17  C   LIG    1        1.146   1.766   0.001  0.00  0.00    +0.090 C 
BRANCH  16  22
ATOM     18  C   LIG    1       -3.709   1.770   0.028  0.00  0.00    +0.130 A 
ATOM     19  C   LIG    1       -3.716   3.156   0.036  0.00  0.00    -0.050 A 
ATOM     20  C   LIG    1       -2.524   3.861   0.035  0.00  0.00    +0.070 A 
ATOM     21  C   LIG    1       -1.320   3.193   0.026  0.00  0.00    +0.010 A 
ATOM     22  C   LIG    1       -1.296   1.794   0.018  0.00  0.00    -0.030 A 
ATOM     23  C   LIG    1       -2.502   1.081   0.014  0.00  0.00    +0.050 A 
BRANCH  18  25
ATOM     24  C   LIG    1       -6.086   1.857   0.038  0.00  0.00    +0.250 C 
ATOM     25  O   LIG    1       -4.884   1.085   0.029  0.00  0.00    -0.300 OA
ENDBRANCH  18  25
BRANCH  23  26
ATOM     26  O   LIG    1       -2.492  -0.278   0.001  0.00  0.00    -0.320 OA
BRANCH  26  27
ATOM     27  C   LIG    1       -2.485  -0.939   1.268  0.00  0.00    +0.580 C 
ATOM     28  F   LIG    1       -3.628  -0.578   1.989  0.00  0.00    -0.200 F 
ATOM     29  F   LIG    1       -1.344  -0.561   1.984  0.00  0.00    -0.200 F 
ENDBRANCH  26  27
ENDBRANCH  23  26
ENDBRANCH  16  22
ENDBRANCH   1  17
TORSDOF 6
