REMARK  Name = ZINCrD00000hQ5CR.0
REMARK                            x       y       z     vdW  Elec       q    Type
REMARK                         _______ _______ _______ _____ _____    ______ ____
ROOT
ATOM      1  C   LIG    1       -2.501   1.027   0.027  0.00  0.00    +0.560 C 
ATOM      2  N   LIG    1       -2.493  -0.321   0.009  0.00  0.00    -0.720 N 
ATOM      3  H   LIG    1       -1.651  -0.801  -0.002  0.00  0.00    +0.400 HD
ATOM      4  O   LIG    1       -3.558   1.628   0.041  0.00  0.00    -0.510 OA
ENDROOT
BRANCH   2   5
ATOM      5  C   LIG    1       -3.758  -1.061   0.008  0.00  0.00    +0.300 C 
ATOM      6  C   LIG    1       -4.255  -1.223   1.447  0.00  0.00    -0.000 C 
ATOM      7  C   LIG    1       -5.403  -2.240   1.448  0.00  0.00    +0.250 C 
ATOM      8  O   LIG    1       -4.880  -3.509   1.051  0.00  0.00    -0.310 OA
ATOM      9  C   LIG    1       -4.111  -3.557  -0.067  0.00  0.00    +0.150 A 
ATOM     10  C   LIG    1       -3.895  -4.792  -0.672  0.00  0.00    -0.120 A 
ATOM     11  C   LIG    1       -4.514  -6.034  -0.085  0.00  0.00    +0.100 C 
ATOM     12  C   LIG    1       -3.115  -4.882  -1.806  0.00  0.00    -0.050 A 
ATOM     13  C   LIG    1       -2.883  -6.222  -2.457  0.00  0.00    +0.100 C 
ATOM     14  C   LIG    1       -2.547  -3.743  -2.346  0.00  0.00    -0.020 A 
ATOM     15  C   LIG    1       -2.761  -2.516  -1.750  0.00  0.00    +0.040 A 
ATOM     16  C   LIG    1       -3.544  -2.419  -0.612  0.00  0.00    -0.180 A 
ENDBRANCH   2   5
BRANCH   1  21
ATOM     17  C   LIG    1        1.178   1.790   0.007  0.00  0.00    +0.130 A 
ATOM     18  C   LIG    1        1.166   3.181   0.025  0.00  0.00    +0.080 A 
ATOM     19  C   LIG    1       -0.032   3.867   0.047  0.00  0.00    +0.000 A 
ATOM     20  C   LIG    1       -1.232   3.173   0.052  0.00  0.00    +0.160 A 
ATOM     21  C   LIG    1       -1.228   1.772   0.028  0.00  0.00    -0.150 A 
ATOM     22  C   LIG    1       -0.013   1.084   0.012  0.00  0.00    +0.030 A 
BRANCH  17  24
ATOM     23  C   LIG    1        3.447   1.612  -0.691  0.00  0.00    +0.550 C 
ATOM     24  N   LIG    1        2.398   1.103  -0.015  0.00  0.00    -0.670 N 
ATOM     25  H   LIG    1        2.488   0.260   0.457  0.00  0.00    +0.410 HD
ATOM     26  O   LIG    1        3.360   2.707  -1.213  0.00  0.00    -0.520 OA
BRANCH  23  28
ATOM     27  C   LIG    1        5.730   1.345  -1.467  0.00  0.00    +0.160 C 
ATOM     28  C   LIG    1        4.696   0.843  -0.799  0.00  0.00    -0.090 C 
ENDBRANCH  23  28
ENDBRANCH  17  24
BRANCH  20  29
ATOM     29  O   LIG    1       -2.409   3.849   0.074  0.00  0.00    -0.480 OA
ATOM     30  H   LIG    1       -2.759   4.056  -0.803  0.00  0.00    +0.400 HD
ENDBRANCH  20  29
ENDBRANCH   1  21
TORSDOF 5
