REMARK  Name = ZINCqH0000003HMN.0
REMARK                            x       y       z     vdW  Elec       q    Type
REMARK                         _______ _______ _______ _____ _____    ______ ____
ROOT
ATOM      1  C   LIG    1        1.761  -6.087  -0.051  0.00  0.00    +0.110 A 
ATOM      2  N   LIG    1        1.725  -4.789  -0.048  0.00  0.00    -0.450 NA
ATOM      3  C   LIG    1        0.516  -4.245  -0.027  0.00  0.00    +0.010 A 
ATOM      4  C   LIG    1       -0.510  -5.125  -0.023  0.00  0.00    -0.010 A 
ATOM      5  S   LIG    1        0.117  -6.716  -0.039  0.00  0.00    +0.210 S 
ENDROOT
BRANCH   1   9
ATOM      6  C   LIG    1        5.294  -8.447  -0.102  0.00  0.00    +0.150 A 
ATOM      7  C   LIG    1        4.049  -9.063  -0.093  0.00  0.00    -0.010 A 
ATOM      8  C   LIG    1        2.901  -8.301  -0.077  0.00  0.00    +0.080 A 
ATOM      9  C   LIG    1        2.990  -6.908  -0.068  0.00  0.00    -0.080 A 
ATOM     10  C   LIG    1        4.243  -6.292  -0.082  0.00  0.00    +0.110 A 
ATOM     11  C   LIG    1        5.387  -7.061  -0.094  0.00  0.00    -0.070 A 
BRANCH   6  12
ATOM     12  O   LIG    1        6.423  -9.201  -0.119  0.00  0.00    -0.310 OA
BRANCH  12  14
ATOM     13  C   LIG    1        8.820  -9.512  -0.145  0.00  0.00    +0.070 C 
ATOM     14  C   LIG    1        7.670  -8.503  -0.127  0.00  0.00    +0.190 C 
ENDBRANCH  12  14
ENDBRANCH   6  12
ENDBRANCH   1   9
BRANCH   3  15
ATOM     15  C   LIG    1        0.305  -2.787  -0.017  0.00  0.00    +0.590 C 
ATOM     16  N   LIG    1        1.364  -1.954  -0.022  0.00  0.00    -0.620 N 
ATOM     17  H   LIG    1        2.265  -2.314  -0.033  0.00  0.00    +0.430 HD
ATOM     18  O   LIG    1       -0.824  -2.336  -0.003  0.00  0.00    -0.450 OA
BRANCH  16  19
ATOM     19  C   LIG    1        1.167  -0.585  -0.012  0.00  0.00    +0.280 A 
ATOM     20  N   LIG    1        0.002  -0.004   0.002  0.00  0.00    -0.490 NA
ATOM     21  C   LIG    1       -0.016   1.304   0.009  0.00  0.00    +0.380 A 
ATOM     22  C   LIG    1        1.227   1.877   0.000  0.00  0.00    -0.320 A 
ATOM     23  S   LIG    1        2.418   0.579  -0.018  0.00  0.00    +0.230 S 
BRANCH  22  24
ATOM     24  C   LIG    1        1.514   3.310   0.006  0.00  0.00    +0.550 C 
ATOM     25  O   LIG    1        0.601   4.114   0.019  0.00  0.00    -0.490 OA
BRANCH  24  26
ATOM     26  O   LIG    1        2.792   3.742  -0.004  0.00  0.00    -0.350 OA
ATOM     27  C   LIG    1        3.000   5.156   0.002  0.00  0.00    +0.270 C 
ENDBRANCH  24  26
ENDBRANCH  22  24
ENDBRANCH  16  19
ENDBRANCH   3  15
TORSDOF 7
