REMARK  Name = ZINCtj0000001wM4.0
REMARK                            x       y       z     vdW  Elec       q    Type
REMARK                         _______ _______ _______ _____ _____    ______ ____
ROOT
ATOM      1  N   LIG    1       -0.366  -6.852   0.776  0.00  0.00    -0.660 N 
ATOM      2  H   LIG    1        0.484  -6.385   0.778  0.00  0.00    +0.400 HD
ATOM      3  C   LIG    1       -0.464  -8.071   0.209  0.00  0.00    +0.570 C 
ATOM      4  O   LIG    1       -1.548  -8.613   0.116  0.00  0.00    -0.500 OA
ENDROOT
BRANCH   3   5
ATOM      5  C   LIG    1        0.746  -8.748  -0.298  0.00  0.00    -0.230 A 
ATOM      6  C   LIG    1        1.998  -8.133  -0.196  0.00  0.00    +0.390 A 
ATOM      7  N   LIG    1        3.088  -8.720  -0.642  0.00  0.00    -0.510 NA
ATOM      8  C   LIG    1        3.053  -9.917  -1.207  0.00  0.00    +0.430 A 
ATOM      9  N   LIG    1        4.203 -10.524  -1.672  0.00  0.00    -0.620 N 
ATOM     10  H   LIG    1        5.054 -10.067  -1.584  0.00  0.00    +0.450 HD
ATOM     11  C   LIG    1        4.158 -11.739  -2.243  0.00  0.00    +0.720 A 
ATOM     12  N   LIG    1        3.020 -12.432  -2.400  0.00  0.00    -0.660 N 
ATOM     13  H   LIG    1        3.047 -13.306  -2.820  0.00  0.00    +0.440 HD
ATOM     14  C   LIG    1        1.836 -11.932  -1.981  0.00  0.00    +0.570 A 
ATOM     15  O   LIG    1        0.806 -12.562  -2.123  0.00  0.00    -0.470 OA
ATOM     16  O   LIG    1        5.197 -12.233  -2.636  0.00  0.00    -0.520 OA
ATOM     17  C   LIG    1        1.829 -10.602  -1.346  0.00  0.00    -0.250 A 
ATOM     18  C   LIG    1        0.656 -10.017  -0.883  0.00  0.00    +0.270 A 
ENDBRANCH   3   5
BRANCH   1  24
ATOM     19  C   LIG    1       -1.573  -4.871   1.476  0.00  0.00    +0.180 A 
ATOM     20  C   LIG    1       -2.689  -4.292   2.061  0.00  0.00    -0.060 A 
ATOM     21  C   LIG    1       -3.722  -5.088   2.518  0.00  0.00    +0.040 A 
ATOM     22  C   LIG    1       -3.643  -6.463   2.404  0.00  0.00    -0.010 A 
ATOM     23  C   LIG    1       -2.532  -7.051   1.827  0.00  0.00    +0.070 A 
ATOM     24  C   LIG    1       -1.493  -6.259   1.361  0.00  0.00    +0.090 A 
BRANCH  19  25
ATOM     25  N   LIG    1       -0.528  -4.067   1.009  0.00  0.00    -0.750 N 
ATOM     26  H   LIG    1        0.254  -4.474   0.604  0.00  0.00    +0.400 HD
BRANCH  25  31
ATOM     27  C   LIG    1       -0.046   1.468   0.032  0.00  0.00    +0.310 C 
ATOM     28  N   LIG    1       -0.022  -0.001   0.020  0.00  0.00    -0.390 N 
ATOM     29  C   LIG    1       -1.398  -0.511   0.029  0.00  0.00    +0.260 C 
ATOM     30  C   LIG    1       -1.381  -2.038  -0.065  0.00  0.00    +0.040 C 
ATOM     31  C   LIG    1       -0.614  -2.610   1.131  0.00  0.00    +0.250 C 
ATOM     32  C   LIG    1        0.796  -2.013   1.153  0.00  0.00    +0.050 C 
ATOM     33  C   LIG    1        0.698  -0.487   1.203  0.00  0.00    +0.270 C 
ATOM     34  H   LIG    1        0.448  -0.322  -0.814  0.00  0.00    +0.430 HD
ENDBRANCH  25  31
ENDBRANCH  19  25
ENDBRANCH   1  24
TORSDOF 4
