REMARK  Name = ZINCqH00000364go.0
REMARK                            x       y       z     vdW  Elec       q    Type
REMARK                         _______ _______ _______ _____ _____    ______ ____
ROOT
ATOM      1  C   LIG    1        1.104   5.932   0.126  0.00  0.00    +0.520 C 
ATOM      2  N   LIG    1       -0.056   5.252   0.031  0.00  0.00    -0.670 N 
ATOM      3  H   LIG    1       -0.896   5.732  -0.036  0.00  0.00    +0.420 HD
ATOM      4  O   LIG    1        2.159   5.335   0.112  0.00  0.00    -0.510 OA
ENDROOT
BRANCH   2   5
ATOM      5  C   LIG    1       -0.048   3.852   0.029  0.00  0.00    +0.140 A 
ATOM      6  C   LIG    1       -0.993   3.153  -0.713  0.00  0.00    +0.010 A 
ATOM      7  C   LIG    1       -0.990   1.771  -0.719  0.00  0.00    +0.040 A 
ATOM      8  C   LIG    1       -0.048   1.076   0.011  0.00  0.00    +0.030 A 
ATOM      9  C   LIG    1        0.903   1.768   0.764  0.00  0.00    -0.120 A 
ATOM     10  C   LIG    1        0.902   3.163   0.765  0.00  0.00    +0.090 A 
BRANCH   9  11
ATOM     11  C   LIG    1        1.910   1.026   1.552  0.00  0.00    +0.560 C 
ATOM     12  N   LIG    1        1.912  -0.322   1.544  0.00  0.00    -0.700 N 
ATOM     13  H   LIG    1        1.252  -0.805   1.022  0.00  0.00    +0.400 HD
ATOM     14  O   LIG    1        2.736   1.631   2.206  0.00  0.00    -0.530 OA
BRANCH  12  15
ATOM     15  C   LIG    1        2.909  -1.058   2.325  0.00  0.00    +0.220 C 
ATOM     16  C   LIG    1        3.585  -2.257   1.657  0.00  0.00    +0.010 C 
ATOM     17  C   LIG    1        2.554  -2.479   2.765  0.00  0.00    +0.020 C 
ENDBRANCH  12  15
ENDBRANCH   9  11
ENDBRANCH   2   5
BRANCH   1  18
ATOM     18  C   LIG    1        1.089   7.434   0.248  0.00  0.00    +0.100 C 
BRANCH  18  19
ATOM     19  C   LIG    1        2.525   7.952   0.339  0.00  0.00    +0.100 C 
BRANCH  19  20
ATOM     20  S   LIG    1        2.507   9.760   0.486  0.00  0.00    -0.110 S 
BRANCH  20  24
ATOM     21  C   LIG    1        6.909  10.808   0.721  0.00  0.00    +0.130 A 
ATOM     22  C   LIG    1        5.954  11.813   0.770  0.00  0.00    +0.010 A 
ATOM     23  C   LIG    1        4.612  11.495   0.699  0.00  0.00    +0.080 A 
ATOM     24  C   LIG    1        4.219  10.168   0.577  0.00  0.00    -0.120 A 
ATOM     25  C   LIG    1        5.176   9.162   0.533  0.00  0.00    +0.040 A 
ATOM     26  C   LIG    1        6.518   9.483   0.600  0.00  0.00    -0.060 A 
BRANCH  21  28
ATOM     27  C   LIG    1        9.159  10.038   0.735  0.00  0.00    +0.250 C 
ATOM     28  O   LIG    1        8.230  11.123   0.791  0.00  0.00    -0.320 OA
ENDBRANCH  21  28
ENDBRANCH  20  24
ENDBRANCH  19  20
ENDBRANCH  18  19
ENDBRANCH   1  18
TORSDOF 8
