REMARK  Name = ZINCvU00000004YG.0
REMARK                            x       y       z     vdW  Elec       q    Type
REMARK                         _______ _______ _______ _____ _____    ______ ____
ROOT
ATOM      1  C   LIG    1       -2.022   7.230   0.032  0.00  0.00    +0.390 C 
ENDROOT
BRANCH   1   5
ATOM      2  C   LIG    1       -0.011   4.250   0.013  0.00  0.00    +0.230 A 
ATOM      3  N   LIG    1       -1.231   3.778   0.022  0.00  0.00    -0.340 NA
ATOM      4  O   LIG    1       -2.030   4.690   0.029  0.00  0.00    +0.100 OA
ATOM      5  C   LIG    1       -1.388   5.862   0.025  0.00  0.00    +0.170 A 
ATOM      6  N   LIG    1       -0.105   5.600   0.021  0.00  0.00    -0.450 NA
BRANCH   2  10
ATOM      7  C   LIG    1        3.583   1.970  -0.021  0.00  0.00    +0.190 A 
ATOM      8  C   LIG    1        3.639   3.358  -0.014  0.00  0.00    -0.110 A 
ATOM      9  C   LIG    1        2.477   4.099   0.001  0.00  0.00    +0.160 A 
ATOM     10  C   LIG    1        1.241   3.456   0.003  0.00  0.00    -0.100 A 
ATOM     11  C   LIG    1        1.184   2.058   0.002  0.00  0.00    +0.200 A 
ATOM     12  C   LIG    1        2.356   1.321  -0.013  0.00  0.00    -0.100 A 
BRANCH   7  14
ATOM     13  C   LIG    1        5.959   1.976  -0.043  0.00  0.00    +0.240 C 
ATOM     14  O   LIG    1        4.731   1.245  -0.036  0.00  0.00    -0.310 OA
ENDBRANCH   7  14
BRANCH  11  15
ATOM     15  O   LIG    1       -0.017   1.425   0.010  0.00  0.00    -0.290 OA
ATOM     16  C   LIG    1        0.002  -0.004   0.002  0.00  0.00    +0.250 C 
ENDBRANCH  11  15
ENDBRANCH   2  10
ENDBRANCH   1   5
BRANCH   1  17
ATOM     17  O   LIG    1       -2.232   7.664  -1.313  0.00  0.00    -0.300 OA
BRANCH  17  18
ATOM     18  C   LIG    1       -2.799   8.886  -1.486  0.00  0.00    +0.140 A 
ATOM     19  C   LIG    1       -3.152   9.650  -0.383  0.00  0.00    +0.020 A 
ATOM     20  C   LIG    1       -3.724  10.895  -0.561  0.00  0.00    -0.140 A 
ATOM     21  C   LIG    1       -3.955  11.375  -1.837  0.00  0.00    +0.100 A 
ATOM     22  C   LIG    1       -3.609  10.614  -2.938  0.00  0.00    -0.140 A 
ATOM     23  C   LIG    1       -3.032   9.370  -2.765  0.00  0.00    +0.090 A 
BRANCH  22  24
ATOM     24  C   LIG    1       -3.863  11.140  -4.327  0.00  0.00    +0.510 C 
ATOM     25  F   LIG    1       -3.159  12.335  -4.509  0.00  0.00    -0.170 F 
ATOM     26  F   LIG    1       -5.232  11.375  -4.494  0.00  0.00    -0.170 F 
ATOM     27  F   LIG    1       -3.433  10.198  -5.268  0.00  0.00    -0.170 F 
ENDBRANCH  22  24
BRANCH  20  28
ATOM     28  C   LIG    1       -4.102  11.728   0.637  0.00  0.00    +0.510 C 
ATOM     29  F   LIG    1       -4.006  13.085   0.310  0.00  0.00    -0.170 F 
ATOM     30  F   LIG    1       -3.236  11.441   1.697  0.00  0.00    -0.170 F 
ATOM     31  F   LIG    1       -5.416  11.432   1.015  0.00  0.00    -0.170 F 
ENDBRANCH  20  28
ENDBRANCH  17  18
ENDBRANCH   1  17
TORSDOF 8
