REMARK  Name = ZINCpk00000y6wvz.0
REMARK                            x       y       z     vdW  Elec       q    Type
REMARK                         _______ _______ _______ _____ _____    ______ ____
ROOT
ATOM      1  C   LIG    1        3.498  -2.267  -0.043  0.00  0.00    +0.580 C 
ATOM      2  N   LIG    1        4.649  -2.958  -0.160  0.00  0.00    -0.620 N 
ATOM      3  C   LIG    1        5.999  -2.376  -0.182  0.00  0.00    +0.260 C 
ATOM      4  C   LIG    1        6.997  -3.541  -0.356  0.00  0.00    +0.090 C 
ATOM      5  C   LIG    1        6.123  -4.655  -0.990  0.00  0.00    +0.110 C 
ATOM      6  C   LIG    1        4.763  -4.423  -0.280  0.00  0.00    +0.270 C 
ATOM      7  O   LIG    1        2.440  -2.859   0.052  0.00  0.00    -0.500 OA
ENDROOT
BRANCH   1  12
ATOM      8  C   LIG    1       -0.085  -0.749  -3.237  0.00  0.00    +0.130 C 
ATOM      9  C   LIG    1        0.894   0.001  -2.371  0.00  0.00    +0.170 A 
ATOM     10  N   LIG    1        1.733  -0.675  -1.621  0.00  0.00    -0.460 NA
ATOM     11  C   LIG    1        2.618  -0.056  -0.839  0.00  0.00    +0.170 A 
ATOM     12  C   LIG    1        3.521  -0.793  -0.032  0.00  0.00    -0.100 A 
ATOM     13  C   LIG    1        4.427  -0.112   0.768  0.00  0.00    +0.070 A 
ATOM     14  C   LIG    1        4.457   1.276   0.785  0.00  0.00    +0.010 A 
ATOM     15  C   LIG    1        3.599   2.007   0.018  0.00  0.00    +0.070 A 
ATOM     16  C   LIG    1        2.665   1.359  -0.807  0.00  0.00    -0.120 A 
ATOM     17  C   LIG    1        1.767   2.089  -1.609  0.00  0.00    +0.090 A 
ATOM     18  C   LIG    1        0.886   1.393  -2.388  0.00  0.00    -0.030 A 
ENDBRANCH   1  12
BRANCH   5  19
ATOM     19  O   LIG    1        6.006  -4.474  -2.402  0.00  0.00    -0.530 OA
ATOM     20  H   LIG    1        5.468  -5.146  -2.842  0.00  0.00    +0.380 HD
ENDBRANCH   5  19
BRANCH   5  21
ATOM     21  C   LIG    1        6.680  -6.042  -0.662  0.00  0.00    +0.340 C 
BRANCH  21  22
ATOM     22  N   LIG    1        5.831  -7.067  -1.275  0.00  0.00    -0.300 N 
ATOM     23  C   LIG    1        6.247  -8.040  -2.118  0.00  0.00    +0.140 A 
ATOM     24  C   LIG    1        5.145  -8.759  -2.437  0.00  0.00    +0.140 A 
ATOM     25  N   LIG    1        4.121  -8.192  -1.789  0.00  0.00    -0.260 NA
ATOM     26  N   LIG    1        4.561  -7.192  -1.109  0.00  0.00    -0.080 NA
ENDBRANCH  21  22
ENDBRANCH   5  21
TORSDOF 4
