REMARK  Name = ZINCrH000004qNRR.0
REMARK                            x       y       z     vdW  Elec       q    Type
REMARK                         _______ _______ _______ _____ _____    ______ ____
ROOT
ATOM      1  N   LIG    1        2.531   4.168   0.476  0.00  0.00    -0.660 N 
ATOM      2  H   LIG    1        2.583   5.134   0.543  0.00  0.00    +0.410 HD
ATOM      3  C   LIG    1        3.661   3.436   0.411  0.00  0.00    +0.510 C 
ATOM      4  O   LIG    1        3.600   2.225   0.420  0.00  0.00    -0.520 OA
ENDROOT
BRANCH   1   8
ATOM      5  C   LIG    1       -0.303   0.486  -1.132  0.00  0.00    +0.100 C 
ATOM      6  C   LIG    1       -0.118   1.746  -0.327  0.00  0.00    -0.090 A 
ATOM      7  C   LIG    1        1.111   2.372  -0.297  0.00  0.00    +0.050 A 
ATOM      8  C   LIG    1        1.282   3.533   0.445  0.00  0.00    +0.120 A 
ATOM      9  C   LIG    1        0.215   4.065   1.157  0.00  0.00    +0.010 A 
ATOM     10  C   LIG    1       -1.015   3.440   1.127  0.00  0.00    -0.020 A 
ATOM     11  C   LIG    1       -1.185   2.276   0.389  0.00  0.00    +0.090 A 
BRANCH  11  12
ATOM     12  N   LIG    1       -2.430   1.639   0.363  0.00  0.00    -0.470 N 
ATOM     13  C   LIG    1       -2.296   0.195   0.684  0.00  0.00    +0.170 C 
ATOM     14  C   LIG    1       -3.727  -0.205   1.123  0.00  0.00    +0.030 C 
ATOM     15  C   LIG    1       -4.210   1.040   1.901  0.00  0.00    +0.020 C 
ATOM     16  C   LIG    1       -3.333   2.198   1.392  0.00  0.00    +0.180 C 
ENDBRANCH  11  12
ENDBRANCH   1   8
BRANCH   3  17
ATOM     17  C   LIG    1        5.000   4.123   0.327  0.00  0.00    +0.270 C 
ATOM     18  C   LIG    1        5.200   5.003   1.562  0.00  0.00    +0.060 C 
BRANCH  17  19
ATOM     19  N   LIG    1        6.062   3.116   0.267  0.00  0.00    -0.730 N 
ATOM     20  H   LIG    1        5.913   2.231   0.636  0.00  0.00    +0.410 HD
ATOM     21  C   LIG    1        7.247   3.419  -0.300  0.00  0.00    +0.710 C 
ATOM     22  N   LIG    1        8.224   2.492  -0.355  0.00  0.00    -0.680 N 
ATOM     23  H   LIG    1        8.053   1.588  -0.047  0.00  0.00    +0.410 HD
ATOM     24  O   LIG    1        7.434   4.528  -0.762  0.00  0.00    -0.570 OA
BRANCH  22  25
ATOM     25  C   LIG    1        9.485   2.835  -0.856  0.00  0.00    +0.160 A 
ATOM     26  C   LIG    1        9.595   3.730  -1.912  0.00  0.00    +0.020 A 
ATOM     27  C   LIG    1       10.842   4.069  -2.401  0.00  0.00    +0.030 A 
ATOM     28  C   LIG    1       11.979   3.510  -1.846  0.00  0.00    -0.010 A 
ATOM     29  C   LIG    1       11.872   2.615  -0.798  0.00  0.00    +0.030 A 
ATOM     30  C   LIG    1       10.629   2.276  -0.301  0.00  0.00    -0.030 A 
ENDBRANCH  22  25
ENDBRANCH  17  19
ENDBRANCH   3  17
TORSDOF 5
