REMARK  Name = ZINCpe00000FUm6x.0
REMARK                            x       y       z     vdW  Elec       q    Type
REMARK                         _______ _______ _______ _____ _____    ______ ____
ROOT
ATOM      1  N   LIG    1       -0.020   1.094   2.454  0.00  0.00    -0.550 N 
ATOM      2  C   LIG    1       -0.368  -0.091   2.996  0.00  0.00    +0.600 A 
ATOM      3  C   LIG    1        0.317  -0.556   4.132  0.00  0.00    -0.170 A 
ATOM      4  C   LIG    1        1.334   0.224   4.678  0.00  0.00    +0.380 A 
ATOM      5  N   LIG    1        1.641   1.436   4.079  0.00  0.00    -0.510 N 
ATOM      6  C   LIG    1        2.706   2.277   4.631  0.00  0.00    +0.350 C 
ATOM      7  N   LIG    1        1.813  -0.428   5.736  0.00  0.00    -0.460 NA
ATOM      8  C   LIG    1        1.165  -1.570   5.894  0.00  0.00    +0.410 A 
ATOM      9  O   LIG    1        1.088  -2.670   6.670  0.00  0.00    -0.140 OA
ATOM     10  C   LIG    1        0.113  -3.473   6.189  0.00  0.00    +0.040 A 
ATOM     11  C   LIG    1       -0.425  -2.894   5.122  0.00  0.00    +0.190 A 
ATOM     12  N   LIG    1        0.231  -1.690   4.923  0.00  0.00    -0.370 N 
ATOM     13  O   LIG    1       -1.264  -0.754   2.503  0.00  0.00    -0.510 OA
ATOM     14  C   LIG    1        0.962   1.839   2.988  0.00  0.00    +0.710 A 
ATOM     15  O   LIG    1        1.245   2.905   2.474  0.00  0.00    -0.520 OA
ENDROOT
BRANCH  10  16
ATOM     16  C   LIG    1       -0.296  -4.803   6.768  0.00  0.00    +0.020 C 
ATOM     17  C   LIG    1       -0.768  -4.609   8.210  0.00  0.00    +0.060 C 
ATOM     18  C   LIG    1        0.900  -5.758   6.747  0.00  0.00    +0.060 C 
ATOM     19  C   LIG    1       -1.434  -5.394   5.933  0.00  0.00    +0.070 C 
ENDBRANCH  10  16
BRANCH   1  20
ATOM     20  C   LIG    1       -0.729   1.579   1.267  0.00  0.00    +0.360 C 
BRANCH  20  21
ATOM     21  C   LIG    1       -0.013   1.086   0.008  0.00  0.00    +0.100 C 
BRANCH  21  22
ATOM     22  C   LIG    1       -0.742   1.585  -1.213  0.00  0.00    +0.470 C 
ATOM     23  O   LIG    1       -1.732   2.266  -1.089  0.00  0.00    -0.500 OA
BRANCH  22  25
ATOM     24  C   LIG    1       -1.042   1.789  -3.568  0.00  0.00    +0.280 C 
ATOM     25  O   LIG    1       -0.290   1.274  -2.438  0.00  0.00    -0.360 OA
ENDBRANCH  22  25
ENDBRANCH  21  22
ENDBRANCH  20  21
ENDBRANCH   1  20
TORSDOF 5
