REMARK  Name = ZINCvU00000003N0.0
REMARK                            x       y       z     vdW  Elec       q    Type
REMARK                         _______ _______ _______ _____ _____    ______ ____
ROOT
ATOM      1  O   LIG    1        1.236  -4.907  -0.037  0.00  0.00    -0.330 OA
ENDROOT
BRANCH   1   2
ATOM      2  C   LIG    1        0.060  -4.249  -0.023  0.00  0.00    +0.510 C 
ATOM      3  O   LIG    1       -0.984  -4.871  -0.017  0.00  0.00    -0.510 OA
BRANCH   2   4
ATOM      4  C   LIG    1        0.040  -2.775  -0.014  0.00  0.00    -0.170 A 
ATOM      5  C   LIG    1       -1.179  -2.090   0.002  0.00  0.00    +0.140 A 
ATOM      6  C   LIG    1       -1.193  -0.714   0.010  0.00  0.00    -0.030 A 
ATOM      7  C   LIG    1        0.002  -0.004   0.002  0.00  0.00    +0.170 A 
ATOM      8  C   LIG    1        1.216  -0.681  -0.019  0.00  0.00    -0.090 A 
ATOM      9  C   LIG    1        1.240  -2.057  -0.021  0.00  0.00    +0.140 A 
BRANCH   7  10
ATOM     10  O   LIG    1       -0.016   1.353   0.009  0.00  0.00    -0.300 OA
BRANCH  10  11
ATOM     11  C   LIG    1        1.248   2.019   0.001  0.00  0.00    +0.260 C 
BRANCH  11  12
ATOM     12  C   LIG    1        1.030   3.510   0.011  0.00  0.00    -0.100 A 
ATOM     13  C   LIG    1        0.925   4.201  -1.181  0.00  0.00    +0.030 A 
ATOM     14  C   LIG    1        0.720   5.568  -1.172  0.00  0.00    +0.010 A 
ATOM     15  C   LIG    1        0.631   6.246   0.030  0.00  0.00    +0.020 A 
ATOM     16  C   LIG    1        0.743   5.555   1.222  0.00  0.00    +0.010 A 
ATOM     17  C   LIG    1        0.942   4.187   1.213  0.00  0.00    +0.030 A 
ENDBRANCH  11  12
ENDBRANCH  10  11
ENDBRANCH   7  10
ENDBRANCH   2   4
ENDBRANCH   1   2
BRANCH   1  18
ATOM     18  C   LIG    1        1.179  -6.358  -0.046  0.00  0.00    +0.220 C 
BRANCH  18  19
ATOM     19  C   LIG    1        2.579  -6.915  -0.062  0.00  0.00    +0.430 C 
ATOM     20  O   LIG    1        3.532  -6.162  -0.066  0.00  0.00    -0.440 OA
BRANCH  19  26
ATOM     21  C   LIG    1        4.802 -11.325  -0.108  0.00  0.00    -0.080 A 
ATOM     22  C   LIG    1        3.770 -10.393  -0.094  0.00  0.00    +0.080 A 
ATOM     23  N   LIG    1        2.395 -10.510  -0.082  0.00  0.00    -0.560 N 
ATOM     24  H   LIG    1        1.913 -11.352  -0.083  0.00  0.00    +0.420 HD
ATOM     25  C   LIG    1        1.813  -9.296  -0.070  0.00  0.00    +0.330 A 
ATOM     26  C   LIG    1        2.784  -8.317  -0.072  0.00  0.00    -0.270 A 
ATOM     27  C   LIG    1        4.080  -9.024  -0.094  0.00  0.00    -0.050 A 
ATOM     28  C   LIG    1        5.408  -8.608  -0.111  0.00  0.00    +0.050 A 
ATOM     29  C   LIG    1        6.417  -9.546  -0.131  0.00  0.00    +0.000 A 
ATOM     30  C   LIG    1        6.113 -10.899  -0.134  0.00  0.00    +0.030 A 
BRANCH  21  32
ATOM     31  C   LIG    1        4.245 -13.262  -1.552  0.00  0.00    +0.020 C 
ATOM     32  C   LIG    1        4.487 -12.799  -0.115  0.00  0.00    +0.050 C 
ENDBRANCH  21  32
ENDBRANCH  19  26
ENDBRANCH  18  19
ENDBRANCH   1  18
TORSDOF 9
