REMARK  Name = ZINCtV00000tRQsC.0
REMARK                            x       y       z     vdW  Elec       q    Type
REMARK                         _______ _______ _______ _____ _____    ______ ____
ROOT
ATOM      1  C   LIG    1       -3.385   4.269   4.476  0.00  0.00    +0.300 A 
ATOM      2  N   LIG    1       -2.768   5.349   4.094  0.00  0.00    -0.480 NA
ATOM      3  C   LIG    1       -3.667   6.353   3.925  0.00  0.00    +0.050 A 
ATOM      4  C   LIG    1       -3.556   7.690   3.534  0.00  0.00    +0.070 A 
ATOM      5  C   LIG    1       -4.674   8.471   3.455  0.00  0.00    +0.000 A 
ATOM      6  C   LIG    1       -5.924   7.950   3.759  0.00  0.00    +0.030 A 
ATOM      7  C   LIG    1       -6.057   6.634   4.147  0.00  0.00    +0.010 A 
ATOM      8  C   LIG    1       -4.932   5.825   4.233  0.00  0.00    +0.050 A 
ATOM      9  N   LIG    1       -4.722   4.504   4.573  0.00  0.00    -0.480 N 
ENDROOT
BRANCH   1  10
ATOM     10  C   LIG    1       -2.717   2.949   4.763  0.00  0.00    +0.120 C 
ATOM     11  C   LIG    1       -1.700   3.127   5.892  0.00  0.00    +0.060 C 
BRANCH  10  15
ATOM     12  C   LIG    1       -0.718   1.572   1.248  0.00  0.00    -0.070 A 
ATOM     13  C   LIG    1       -0.360   2.779   1.819  0.00  0.00    +0.000 A 
ATOM     14  C   LIG    1       -1.010   3.227   2.953  0.00  0.00    +0.060 A 
ATOM     15  C   LIG    1       -2.012   2.463   3.523  0.00  0.00    -0.090 A 
ATOM     16  C   LIG    1       -2.366   1.254   2.955  0.00  0.00    +0.010 A 
ATOM     17  C   LIG    1       -1.719   0.808   1.818  0.00  0.00    +0.000 A 
BRANCH  12  18
ATOM     18  C   LIG    1       -0.013   1.086   0.008  0.00  0.00    +0.060 C 
BRANCH  18  20
ATOM     19  C   LIG    1        0.031   1.205  -2.487  0.00  0.00    +0.010 C 
ATOM     20  C   LIG    1       -0.753   1.593  -1.232  0.00  0.00    -0.020 C 
ATOM     21  C   LIG    1       -2.147   0.964  -1.286  0.00  0.00    +0.010 C 
ENDBRANCH  18  20
ENDBRANCH  12  18
ENDBRANCH  10  15
ENDBRANCH   1  10
BRANCH   9  22
ATOM     22  C   LIG    1       -5.747   3.535   4.968  0.00  0.00    +0.350 C 
BRANCH  22  23
ATOM     23  C   LIG    1       -5.933   3.582   6.462  0.00  0.00    -0.130 A 
ATOM     24  C   LIG    1       -5.179   2.760   7.279  0.00  0.00    +0.060 A 
ATOM     25  C   LIG    1       -5.345   2.807   8.650  0.00  0.00    -0.010 A 
ATOM     26  C   LIG    1       -6.276   3.668   9.205  0.00  0.00    +0.110 A 
ATOM     27  C   LIG    1       -7.035   4.486   8.386  0.00  0.00    -0.010 A 
ATOM     28  F   LIG    1       -6.444   3.709  10.545  0.00  0.00    -0.140 F 
ATOM     29  C   LIG    1       -6.863   4.443   7.016  0.00  0.00    +0.060 A 
ENDBRANCH  22  23
ENDBRANCH   9  22
TORSDOF 6
