REMARK  Name = ZINCrH000004mEak.0
REMARK                            x       y       z     vdW  Elec       q    Type
REMARK                         _______ _______ _______ _____ _____    ______ ____
ROOT
ATOM      1  N   LIG    1       -1.219  -7.606  -0.036  0.00  0.00    -0.610 N 
ATOM      2  C   LIG    1       -0.931  -6.220   0.351  0.00  0.00    +0.290 C 
ATOM      3  C   LIG    1       -1.864  -5.348  -0.519  0.00  0.00    +0.130 C 
ATOM      4  C   LIG    1       -2.103  -6.264  -1.742  0.00  0.00    +0.080 C 
ATOM      5  C   LIG    1       -1.872  -7.661  -1.209  0.00  0.00    +0.530 C 
ATOM      6  O   LIG    1       -2.224  -8.682  -1.762  0.00  0.00    -0.520 OA
ENDROOT
BRANCH   3   7
ATOM      7  C   LIG    1       -1.180  -4.069  -0.929  0.00  0.00    +0.180 A 
ATOM      8  N   LIG    1       -1.604  -2.849  -0.702  0.00  0.00    -0.460 NA
ATOM      9  C   LIG    1       -0.678  -2.038  -1.243  0.00  0.00    +0.180 A 
ATOM     10  N   LIG    1        0.242  -2.792  -1.767  0.00  0.00    -0.370 NA
ATOM     11  O   LIG    1       -0.025  -3.962  -1.593  0.00  0.00    +0.080 OA
BRANCH   9  12
ATOM     12  C   LIG    1       -0.706  -0.531  -1.248  0.00  0.00    +0.170 C 
BRANCH  12  13
ATOM     13  C   LIG    1        0.002  -0.004   0.002  0.00  0.00    -0.060 C 
ATOM     14  C   LIG    1       -0.019   1.534   0.011  0.00  0.00    +0.030 C 
ATOM     15  C   LIG    1        1.453   1.995  -0.001  0.00  0.00    +0.010 C 
ATOM     16  C   LIG    1        2.232   0.792   0.586  0.00  0.00    +0.020 C 
ATOM     17  C   LIG    1       -0.682  -0.544   1.260  0.00  0.00    +0.030 C 
ATOM     18  C   LIG    1        1.486  -0.425  -0.014  0.00  0.00    +0.010 C 
ENDBRANCH  12  13
ENDBRANCH   9  12
ENDBRANCH   3   7
BRANCH   1  19
ATOM     19  C   LIG    1       -0.844  -8.780   0.757  0.00  0.00    +0.350 C 
BRANCH  19  23
ATOM     20  C   LIG    1        3.041 -10.112  -0.424  0.00  0.00    +0.130 A 
ATOM     21  C   LIG    1        2.906  -9.179   0.594  0.00  0.00    -0.030 A 
ATOM     22  C   LIG    1        1.649  -8.750   0.974  0.00  0.00    +0.070 A 
ATOM     23  C   LIG    1        0.526  -9.250   0.340  0.00  0.00    -0.150 A 
ATOM     24  C   LIG    1        0.658 -10.184  -0.670  0.00  0.00    +0.080 A 
ATOM     25  C   LIG    1        1.913 -10.612  -1.058  0.00  0.00    -0.080 A 
BRANCH  20  27
ATOM     26  C   LIG    1        4.340 -11.498  -1.854  0.00  0.00    +0.250 C 
ATOM     27  O   LIG    1        4.277 -10.536  -0.799  0.00  0.00    -0.320 OA
ENDBRANCH  20  27
ENDBRANCH  19  23
ENDBRANCH   1  19
TORSDOF 6
