REMARK  Name = ZINCtV000002IJUS.0
REMARK                            x       y       z     vdW  Elec       q    Type
REMARK                         _______ _______ _______ _____ _____    ______ ____
ROOT
ATOM      1  N   LIG    1       -2.429   0.006   0.275  0.00  0.00    -0.740 N 
ATOM      2  H   LIG    1       -2.430   0.976   0.244  0.00  0.00    +0.400 HD
ENDROOT
BRANCH   1   3
ATOM      3  C   LIG    1       -1.222  -0.696   0.186  0.00  0.00    +0.230 A 
ATOM      4  C   LIG    1       -1.218  -2.082   0.230  0.00  0.00    -0.060 A 
ATOM      5  C   LIG    1       -0.024  -2.773   0.143  0.00  0.00    +0.070 A 
ATOM      6  C   LIG    1        1.168  -2.086   0.012  0.00  0.00    -0.030 A 
ATOM      7  C   LIG    1        1.172  -0.704  -0.038  0.00  0.00    +0.070 A 
ATOM      8  C   LIG    1       -0.019  -0.004   0.054  0.00  0.00    +0.010 A 
BRANCH   8   9
ATOM      9  O   LIG    1       -0.016   1.356   0.009  0.00  0.00    -0.220 OA
BRANCH   9  10
ATOM     10  C   LIG    1       -0.057   2.032   1.185  0.00  0.00    +0.320 A 
ATOM     11  N   LIG    1        0.010   1.366   2.326  0.00  0.00    -0.490 NA
ATOM     12  C   LIG    1       -0.021   1.984   3.492  0.00  0.00    +0.340 A 
ATOM     13  C   LIG    1       -0.136   3.358   3.562  0.00  0.00    -0.120 A 
ATOM     14  C   LIG    1       -0.214   4.095   2.386  0.00  0.00    +0.130 A 
ATOM     15 CL   LIG    1       -0.181   4.158   5.102  0.00  0.00    -0.040 Cl
ATOM     16  C   LIG    1       -0.174   3.417   1.180  0.00  0.00    -0.100 A 
ATOM     17 CL   LIG    1       -0.267   4.286  -0.321  0.00  0.00    -0.030 Cl
ENDBRANCH   9  10
ENDBRANCH   8   9
ENDBRANCH   1   3
BRANCH   1  18
ATOM     18  C   LIG    1       -3.692  -0.724   0.414  0.00  0.00    +0.440 C 
BRANCH  18  22
ATOM     19  C   LIG    1       -6.432   1.568   0.018  0.00  0.00    +0.220 A 
ATOM     20  N   LIG    1       -6.249   1.555   1.312  0.00  0.00    -0.370 NA
ATOM     21  O   LIG    1       -5.336   0.809   1.597  0.00  0.00    +0.090 OA
ATOM     22  C   LIG    1       -4.833   0.258   0.487  0.00  0.00    +0.160 A 
ATOM     23  N   LIG    1       -5.516   0.735  -0.524  0.00  0.00    -0.450 NA
BRANCH  19  29
ATOM     24  C   LIG    1      -10.233   4.806   0.031  0.00  0.00    +0.090 C 
ATOM     25  C   LIG    1       -9.279   3.912  -0.718  0.00  0.00    -0.090 A 
ATOM     26  C   LIG    1       -9.353   3.824  -2.096  0.00  0.00    +0.030 A 
ATOM     27  C   LIG    1       -8.480   3.004  -2.789  0.00  0.00    +0.010 A 
ATOM     28  C   LIG    1       -7.531   2.270  -2.108  0.00  0.00    +0.060 A 
ATOM     29  C   LIG    1       -7.452   2.355  -0.720  0.00  0.00    -0.030 A 
ATOM     30  C   LIG    1       -8.336   3.178  -0.026  0.00  0.00    +0.050 A 
ENDBRANCH  19  29
ENDBRANCH  18  22
ENDBRANCH   1  18
TORSDOF 6
