REMARK  Name = ZINCpk00000KfKzX.0
REMARK                            x       y       z     vdW  Elec       q    Type
REMARK                         _______ _______ _______ _____ _____    ______ ____
ROOT
ATOM      1  N   LIG    1        0.291  -0.686   3.789  0.00  0.00    -0.460 N 
ATOM      2  C   LIG    1        0.449  -2.120   3.548  0.00  0.00    +0.200 C 
ATOM      3  C   LIG    1        0.225  -2.530   2.148  0.00  0.00    +0.040 C 
ATOM      4  C   LIG    1        1.272  -1.849   1.230  0.00  0.00    +0.280 C 
ATOM      5  N   LIG    1        1.002  -0.429   1.160  0.00  0.00    -0.600 N 
ATOM      6  C   LIG    1        1.578   0.546   2.109  0.00  0.00    +0.270 C 
ATOM      7  C   LIG    1        0.193   0.025   0.182  0.00  0.00    +0.520 C 
ATOM      8  O   LIG    1       -0.358  -0.759  -0.562  0.00  0.00    -0.510 OA
ATOM      9  C   LIG    1        1.539   0.011   3.557  0.00  0.00    +0.200 C 
ENDROOT
BRANCH   1  14
ATOM     10  C   LIG    1       -1.610   0.073   8.987  0.00  0.00    +0.140 C 
ATOM     11  C   LIG    1       -1.098  -0.078   7.578  0.00  0.00    +0.040 A 
ATOM     12  C   LIG    1       -0.873   1.047   6.798  0.00  0.00    +0.060 A 
ATOM     13  C   LIG    1       -0.402   0.862   5.508  0.00  0.00    +0.020 A 
ATOM     14  C   LIG    1       -0.182  -0.446   5.075  0.00  0.00    +0.250 A 
ATOM     15  N   LIG    1       -0.431  -1.458   5.893  0.00  0.00    -0.280 NA
ATOM     16  N   LIG    1       -0.863  -1.279   7.088  0.00  0.00    -0.220 NA
ENDBRANCH   1  14
BRANCH   7  17
ATOM     17  C   LIG    1       -0.026   1.506   0.012  0.00  0.00    +0.150 C 
ATOM     18  C   LIG    1       -0.983   2.007   1.095  0.00  0.00    +0.050 C 
BRANCH  17  19
ATOM     19  O   LIG    1       -0.589   1.760  -1.277  0.00  0.00    -0.350 OA
BRANCH  19  20
ATOM     20  C   LIG    1       -0.235   3.031  -1.826  0.00  0.00    +0.170 C 
BRANCH  20  21
ATOM     21  C   LIG    1       -0.890   3.193  -3.199  0.00  0.00    +0.170 C 
ATOM     22  C   LIG    1       -0.421   4.513  -3.849  0.00  0.00    +0.020 C 
ATOM     23  C   LIG    1       -1.721   5.026  -4.527  0.00  0.00    +0.010 C 
ATOM     24  C   LIG    1       -2.791   4.536  -3.519  0.00  0.00    +0.200 C 
ATOM     25  O   LIG    1       -2.313   3.265  -3.053  0.00  0.00    -0.370 OA
ENDBRANCH  20  21
ENDBRANCH  19  20
ENDBRANCH  17  19
ENDBRANCH   7  17
TORSDOF 5
