REMARK  Name = ZINCrH000004jzdO.0
REMARK                            x       y       z     vdW  Elec       q    Type
REMARK                         _______ _______ _______ _____ _____    ______ ____
ROOT
ATOM      1  C   LIG    1        0.601   1.544   0.205  0.00  0.00    -0.150 A 
ATOM      2  C   LIG    1       -0.511   1.011  -0.453  0.00  0.00    +0.100 A 
ATOM      3  C   LIG    1       -1.722   1.663  -0.393  0.00  0.00    +0.010 A 
ATOM      4  C   LIG    1       -1.843   2.845   0.330  0.00  0.00    +0.170 A 
ATOM      5  C   LIG    1       -0.738   3.379   0.986  0.00  0.00    -0.020 A 
ATOM      6  C   LIG    1        0.478   2.735   0.926  0.00  0.00    +0.070 A 
ENDROOT
BRANCH   1   9
ATOM      7  C   LIG    1        3.001   3.014   0.374  0.00  0.00    +0.280 C 
ATOM      8  N   LIG    1        3.047   1.563   0.181  0.00  0.00    -0.610 N 
ATOM      9  C   LIG    1        1.903   0.852   0.138  0.00  0.00    +0.560 C 
ATOM     10  O   LIG    1        1.943  -0.359   0.044  0.00  0.00    -0.530 OA
BRANCH   8  11
ATOM     11  C   LIG    1        4.337   0.883   0.035  0.00  0.00    +0.240 C 
ATOM     12  C   LIG    1        5.188   1.125   1.286  0.00  0.00    +0.000 C 
ATOM     13  C   LIG    1        6.562   0.478   1.092  0.00  0.00    +0.210 C 
ATOM     14  O   LIG    1        7.180   1.019  -0.077  0.00  0.00    -0.380 OA
ATOM     15  C   LIG    1        6.453   0.783  -1.285  0.00  0.00    +0.210 C 
ATOM     16  C   LIG    1        5.075   1.442  -1.186  0.00  0.00    -0.010 C 
ENDBRANCH   8  11
ENDBRANCH   1   9
BRANCH   4  17
ATOM     17  N   LIG    1       -3.072   3.500   0.393  0.00  0.00    -0.670 N 
ATOM     18  H   LIG    1       -3.104   4.468   0.436  0.00  0.00    +0.420 HD
ATOM     19  C   LIG    1       -4.216   2.787   0.395  0.00  0.00    +0.530 C 
ATOM     20  O   LIG    1       -4.175   1.575   0.437  0.00  0.00    -0.490 OA
BRANCH  19  21
ATOM     21  C   LIG    1       -5.545   3.495   0.344  0.00  0.00    -0.140 C 
ATOM     22  C   LIG    1       -5.764   4.331   1.629  0.00  0.00    +0.060 C 
ATOM     23  C   LIG    1       -6.245   3.270   2.649  0.00  0.00    +0.020 C 
ATOM     24  C   LIG    1       -7.147   2.331   1.821  0.00  0.00    +0.020 C 
ATOM     25  C   LIG    1       -6.702   2.473   0.355  0.00  0.00    +0.060 C 
BRANCH  21  26
ATOM     26  C   LIG    1       -5.629   4.384  -0.898  0.00  0.00    +0.410 C 
ATOM     27  F   LIG    1       -5.504   3.595  -2.047  0.00  0.00    -0.190 F 
ATOM     28  F   LIG    1       -4.597   5.328  -0.867  0.00  0.00    -0.200 F 
ENDBRANCH  21  26
ENDBRANCH  19  21
ENDBRANCH   4  17
TORSDOF 5
