REMARK  Name = ZINCpk00000jWp4x.0
REMARK                            x       y       z     vdW  Elec       q    Type
REMARK                         _______ _______ _______ _____ _____    ______ ____
ROOT
ATOM      1  C   LIG    1        2.369   5.296   0.111  0.00  0.00    +0.290 C 
ATOM      2  N   LIG    1        1.088   6.008   0.126  0.00  0.00    -0.600 N 
ATOM      3  C   LIG    1       -0.065   5.324  -0.012  0.00  0.00    +0.570 C 
ATOM      4  O   LIG    1       -1.121   5.921  -0.081  0.00  0.00    -0.520 OA
ENDROOT
BRANCH   3   5
ATOM      5  C   LIG    1       -0.045   3.847  -0.081  0.00  0.00    -0.110 A 
ATOM      6  C   LIG    1        0.834   3.201  -0.949  0.00  0.00    +0.060 A 
ATOM      7  C   LIG    1        0.848   1.821  -1.008  0.00  0.00    -0.040 A 
ATOM      8  C   LIG    1       -0.006   1.085  -0.208  0.00  0.00    +0.060 A 
ATOM      9  C   LIG    1       -0.886   1.720   0.655  0.00  0.00    -0.090 A 
ATOM     10  C   LIG    1       -1.907   1.143   1.612  0.00  0.00    +0.090 C 
ATOM     11  C   LIG    1       -2.855   2.315   1.947  0.00  0.00    +0.040 C 
ATOM     12  C   LIG    1       -1.941   3.545   1.736  0.00  0.00    +0.090 C 
ATOM     13 CL   LIG    1        1.940   1.010  -2.087  0.00  0.00    -0.060 Cl
ATOM     14  C   LIG    1       -0.907   3.098   0.726  0.00  0.00    -0.040 A 
ENDBRANCH   3   5
BRANCH   2  15
ATOM     15  C   LIG    1        1.062   7.463   0.292  0.00  0.00    +0.260 C 
ATOM     16  C   LIG    1        1.975   8.152  -0.752  0.00  0.00    +0.020 C 
ATOM     17  C   LIG    1        2.329   9.509  -0.110  0.00  0.00    +0.030 C 
ATOM     18  C   LIG    1        2.160   9.332   1.410  0.00  0.00    +0.240 C 
ATOM     19  C   LIG    1        1.710   7.875   1.637  0.00  0.00    +0.020 C 
BRANCH  18  20
ATOM     20  N   LIG    1        3.436   9.575   2.088  0.00  0.00    -0.690 N 
ATOM     21  H   LIG    1        4.038   8.836   2.267  0.00  0.00    +0.410 HD
ATOM     22  C   LIG    1        3.774  10.825   2.462  0.00  0.00    +0.510 C 
ATOM     23  O   LIG    1        3.021  11.750   2.237  0.00  0.00    -0.510 OA
BRANCH  22  24
ATOM     24  C   LIG    1        5.075  11.072   3.154  0.00  0.00    +0.510 C 
ATOM     25  O   LIG    1        5.828  10.148   3.378  0.00  0.00    -0.520 OA
ATOM     26  N   LIG    1        5.412  12.322   3.528  0.00  0.00    -0.820 N 
ATOM     27  H   LIG    1        6.257  12.483   3.977  0.00  0.00    +0.410 HD
ATOM     28  H   LIG    1        4.811  13.062   3.348  0.00  0.00    +0.420 HD
ENDBRANCH  22  24
ENDBRANCH  18  20
ENDBRANCH   2  15
TORSDOF 4
