REMARK  Name = ZINCrH000004s1uD.0
REMARK                            x       y       z     vdW  Elec       q    Type
REMARK                         _______ _______ _______ _____ _____    ______ ____
ROOT
ATOM      1  C   LIG    1        8.295   7.192  -1.414  0.00  0.00    +0.040 C 
ATOM      2  C   LIG    1        7.298   8.352  -1.360  0.00  0.00    +0.030 C 
ATOM      3  C   LIG    1        6.416   8.205  -0.116  0.00  0.00    +0.280 C 
ATOM      4  N   LIG    1        5.794   6.874  -0.131  0.00  0.00    -0.590 N 
ATOM      5  C   LIG    1        6.657   5.692  -0.266  0.00  0.00    +0.280 C 
ATOM      6  C   LIG    1        4.457   6.740  -0.019  0.00  0.00    +0.610 C 
ATOM      7  O   LIG    1        3.961   5.631   0.043  0.00  0.00    -0.540 OA
ATOM      8  C   LIG    1        7.535   5.868  -1.514  0.00  0.00    +0.030 C 
ENDROOT
BRANCH   1  15
ATOM      9  C   LIG    1       11.166   7.248  -1.090  0.00  0.00    +0.090 C 
ATOM     10  C   LIG    1       10.560   7.378  -2.463  0.00  0.00    -0.080 A 
ATOM     11  C   LIG    1       11.377   7.525  -3.568  0.00  0.00    +0.000 A 
ATOM     12  C   LIG    1       10.821   7.644  -4.828  0.00  0.00    +0.000 A 
ATOM     13  C   LIG    1        9.448   7.617  -4.983  0.00  0.00    +0.000 A 
ATOM     14  C   LIG    1        8.630   7.466  -3.879  0.00  0.00    +0.010 A 
ATOM     15  C   LIG    1        9.186   7.352  -2.618  0.00  0.00    -0.080 A 
ENDBRANCH   1  15
BRANCH   6  16
ATOM     16  C   LIG    1        3.597   7.937   0.029  0.00  0.00    -0.090 A 
ATOM     17  C   LIG    1        2.231   7.940   0.009  0.00  0.00    +0.310 A 
ATOM     18  N   LIG    1        1.843   9.232   0.065  0.00  0.00    -0.300 N 
ATOM     19  N   LIG    1        3.012  10.004   0.126  0.00  0.00    -0.050 NA
ATOM     20  N   LIG    1        4.025   9.209   0.103  0.00  0.00    -0.200 NA
BRANCH  18  21
ATOM     21  C   LIG    1        0.524   9.710   0.067  0.00  0.00    +0.120 A 
ATOM     22  C   LIG    1        0.280  11.075   0.134  0.00  0.00    +0.080 A 
ATOM     23  C   LIG    1       -1.020  11.544   0.137  0.00  0.00    +0.020 A 
ATOM     24  C   LIG    1       -2.078  10.653   0.077  0.00  0.00    +0.110 A 
ATOM     25  C   LIG    1       -1.836   9.291   0.005  0.00  0.00    +0.020 A 
ATOM     26  F   LIG    1       -3.348  11.113   0.086  0.00  0.00    -0.130 F 
ATOM     27  C   LIG    1       -0.538   8.819   0.002  0.00  0.00    +0.060 A 
ENDBRANCH  18  21
ENDBRANCH   6  16
TORSDOF 3
