REMARK  Name = ZINCrH000004r33X.0
REMARK                            x       y       z     vdW  Elec       q    Type
REMARK                         _______ _______ _______ _____ _____    ______ ____
ROOT
ATOM      1  C   LIG    1        3.766   1.854  -0.026  0.00  0.00    -0.030 C 
ATOM      2  C   LIG    1        4.124   2.234  -1.465  0.00  0.00    +0.040 C 
ATOM      3  C   LIG    1        5.418   3.055  -1.465  0.00  0.00    +0.270 C 
ATOM      4  N   LIG    1        6.461   2.293  -0.765  0.00  0.00    -0.630 N 
ATOM      5  C   LIG    1        6.186   1.800   0.591  0.00  0.00    +0.300 C 
ATOM      6  C   LIG    1        7.648   2.051  -1.356  0.00  0.00    +0.710 C 
ATOM      7  N   LIG    1        7.851   2.420  -2.637  0.00  0.00    -0.740 N 
ATOM      8  H   LIG    1        7.170   2.924  -3.110  0.00  0.00    +0.400 HD
ATOM      9  O   LIG    1        8.535   1.500  -0.734  0.00  0.00    -0.580 OA
ATOM     10  C   LIG    1        4.883   0.994   0.569  0.00  0.00    +0.040 C 
ENDROOT
BRANCH   7  11
ATOM     11  C   LIG    1        9.098   2.058  -3.314  0.00  0.00    +0.300 C 
ATOM     12  C   LIG    1        8.972   0.681  -4.008  0.00  0.00    +0.240 C 
ATOM     13  O   LIG    1        9.740   0.861  -5.211  0.00  0.00    -0.300 OA
ATOM     14  C   LIG    1        9.721   2.175  -5.564  0.00  0.00    +0.120 A 
ATOM     15  C   LIG    1       10.010   2.776  -6.786  0.00  0.00    -0.010 A 
ATOM     16  C   LIG    1        9.947   4.148  -6.919  0.00  0.00    +0.060 A 
ATOM     17  C   LIG    1        9.596   4.938  -5.840  0.00  0.00    -0.020 A 
ATOM     18  C   LIG    1        9.304   4.349  -4.622  0.00  0.00    +0.060 A 
ATOM     19  C   LIG    1        9.363   2.980  -4.489  0.00  0.00    -0.190 A 
ENDBRANCH   7  11
BRANCH   1  20
ATOM     20  C   LIG    1        2.476   1.076  -0.019  0.00  0.00    +0.400 C 
ATOM     21  O   LIG    1        2.499  -0.137  -0.027  0.00  0.00    -0.450 OA
BRANCH  20  26
ATOM     22  C   LIG    1       -2.556   3.855   0.043  0.00  0.00    +0.100 C 
ATOM     23  C   LIG    1       -1.237   3.126   0.027  0.00  0.00    -0.050 A 
ATOM     24  C   LIG    1       -1.215   1.742   0.013  0.00  0.00    +0.000 A 
ATOM     25  C   LIG    1       -0.012   1.068   0.004  0.00  0.00    +0.070 A 
ATOM     26  C   LIG    1        1.187   1.787  -0.003  0.00  0.00    -0.180 A 
ATOM     27  C   LIG    1        1.157   3.185   0.006  0.00  0.00    +0.060 A 
ATOM     28  C   LIG    1       -0.054   3.844   0.021  0.00  0.00    +0.000 A 
ENDBRANCH  20  26
ENDBRANCH   1  20
TORSDOF 3
