REMARK  Name = ZINCqH0000003Vke.0
REMARK                            x       y       z     vdW  Elec       q    Type
REMARK                         _______ _______ _______ _____ _____    ______ ____
ROOT
ATOM      1  N   LIG    1       -0.304  -2.690  -3.203  0.00  0.00    -0.740 N 
ATOM      2  H   LIG    1       -0.992  -2.264  -3.738  0.00  0.00    +0.390 HD
ATOM      3  C   LIG    1       -0.103  -2.300  -1.929  0.00  0.00    +0.710 C 
ATOM      4  N   LIG    1       -0.858  -1.317  -1.398  0.00  0.00    -0.630 N 
ATOM      5  C   LIG    1       -1.896  -0.673  -2.206  0.00  0.00    +0.270 C 
ATOM      6  O   LIG    1        0.759  -2.834  -1.258  0.00  0.00    -0.560 OA
ENDROOT
BRANCH   1  11
ATOM      7  C   LIG    1        0.553  -3.626  -5.312  0.00  0.00    +0.020 C 
ATOM      8  C   LIG    1       -0.056  -4.923  -5.882  0.00  0.00    +0.030 C 
ATOM      9  C   LIG    1       -0.948  -5.460  -4.736  0.00  0.00    +0.020 C 
ATOM     10  C   LIG    1       -0.114  -5.133  -3.471  0.00  0.00    +0.030 C 
ATOM     11  C   LIG    1        0.515  -3.759  -3.779  0.00  0.00    +0.280 C 
BRANCH   7  12
ATOM     12  S   LIG    1        2.267  -3.442  -5.878  0.00  0.00    -0.240 S 
BRANCH  12  14
ATOM     13  C   LIG    1        3.460  -2.972  -8.294  0.00  0.00    +0.060 C 
ATOM     14  C   LIG    1        2.079  -3.150  -7.658  0.00  0.00    +0.070 C 
ENDBRANCH  12  14
ENDBRANCH   7  12
ENDBRANCH   1  11
BRANCH   4  15
ATOM     15  C   LIG    1       -0.639  -0.892  -0.013  0.00  0.00    +0.430 C 
BRANCH  15  16
ATOM     16  C   LIG    1        0.380   0.218   0.017  0.00  0.00    +0.190 A 
ATOM     17  N   LIG    1        1.676   0.061   0.028  0.00  0.00    -0.460 NA
ATOM     18  C   LIG    1        2.267   1.265   0.056  0.00  0.00    +0.140 A 
ATOM     19  C   LIG    1        1.301   2.203   0.063  0.00  0.00    +0.120 A 
ATOM     20  N   LIG    1        0.104   1.540   0.038  0.00  0.00    -0.450 N 
BRANCH  20  21
ATOM     21  C   LIG    1       -1.228   2.150   0.030  0.00  0.00    +0.340 C 
BRANCH  21  22
ATOM     22  C   LIG    1       -1.751   2.233   1.440  0.00  0.00    -0.120 A 
ATOM     23  C   LIG    1       -2.584   1.244   1.929  0.00  0.00    +0.020 A 
ATOM     24  C   LIG    1       -3.061   1.318   3.224  0.00  0.00    +0.010 A 
ATOM     25  C   LIG    1       -2.711   2.387   4.029  0.00  0.00    +0.020 A 
ATOM     26  C   LIG    1       -1.883   3.379   3.539  0.00  0.00    +0.010 A 
ATOM     27  C   LIG    1       -1.403   3.302   2.245  0.00  0.00    +0.020 A 
ENDBRANCH  21  22
ENDBRANCH  20  21
ENDBRANCH  15  16
ENDBRANCH   4  15
TORSDOF 7
