REMARK  Name = ZINCrD000000AC4F.0
REMARK                            x       y       z     vdW  Elec       q    Type
REMARK                         _______ _______ _______ _____ _____    ______ ____
ROOT
ATOM      1  O   LIG    1       -2.839   7.027  -1.852  0.00  0.00    -0.510 OA
ATOM      2  C   LIG    1       -3.102   7.933  -1.089  0.00  0.00    +0.520 C 
ATOM      3  N   LIG    1       -4.214   8.671  -1.277  0.00  0.00    -0.620 N 
ATOM      4  C   LIG    1       -4.553   9.775  -0.365  0.00  0.00    +0.250 C 
ATOM      5  C   LIG    1       -6.008   9.601   0.086  0.00  0.00    +0.220 C 
ATOM      6  O   LIG    1       -6.842   9.449  -1.065  0.00  0.00    -0.370 OA
ATOM      7  C   LIG    1       -6.551   8.290  -1.850  0.00  0.00    +0.200 C 
ATOM      8  C   LIG    1       -5.121   8.401  -2.403  0.00  0.00    +0.280 C 
ENDROOT
BRANCH   7   9
ATOM      9  C   LIG    1       -7.527   8.200  -2.995  0.00  0.00    -0.080 A 
ATOM     10  C   LIG    1       -8.143   9.342  -3.469  0.00  0.00    +0.060 A 
ATOM     11  C   LIG    1       -9.038   9.260  -4.520  0.00  0.00    +0.010 A 
ATOM     12  C   LIG    1       -9.316   8.035  -5.097  0.00  0.00    +0.030 A 
ATOM     13  C   LIG    1       -8.700   6.892  -4.624  0.00  0.00    +0.030 A 
ATOM     14  C   LIG    1       -7.800   6.974  -3.577  0.00  0.00    -0.030 A 
ATOM     15 CL   LIG    1       -7.020   5.540  -2.987  0.00  0.00    -0.060 Cl
ENDBRANCH   7   9
BRANCH   2  16
ATOM     16  C   LIG    1       -2.184   8.234   0.068  0.00  0.00    +0.150 C 
BRANCH  16  17
ATOM     17  C   LIG    1       -1.024   7.272   0.052  0.00  0.00    +0.080 A 
ATOM     18  C   LIG    1        0.247   7.691   0.043  0.00  0.00    -0.040 A 
ATOM     19  S   LIG    1        1.294   6.274   0.032  0.00  0.00    +0.120 S 
ATOM     20  C   LIG    1       -0.126   5.231   0.032  0.00  0.00    +0.100 A 
ATOM     21  N   LIG    1       -1.197   5.972   0.046  0.00  0.00    -0.400 NA
BRANCH  20  22
ATOM     22  C   LIG    1       -0.105   3.753   0.023  0.00  0.00    +0.150 A 
ATOM     23  C   LIG    1        1.113   3.070   0.008  0.00  0.00    +0.240 A 
ATOM     24  N   LIG    1        1.125   1.750   0.001  0.00  0.00    -0.430 NA
ATOM     25  C   LIG    1       -0.013   1.076   0.008  0.00  0.00    +0.240 A 
ATOM     26  C   LIG    1       -1.223   1.749   0.017  0.00  0.00    +0.240 A 
ATOM     27  N   LIG    1       -1.247   3.069   0.030  0.00  0.00    -0.400 NA
ENDBRANCH  20  22
ENDBRANCH  16  17
ENDBRANCH   2  16
TORSDOF 4
