REMARK  Name = ZINCqH0000008pF1.0
REMARK                            x       y       z     vdW  Elec       q    Type
REMARK                         _______ _______ _______ _____ _____    ______ ____
ROOT
ATOM      1  N   LIG    1       -0.860   3.455   1.220  0.00  0.00    -0.720 N 
ATOM      2  H   LIG    1       -0.234   3.978   0.695  0.00  0.00    +0.400 HD
ATOM      3  C   LIG    1       -1.845   4.070   1.903  0.00  0.00    +0.590 C 
ATOM      4  O   LIG    1       -2.630   3.414   2.561  0.00  0.00    -0.530 OA
ENDROOT
BRANCH   3   5
ATOM      5  C   LIG    1       -1.971   5.537   1.853  0.00  0.00    -0.280 A 
ATOM      6  C   LIG    1       -1.161   6.413   1.161  0.00  0.00    +0.300 A 
ATOM      7  N   LIG    1       -1.618   7.656   1.378  0.00  0.00    -0.460 N 
ATOM      8  H   LIG    1       -1.232   8.465   1.008  0.00  0.00    +0.450 HD
ATOM      9  N   LIG    1       -2.730   7.607   2.223  0.00  0.00    -0.280 NA
ATOM     10  C   LIG    1       -2.979   6.355   2.534  0.00  0.00    +0.180 A 
BRANCH  10  11
ATOM     11  C   LIG    1       -4.072   5.864   3.408  0.00  0.00    -0.020 A 
ATOM     12  C   LIG    1       -4.478   6.615   4.509  0.00  0.00    +0.050 A 
ATOM     13  C   LIG    1       -5.495   6.153   5.320  0.00  0.00    +0.020 A 
ATOM     14  C   LIG    1       -6.112   4.947   5.040  0.00  0.00    +0.030 A 
ATOM     15  C   LIG    1       -5.714   4.196   3.947  0.00  0.00    -0.040 A 
ATOM     16 CL   LIG    1       -6.494   2.684   3.603  0.00  0.00    -0.070 Cl
ATOM     17  C   LIG    1       -4.700   4.652   3.127  0.00  0.00    +0.110 A 
ENDBRANCH  10  11
ENDBRANCH   3   5
BRANCH   1  19
ATOM     18  C   LIG    1        0.073   1.595   2.505  0.00  0.00    +0.020 C 
ATOM     19  C   LIG    1       -0.735   1.996   1.269  0.00  0.00    +0.220 C 
BRANCH  19  20
ATOM     20  C   LIG    1       -0.018   1.503   0.010  0.00  0.00    +0.260 C 
BRANCH  20  21
ATOM     21  C   LIG    1        0.002  -0.004   0.002  0.00  0.00    -0.090 A 
ATOM     22  C   LIG    1       -0.913  -0.703  -0.763  0.00  0.00    +0.010 A 
ATOM     23  C   LIG    1       -0.895  -2.086  -0.771  0.00  0.00    +0.050 A 
ATOM     24  C   LIG    1        0.038  -2.770  -0.016  0.00  0.00    -0.010 A 
ATOM     25  C   LIG    1        0.955  -2.071   0.750  0.00  0.00    +0.100 A 
ATOM     26  F   LIG    1        1.867  -2.739   1.490  0.00  0.00    -0.140 F 
ATOM     27  C   LIG    1        0.939  -0.686   0.754  0.00  0.00    -0.010 A 
ENDBRANCH  20  21
BRANCH  20  28
ATOM     28  O   LIG    1        1.322   1.997   0.000  0.00  0.00    -0.550 OA
ATOM     29  H   LIG    1        1.851   1.715   0.759  0.00  0.00    +0.380 HD
ENDBRANCH  20  28
ENDBRANCH  19  20
ENDBRANCH   1  19
TORSDOF 6
