REMARK  Name = ZINCrH000004uDV9.0
REMARK                            x       y       z     vdW  Elec       q    Type
REMARK                         _______ _______ _______ _____ _____    ______ ____
ROOT
ATOM      1  O   LIG    1       -1.204   2.839   0.023  0.00  0.00    -0.530 OA
ATOM      2  C   LIG    1       -1.187   1.624   0.017  0.00  0.00    +0.560 C 
ATOM      3  N   LIG    1       -0.011   0.966   0.007  0.00  0.00    -0.720 N 
ATOM      4  H   LIG    1        0.002  -0.004   0.002  0.00  0.00    +0.400 HD
ENDROOT
BRANCH   2   5
ATOM      5  C   LIG    1       -2.458   0.867   0.018  0.00  0.00    -0.130 A 
ATOM      6  C   LIG    1       -2.442  -0.528   0.005  0.00  0.00    +0.040 A 
ATOM      7  C   LIG    1       -3.631  -1.228   0.012  0.00  0.00    +0.030 A 
ATOM      8  C   LIG    1       -4.837  -0.550   0.021  0.00  0.00    -0.080 A 
ATOM      9  C   LIG    1       -4.859   0.834   0.029  0.00  0.00    +0.020 A 
ATOM     10  C   LIG    1       -3.677   1.546   0.028  0.00  0.00    +0.080 A 
BRANCH   8  11
ATOM     11  C   LIG    1       -6.131  -1.321   0.024  0.00  0.00    +0.340 C 
BRANCH  11  12
ATOM     12  N   LIG    1       -6.558  -1.563  -1.357  0.00  0.00    -0.620 N 
ATOM     13  C   LIG    1       -7.424  -0.662  -2.126  0.00  0.00    +0.260 C 
ATOM     14  C   LIG    1       -7.240  -1.079  -3.604  0.00  0.00    +0.040 C 
ATOM     15  C   LIG    1       -6.821  -2.561  -3.461  0.00  0.00    +0.050 C 
ATOM     16  C   LIG    1       -6.211  -2.643  -2.079  0.00  0.00    +0.520 C 
ATOM     17  O   LIG    1       -5.513  -3.550  -1.681  0.00  0.00    -0.530 OA
ENDBRANCH  11  12
ENDBRANCH   8  11
ENDBRANCH   2   5
BRANCH   3  18
ATOM     18  C   LIG    1        1.248   1.716  -0.001  0.00  0.00    +0.330 C 
BRANCH  18  19
ATOM     19  C   LIG    1        2.406   0.752  -0.017  0.00  0.00    -0.110 A 
ATOM     20  C   LIG    1        2.953   0.308   1.173  0.00  0.00    +0.070 A 
ATOM     21  C   LIG    1        4.013  -0.579   1.158  0.00  0.00    +0.020 A 
ATOM     22  C   LIG    1        4.532  -1.015  -0.047  0.00  0.00    +0.080 A 
ATOM     23  C   LIG    1        3.989  -0.567  -1.236  0.00  0.00    -0.180 A 
ATOM     24  C   LIG    1        2.926   0.316  -1.222  0.00  0.00    +0.090 A 
BRANCH  23  25
ATOM     25  C   LIG    1        4.555  -1.043  -2.550  0.00  0.00    +0.510 C 
ATOM     26  F   LIG    1        3.543  -1.061  -3.515  0.00  0.00    -0.180 F 
ATOM     27  F   LIG    1        5.075  -2.332  -2.394  0.00  0.00    -0.180 F 
ATOM     28  F   LIG    1        5.574  -0.176  -2.959  0.00  0.00    -0.170 F 
ENDBRANCH  23  25
ENDBRANCH  18  19
ENDBRANCH   3  18
TORSDOF 6
