REMARK  Name = ZINCrH00000tj0Lc.1
REMARK                            x       y       z     vdW  Elec       q    Type
REMARK                         _______ _______ _______ _____ _____    ______ ____
ROOT
ATOM      1  N   LIG    1        0.025  -0.018   2.423  0.00  0.00    -0.680 N 
ATOM      2  H   LIG    1        0.077   0.950   2.432  0.00  0.00    +0.410 HD
ATOM      3  C   LIG    1       -0.056  -0.699   3.584  0.00  0.00    +0.710 C 
ATOM      4  N   LIG    1       -0.156  -0.033   4.751  0.00  0.00    -0.740 N 
ATOM      5  H   LIG    1       -0.169   0.937   4.756  0.00  0.00    +0.400 HD
ATOM      6  O   LIG    1       -0.040  -1.915   3.577  0.00  0.00    -0.570 OA
ENDROOT
BRANCH   1  11
ATOM      7  C   LIG    1        0.662  -2.627  -0.092  0.00  0.00    -0.650 A 
ATOM      8  C   LIG    1        0.053  -2.077  -1.205  0.00  0.00    +0.130 A 
ATOM      9  C   LIG    1       -0.572  -0.846  -1.118  0.00  0.00    +0.000 A 
ATOM     10  C   LIG    1       -0.580  -0.156   0.083  0.00  0.00    +0.140 A 
ATOM     11  C   LIG    1        0.035  -0.710   1.204  0.00  0.00    +0.120 A 
ATOM     12  C   LIG    1        0.655  -1.946   1.111  0.00  0.00    +0.160 A 
BRANCH   7  13
ATOM     13  S   LIG    1        1.450  -4.198  -0.209  0.00  0.00    +2.500 S 
ATOM     14  O   LIG    1        2.438  -4.171   0.813  0.00  0.00    -0.930 OA
ATOM     15  O   LIG    1        1.816  -4.306  -1.578  0.00  0.00    -0.930 OA
BRANCH  13  17
ATOM     16  C   LIG    1        0.712  -6.810   0.130  0.00  0.00    +0.090 C 
ATOM     17  C   LIG    1        0.145  -5.390   0.198  0.00  0.00    -0.330 C 
ENDBRANCH  13  17
ENDBRANCH   7  13
BRANCH  10  18
ATOM     18  O   LIG    1       -1.189   1.056   0.168  0.00  0.00    -0.490 OA
ATOM     19  H   LIG    1       -0.608   1.804  -0.026  0.00  0.00    +0.400 HD
ENDBRANCH  10  18
ENDBRANCH   1  11
BRANCH   4  20
ATOM     20  C   LIG    1       -0.244  -0.773   6.012  0.00  0.00    +0.310 C 
BRANCH  20  21
ATOM     21  C   LIG    1       -0.348   0.214   7.176  0.00  0.00    +0.070 C 
BRANCH  21  22
ATOM     22  S   LIG    1       -0.458  -0.702   8.738  0.00  0.00    -0.090 S 
BRANCH  22  23
ATOM     23  C   LIG    1       -0.568   0.579   9.943  0.00  0.00    -0.090 A 
ATOM     24  C   LIG    1       -0.549   1.911   9.547  0.00  0.00    -0.020 A 
ATOM     25  C   LIG    1       -0.640   2.912  10.493  0.00  0.00    +0.030 A 
ATOM     26  C   LIG    1       -0.741   2.591  11.835  0.00  0.00    -0.090 A 
ATOM     27  C   LIG    1       -0.755   1.266  12.233  0.00  0.00    -0.070 A 
ATOM     28  C   LIG    1       -0.865   0.921  13.696  0.00  0.00    +0.090 C 
ATOM     29  C   LIG    1       -0.835   3.686  12.865  0.00  0.00    +0.090 C 
ATOM     30  C   LIG    1       -0.669   0.260  11.292  0.00  0.00    +0.040 A 
ENDBRANCH  22  23
ENDBRANCH  21  22
ENDBRANCH  20  21
ENDBRANCH   4  20
TORSDOF 8
