REMARK  Name = ZINCrD0000074NIQ.0
REMARK                            x       y       z     vdW  Elec       q    Type
REMARK                         _______ _______ _______ _____ _____    ______ ____
ROOT
ATOM      1  C   LIG    1        0.091   0.000  -0.010  0.00  0.00    +0.520 C 
ATOM      2  N   LIG    1       -0.016   1.344   0.009  0.00  0.00    -0.660 N 
ATOM      3  H   LIG    1        0.782   1.894   0.015  0.00  0.00    +0.420 HD
ATOM      4  O   LIG    1       -0.903  -0.689   0.082  0.00  0.00    -0.490 OA
ENDROOT
BRANCH   2   5
ATOM      5  C   LIG    1       -1.282   1.945   0.016  0.00  0.00    +0.170 A 
ATOM      6  C   LIG    1       -2.376   1.264  -0.501  0.00  0.00    +0.050 A 
ATOM      7  C   LIG    1       -3.624   1.865  -0.492  0.00  0.00    +0.100 A 
ATOM      8  C   LIG    1       -3.780   3.140   0.032  0.00  0.00    +0.060 A 
ATOM      9  O   LIG    1       -5.016   3.721   0.035  0.00  0.00    -0.310 OA
ATOM     10  C   LIG    1       -5.982   3.130   0.907  0.00  0.00    +0.230 C 
ATOM     11  C   LIG    1       -6.663   1.948   0.235  0.00  0.00    -0.010 C 
ATOM     12  C   LIG    1       -5.697   0.808  -0.048  0.00  0.00    +0.230 C 
ATOM     13  C   LIG    1       -2.689   3.819   0.548  0.00  0.00    +0.070 A 
ATOM     14  O   LIG    1       -4.707   1.207  -0.999  0.00  0.00    -0.310 OA
ATOM     15  C   LIG    1       -1.442   3.220   0.545  0.00  0.00    -0.060 A 
ATOM     16 CL   LIG    1       -0.073   4.065   1.197  0.00  0.00    -0.050 Cl
ENDBRANCH   2   5
BRANCH   1  17
ATOM     17  C   LIG    1        1.446  -0.645  -0.145  0.00  0.00    +0.270 C 
BRANCH  17  18
ATOM     18  O   LIG    1        1.297  -2.090  -0.140  0.00  0.00    -0.330 OA
BRANCH  18  19
ATOM     19  C   LIG    1        2.422  -2.822  -0.253  0.00  0.00    +0.510 C 
ATOM     20  O   LIG    1        3.499  -2.268  -0.354  0.00  0.00    -0.490 OA
BRANCH  19  26
ATOM     21  C   LIG    1        4.685  -7.273  -0.501  0.00  0.00    +0.110 C 
ATOM     22  C   LIG    1        3.433  -6.444  -0.374  0.00  0.00    -0.130 A 
ATOM     23  C   LIG    1        2.205  -7.064  -0.260  0.00  0.00    +0.070 A 
ATOM     24  C   LIG    1        1.047  -6.311  -0.143  0.00  0.00    +0.000 A 
ATOM     25  C   LIG    1        1.111  -4.935  -0.134  0.00  0.00    +0.100 A 
ATOM     26  C   LIG    1        2.347  -4.294  -0.256  0.00  0.00    -0.160 A 
ATOM     27  C   LIG    1        3.516  -5.059  -0.373  0.00  0.00    +0.170 A 
BRANCH  27  28
ATOM     28  O   LIG    1        4.722  -4.449  -0.486  0.00  0.00    -0.480 OA
ATOM     29  H   LIG    1        5.156  -4.278   0.361  0.00  0.00    +0.400 HD
ENDBRANCH  27  28
ENDBRANCH  19  26
ENDBRANCH  18  19
ENDBRANCH  17  18
ENDBRANCH   1  17
TORSDOF 6
