REMARK  Name = ZINCrH000004ngEv.0
REMARK                            x       y       z     vdW  Elec       q    Type
REMARK                         _______ _______ _______ _____ _____    ______ ____
ROOT
ATOM      1  C   LIG    1       -1.236   2.183   0.020  0.00  0.00    -0.230 C 
ENDROOT
BRANCH   1   4
ATOM      2  C   LIG    1        2.040   0.550  -0.015  0.00  0.00    +0.020 A 
ATOM      3  C   LIG    1        1.330   1.720  -0.001  0.00  0.00    -0.010 A 
ATOM      4  C   LIG    1       -0.016   1.298   0.009  0.00  0.00    +0.010 A 
ATOM      5  N   LIG    1        0.002  -0.004   0.002  0.00  0.00    -0.330 NA
ATOM      6  O   LIG    1        1.129  -0.440  -0.011  0.00  0.00    +0.130 OA
BRANCH   2  11
ATOM      7  C   LIG    1        5.467  -0.995  -0.053  0.00  0.00    +0.130 A 
ATOM      8  C   LIG    1        6.271   0.137  -0.054  0.00  0.00    -0.060 A 
ATOM      9  C   LIG    1        5.700   1.396  -0.043  0.00  0.00    +0.060 A 
ATOM     10  C   LIG    1        4.327   1.536  -0.030  0.00  0.00    +0.010 A 
ATOM     11  C   LIG    1        3.511   0.404  -0.028  0.00  0.00    +0.010 A 
ATOM     12  C   LIG    1        4.088  -0.866  -0.034  0.00  0.00    +0.010 A 
BRANCH   7  14
ATOM     13  C   LIG    1        7.461  -2.289  -0.078  0.00  0.00    +0.250 C 
ATOM     14  O   LIG    1        6.033  -2.231  -0.065  0.00  0.00    -0.310 OA
ENDBRANCH   7  14
ENDBRANCH   2  11
ENDBRANCH   1   4
BRANCH   1  15
ATOM     15  S   LIG    1       -1.717   2.529   1.735  0.00  0.00    +2.410 S 
ATOM     16  O   LIG    1       -0.690   3.298   2.346  0.00  0.00    -0.920 OA
ATOM     17  O   LIG    1       -2.129   1.313   2.344  0.00  0.00    -0.910 OA
BRANCH  15  18
ATOM     18  C   LIG    1       -3.174   3.585   1.509  0.00  0.00    -0.230 C 
BRANCH  18  19
ATOM     19  C   LIG    1       -3.721   3.980   2.857  0.00  0.00    -0.210 A 
ATOM     20  C   LIG    1       -3.399   5.063   3.603  0.00  0.00    +0.210 A 
ATOM     21  O   LIG    1       -4.141   4.991   4.717  0.00  0.00    +0.110 OA
ATOM     22  N   LIG    1       -4.850   4.012   4.716  0.00  0.00    -0.350 NA
ATOM     23  C   LIG    1       -4.696   3.309   3.631  0.00  0.00    +0.050 A 
BRANCH  23  24
ATOM     24  C   LIG    1       -5.410   2.031   3.273  0.00  0.00    +0.070 C 
ATOM     25  C   LIG    1       -6.896   2.025   3.670  0.00  0.00    +0.030 C 
ATOM     26  C   LIG    1       -6.694   0.559   4.094  0.00  0.00    +0.010 C 
ATOM     27  C   LIG    1       -5.209   0.905   4.301  0.00  0.00    +0.030 C 
ENDBRANCH  23  24
ENDBRANCH  18  19
ENDBRANCH  15  18
ENDBRANCH   1  15
TORSDOF 7
