REMARK  Name = ZINCrD000000CdU1.0
REMARK                            x       y       z     vdW  Elec       q    Type
REMARK                         _______ _______ _______ _____ _____    ______ ____
ROOT
ATOM      1  O   LIG    1        6.212   6.566  -0.022  0.00  0.00    -0.490 OA
ATOM      2  C   LIG    1        5.312   7.380  -0.009  0.00  0.00    +0.530 C 
ATOM      3  N   LIG    1        4.030   6.966   0.000  0.00  0.00    -0.620 N 
ATOM      4  H   LIG    1        3.310   7.617   0.010  0.00  0.00    +0.430 HD
ENDROOT
BRANCH   2   5
ATOM      5  C   LIG    1        5.629   8.853  -0.004  0.00  0.00    +0.020 C 
ATOM      6  C   LIG    1        5.150   9.518   1.306  0.00  0.00    +0.100 C 
ATOM      7  C   LIG    1        6.221  10.540   1.618  0.00  0.00    +0.530 C 
ATOM      8  N   LIG    1        7.329  10.280   0.903  0.00  0.00    -0.580 N 
ATOM      9  O   LIG    1        6.098  11.460   2.399  0.00  0.00    -0.510 OA
ATOM     10  C   LIG    1        7.154   9.090   0.060  0.00  0.00    +0.310 C 
BRANCH   8  11
ATOM     11  C   LIG    1        8.501  11.045   0.956  0.00  0.00    +0.100 A 
ATOM     12  C   LIG    1        9.492  10.737   1.876  0.00  0.00    +0.060 A 
ATOM     13  C   LIG    1       10.650  11.491   1.922  0.00  0.00    +0.020 A 
ATOM     14  C   LIG    1       10.817  12.558   1.059  0.00  0.00    +0.060 A 
ATOM     15  C   LIG    1        9.829  12.873   0.144  0.00  0.00    -0.010 A 
ATOM     16  C   LIG    1        8.671  12.120   0.089  0.00  0.00    +0.110 A 
ATOM     17  F   LIG    1        7.706  12.426  -0.806  0.00  0.00    -0.130 F 
ENDBRANCH   8  11
ENDBRANCH   2   5
BRANCH   3  18
ATOM     18  C   LIG    1        3.737   5.608  -0.004  0.00  0.00    +0.270 A 
ATOM     19  N   LIG    1        2.546   5.098  -0.001  0.00  0.00    -0.490 NA
ATOM     20  C   LIG    1        2.457   3.775  -0.001  0.00  0.00    +0.120 A 
ATOM     21  C   LIG    1        3.632   3.118  -0.015  0.00  0.00    -0.050 A 
ATOM     22  S   LIG    1        4.929   4.311  -0.021  0.00  0.00    +0.210 S 
BRANCH  20  23
ATOM     23  C   LIG    1        1.154   3.068   0.007  0.00  0.00    +0.190 A 
ATOM     24  C   LIG    1       -0.031   3.803   0.022  0.00  0.00    +0.000 A 
ATOM     25  C   LIG    1       -1.239   3.129   0.030  0.00  0.00    +0.060 A 
ATOM     26  C   LIG    1       -1.224   1.741   0.017  0.00  0.00    -0.030 A 
ATOM     27  C   LIG    1       -0.013   1.076   0.008  0.00  0.00    +0.260 A 
ATOM     28  N   LIG    1        1.125   1.741   0.001  0.00  0.00    -0.480 NA
ENDBRANCH  20  23
ENDBRANCH   3  18
TORSDOF 4
