REMARK  Name = ZINCrH00000tj1kO.0
REMARK                            x       y       z     vdW  Elec       q    Type
REMARK                         _______ _______ _______ _____ _____    ______ ____
ROOT
ATOM      1  N   LIG    1       -3.612  -2.430   0.006  0.00  0.00    -0.480 N 
ATOM      2  C   LIG    1       -3.570  -3.241  -1.111  0.00  0.00    +0.050 A 
ATOM      3  C   LIG    1       -3.585  -3.004  -2.478  0.00  0.00    +0.010 A 
ATOM      4  C   LIG    1       -3.521  -4.066  -3.356  0.00  0.00    +0.030 A 
ATOM      5  C   LIG    1       -3.435  -5.367  -2.881  0.00  0.00    +0.000 A 
ATOM      6  C   LIG    1       -3.412  -5.618  -1.538  0.00  0.00    +0.070 A 
ATOM      7  C   LIG    1       -3.477  -4.558  -0.630  0.00  0.00    +0.050 A 
ATOM      8  N   LIG    1       -3.476  -4.485   0.726  0.00  0.00    -0.480 NA
ATOM      9  C   LIG    1       -3.554  -3.240   1.097  0.00  0.00    +0.290 A 
ENDROOT
BRANCH   1  10
ATOM     10  C   LIG    1       -3.706  -0.968   0.014  0.00  0.00    +0.330 C 
BRANCH  10  11
ATOM     11  C   LIG    1       -2.299  -0.366   0.011  0.00  0.00    +0.190 C 
BRANCH  11  12
ATOM     12  O   LIG    1       -2.391   1.060   0.019  0.00  0.00    -0.310 OA
BRANCH  12  19
ATOM     13  C   LIG    1       -2.551   3.881   0.045  0.00  0.00    +0.100 C 
ATOM     14  C   LIG    1       -1.238   3.141   0.029  0.00  0.00    -0.110 A 
ATOM     15  C   LIG    1       -0.049   3.844   0.023  0.00  0.00    +0.050 A 
ATOM     16  C   LIG    1        1.156   3.166   0.008  0.00  0.00    -0.020 A 
ATOM     17  C   LIG    1        1.174   1.783   0.000  0.00  0.00    +0.040 A 
ATOM     18  C   LIG    1       -0.013   1.076   0.008  0.00  0.00    -0.070 A 
ATOM     19  C   LIG    1       -1.223   1.754   0.017  0.00  0.00    +0.120 A 
ENDBRANCH  12  19
ENDBRANCH  11  12
ENDBRANCH  10  11
ENDBRANCH   1  10
BRANCH   9  20
ATOM     20  C   LIG    1       -3.579  -2.766   2.527  0.00  0.00    +0.140 C 
BRANCH  20  21
ATOM     21  C   LIG    1       -5.027  -2.698   3.017  0.00  0.00    +0.280 C 
BRANCH  21  22
ATOM     22  N   LIG    1       -5.050  -2.237   4.408  0.00  0.00    -0.730 N 
ATOM     23  H   LIG    1       -4.220  -2.030   4.864  0.00  0.00    +0.400 HD
ATOM     24  C   LIG    1       -6.226  -2.100   5.052  0.00  0.00    +0.520 C 
ATOM     25  O   LIG    1       -7.264  -2.359   4.481  0.00  0.00    -0.530 OA
BRANCH  24  26
ATOM     26  C   LIG    1       -6.250  -1.626   6.482  0.00  0.00    -0.010 C 
ATOM     27  C   LIG    1       -7.698  -1.558   6.973  0.00  0.00    +0.050 C 
ATOM     28  C   LIG    1       -5.617  -0.235   6.569  0.00  0.00    +0.040 C 
ENDBRANCH  24  26
ENDBRANCH  21  22
ENDBRANCH  20  21
ENDBRANCH   9  20
TORSDOF 8
