REMARK  Name = ZINCrH00000No4wf.0
REMARK                            x       y       z     vdW  Elec       q    Type
REMARK                         _______ _______ _______ _____ _____    ______ ____
ROOT
ATOM      1  C   LIG    1       -9.023   4.700   0.488  0.00  0.00    +0.090 A 
ATOM      2  C   LIG    1       -7.645   4.724   0.379  0.00  0.00    +0.010 A 
ATOM      3  C   LIG    1       -6.936   3.526   0.263  0.00  0.00    -0.070 A 
ATOM      4  C   LIG    1       -7.623   2.309   0.254  0.00  0.00    +0.080 A 
ATOM      5  C   LIG    1       -8.997   2.293   0.370  0.00  0.00    -0.040 A 
ATOM      6  C   LIG    1       -9.701   3.482   0.484  0.00  0.00    +0.130 A 
ENDROOT
BRANCH   1   8
ATOM      7  C   LIG    1       -8.957   7.075   0.599  0.00  0.00    +0.240 C 
ATOM      8  O   LIG    1       -9.716   5.864   0.601  0.00  0.00    -0.300 OA
ENDBRANCH   1   8
BRANCH   3   9
ATOM      9  C   LIG    1       -5.466   3.545   0.145  0.00  0.00    +0.310 C 
ATOM     10  N   LIG    1       -4.809   2.431   0.038  0.00  0.00    -0.250 NA
BRANCH  10  11
ATOM     11  N   LIG    1       -3.408   2.442   0.033  0.00  0.00    -0.440 N 
ATOM     12  C   LIG    1       -2.656   3.558   0.028  0.00  0.00    +0.550 C 
ATOM     13  C   LIG    1       -1.231   3.165   0.023  0.00  0.00    -0.140 A 
ATOM     14  C   LIG    1       -0.035   3.863   0.017  0.00  0.00    +0.100 A 
ATOM     15  C   LIG    1        1.166   3.170   0.020  0.00  0.00    +0.060 A 
ATOM     16  C   LIG    1        1.177   1.788   0.023  0.00  0.00    +0.060 A 
ATOM     17  C   LIG    1       -0.013   1.075   0.023  0.00  0.00    +0.110 A 
ATOM     18  C   LIG    1       -1.220   1.755   0.020  0.00  0.00    -0.130 A 
ATOM     19  O   LIG    1       -3.077   4.697   0.026  0.00  0.00    -0.460 OA
ATOM     20  C   LIG    1       -2.638   1.339   0.019  0.00  0.00    +0.590 C 
ATOM     21  O   LIG    1       -3.042   0.194   0.021  0.00  0.00    -0.430 OA
ENDBRANCH  10  11
ENDBRANCH   3   9
BRANCH   6  22
ATOM     22  O   LIG    1      -11.056   3.461   0.593  0.00  0.00    -0.300 OA
BRANCH  22  23
ATOM     23  C   LIG    1      -11.687   2.179   0.582  0.00  0.00    +0.180 C 
BRANCH  23  24
ATOM     24  C   LIG    1      -13.201   2.355   0.714  0.00  0.00    +0.050 C 
BRANCH  24  25
ATOM     25  C   LIG    1      -13.877   0.982   0.702  0.00  0.00    -0.020 C 
ATOM     26  C   LIG    1      -15.396   1.162   0.708  0.00  0.00    +0.030 C 
ATOM     27  C   LIG    1      -13.452   0.194   1.942  0.00  0.00    +0.030 C 
ENDBRANCH  24  25
ENDBRANCH  23  24
ENDBRANCH  22  23
ENDBRANCH   6  22
TORSDOF 7
