REMARK  Name = ZINCrD00000F5LjZ.0
REMARK                            x       y       z     vdW  Elec       q    Type
REMARK                         _______ _______ _______ _____ _____    ______ ____
ROOT
ATOM      1  C   LIG    1       -4.795  -0.415   2.576  0.00  0.00    +0.070 A 
ATOM      2  C   LIG    1       -4.120   0.005   1.443  0.00  0.00    +0.200 A 
ATOM      3  N   LIG    1       -4.846  -0.420   0.374  0.00  0.00    -0.370 N 
ATOM      4  C   LIG    1       -4.681  -0.310  -0.984  0.00  0.00    +0.160 A 
ATOM      5  C   LIG    1       -5.596  -0.850  -1.813  0.00  0.00    +0.230 A 
ATOM      6  N   LIG    1       -6.668  -1.495  -1.341  0.00  0.00    -0.470 NA
ATOM      7  C   LIG    1       -6.875  -1.629  -0.054  0.00  0.00    +0.400 A 
ATOM      8  C   LIG    1       -5.952  -1.085   0.864  0.00  0.00    +0.150 A 
ATOM      9  N   LIG    1       -5.903  -1.067   2.183  0.00  0.00    -0.420 NA
ENDROOT
BRANCH   1  14
ATOM     10  C   LIG    1       -2.672   0.219   5.494  0.00  0.00    +0.230 A 
ATOM     11  C   LIG    1       -3.577   0.242   6.554  0.00  0.00    +0.000 A 
ATOM     12  C   LIG    1       -4.925   0.043   6.300  0.00  0.00    +0.080 A 
ATOM     13  C   LIG    1       -5.329  -0.173   4.994  0.00  0.00    +0.020 A 
ATOM     14  C   LIG    1       -4.373  -0.185   3.976  0.00  0.00    +0.210 A 
ATOM     15  N   LIG    1       -3.089   0.004   4.252  0.00  0.00    -0.440 NA
BRANCH  10  17
ATOM     16  C   LIG    1       -0.134   0.591   5.955  0.00  0.00    +0.090 C 
ATOM     17  C   LIG    1       -1.277   0.423   5.747  0.00  0.00    -0.150 C 
ENDBRANCH  10  17
ENDBRANCH   1  14
BRANCH   2  18
ATOM     18  N   LIG    1       -2.927   0.718   1.404  0.00  0.00    -0.560 N 
ATOM     19  H   LIG    1       -3.003   1.578   1.926  0.00  0.00    +0.370 HD
BRANCH  18  20
ATOM     20  C   LIG    1       -2.513   0.977   0.019  0.00  0.00    +0.220 C 
BRANCH  20  21
ATOM     21  C   LIG    1       -1.220   1.750   0.017  0.00  0.00    -0.130 A 
ATOM     22  C   LIG    1       -0.013   1.076   0.008  0.00  0.00    +0.080 A 
ATOM     23  C   LIG    1        1.175   1.782   0.000  0.00  0.00    -0.020 A 
ATOM     24  C   LIG    1        1.155   3.169   0.008  0.00  0.00    +0.140 A 
ATOM     25  C   LIG    1       -0.057   3.844   0.023  0.00  0.00    -0.080 A 
ATOM     26  C   LIG    1       -1.242   3.133   0.031  0.00  0.00    +0.050 A 
BRANCH  24  27
ATOM     27  O   LIG    1        2.322   3.866   0.000  0.00  0.00    -0.320 OA
ATOM     28  C   LIG    1        2.225   5.292   0.009  0.00  0.00    +0.250 C 
ENDBRANCH  24  27
ENDBRANCH  20  21
ENDBRANCH  18  20
ENDBRANCH   2  18
TORSDOF 6
