REMARK  Name = ZINCpk00000ebD7y.0
REMARK                            x       y       z     vdW  Elec       q    Type
REMARK                         _______ _______ _______ _____ _____    ______ ____
ROOT
ATOM      1  O   LIG    1        0.650   4.116   0.018  0.00  0.00    -0.580 OA
ATOM      2  C   LIG    1        1.584   3.338   0.005  0.00  0.00    +0.710 C 
ATOM      3  N   LIG    1        2.849   3.805  -0.005  0.00  0.00    -0.740 N 
ATOM      4  H   LIG    1        3.595   3.184  -0.015  0.00  0.00    +0.400 HD
ATOM      5  N   LIG    1        1.356   2.010  -0.000  0.00  0.00    -0.740 N 
ATOM      6  H   LIG    1        2.102   1.390  -0.011  0.00  0.00    +0.400 HD
ENDROOT
BRANCH   3   7
ATOM      7  C   LIG    1        3.097   5.248   0.001  0.00  0.00    +0.340 C 
BRANCH   7   8
ATOM      8  C   LIG    1        4.605   5.507  -0.012  0.00  0.00    +0.170 C 
ATOM      9  C   LIG    1        4.870   7.015   0.119  0.00  0.00    +0.100 C 
ATOM     10  S   LIG    1        6.667   7.231   0.303  0.00  0.00    -0.100 S 
ATOM     11  C   LIG    1        7.293   6.134  -0.930  0.00  0.00    -0.160 A 
ATOM     12  C   LIG    1        8.628   6.233  -1.302  0.00  0.00    +0.070 A 
ATOM     13  C   LIG    1        9.150   5.384  -2.258  0.00  0.00    +0.000 A 
ATOM     14  C   LIG    1        8.339   4.431  -2.845  0.00  0.00    +0.050 A 
ATOM     15  C   LIG    1        7.011   4.329  -2.482  0.00  0.00    +0.000 A 
ATOM     16  C   LIG    1        6.471   5.183  -1.523  0.00  0.00    +0.130 A 
ATOM     17  O   LIG    1        5.155   5.047  -1.238  0.00  0.00    -0.310 OA
ENDBRANCH   7   8
ENDBRANCH   3   7
BRANCH   5  18
ATOM     18  C   LIG    1       -0.018   1.503   0.010  0.00  0.00    +0.450 C 
BRANCH  18  19
ATOM     19  C   LIG    1        0.002  -0.004   0.002  0.00  0.00    +0.180 A 
ATOM     20  N   LIG    1       -0.003  -0.771  -1.060  0.00  0.00    -0.230 NA
ATOM     21  N   LIG    1        0.021  -2.011  -0.713  0.00  0.00    -0.250 NA
ATOM     22  C   LIG    1        0.035  -2.095   0.607  0.00  0.00    +0.140 A 
ATOM     23  C   LIG    1        0.058  -3.167   1.517  0.00  0.00    +0.170 A 
ATOM     24  C   LIG    1        0.069  -2.901   2.852  0.00  0.00    +0.010 A 
ATOM     25  C   LIG    1        0.055  -1.575   3.306  0.00  0.00    +0.360 A 
ATOM     26  N   LIG    1        0.034  -0.576   2.465  0.00  0.00    -0.250 NA
ATOM     27  N   LIG    1        0.023  -0.807   1.088  0.00  0.00    -0.290 N 
ENDBRANCH  18  19
ENDBRANCH   5  18
TORSDOF 4
