REMARK  Name = ZINCvU00000008k9.0
REMARK                            x       y       z     vdW  Elec       q    Type
REMARK                         _______ _______ _______ _____ _____    ______ ____
ROOT
ATOM      1  C   LIG    1       -3.271  -0.801  -1.417  0.00  0.00    +0.510 C 
ATOM      2  N   LIG    1       -2.263  -0.098  -0.864  0.00  0.00    -0.730 N 
ATOM      3  H   LIG    1       -2.177   0.851  -1.045  0.00  0.00    +0.400 HD
ATOM      4  O   LIG    1       -3.379  -1.988  -1.191  0.00  0.00    -0.520 OA
ENDROOT
BRANCH   1   5
ATOM      5  C   LIG    1       -4.265  -0.112  -2.317  0.00  0.00    +0.140 C 
BRANCH   5  11
ATOM      6  C   LIG    1       -8.323  -3.053  -2.524  0.00  0.00    -0.090 A 
ATOM      7  C   LIG    1       -7.126  -2.472  -2.932  0.00  0.00    +0.100 A 
ATOM      8  N   LIG    1       -6.339  -2.611  -4.052  0.00  0.00    -0.590 N 
ATOM      9  H   LIG    1       -6.531  -3.200  -4.799  0.00  0.00    +0.410 HD
ATOM     10  C   LIG    1       -5.245  -1.794  -3.957  0.00  0.00    +0.240 A 
ATOM     11  C   LIG    1       -5.282  -1.113  -2.801  0.00  0.00    -0.160 A 
ATOM     12  C   LIG    1       -6.496  -1.532  -2.096  0.00  0.00    -0.090 A 
ATOM     13  C   LIG    1       -7.073  -1.192  -0.871  0.00  0.00    +0.050 A 
ATOM     14  C   LIG    1       -8.247  -1.778  -0.488  0.00  0.00    -0.020 A 
ATOM     15  C   LIG    1       -8.871  -2.708  -1.307  0.00  0.00    +0.020 A 
BRANCH   6  17
ATOM     16  C   LIG    1       -8.418  -5.453  -3.140  0.00  0.00    +0.020 C 
ATOM     17  C   LIG    1       -9.009  -4.066  -3.402  0.00  0.00    +0.060 C 
ENDBRANCH   6  17
ENDBRANCH   5  11
ENDBRANCH   1   5
BRANCH   2  18
ATOM     18  C   LIG    1       -1.297  -0.768   0.011  0.00  0.00    +0.340 C 
BRANCH  18  19
ATOM     19  C   LIG    1        0.002  -0.004   0.002  0.00  0.00    -0.100 A 
ATOM     20  C   LIG    1       -0.017   1.383   0.010  0.00  0.00    +0.040 A 
ATOM     21  C   LIG    1        1.162   2.098   0.002  0.00  0.00    +0.030 A 
ATOM     22  C   LIG    1        2.375   1.423  -0.013  0.00  0.00    +0.050 A 
ATOM     23  N   LIG    1        3.697   1.822  -0.024  0.00  0.00    -0.600 N 
ATOM     24  H   LIG    1        4.022   2.736  -0.021  0.00  0.00    +0.430 HD
ATOM     25  C   LIG    1        4.459   0.695  -0.037  0.00  0.00    +0.490 A 
ATOM     26  N   LIG    1        3.698  -0.360  -0.035  0.00  0.00    -0.490 NA
ATOM     27  C   LIG    1        2.394   0.018  -0.021  0.00  0.00    +0.050 A 
ATOM     28  C   LIG    1        1.187  -0.685  -0.013  0.00  0.00    +0.080 A 
ENDBRANCH  18  19
BRANCH  18  29
ATOM     29  C   LIG    1       -1.841  -0.817   1.415  0.00  0.00    -0.090 A 
ATOM     30  C   LIG    1       -2.513   0.274   1.935  0.00  0.00    +0.020 A 
ATOM     31  C   LIG    1       -3.015   0.227   3.222  0.00  0.00    +0.000 A 
ATOM     32  C   LIG    1       -2.839  -0.907   3.992  0.00  0.00    +0.000 A 
ATOM     33  C   LIG    1       -2.163  -1.996   3.474  0.00  0.00    +0.000 A 
ATOM     34  C   LIG    1       -1.664  -1.951   2.186  0.00  0.00    +0.020 A 
ENDBRANCH  18  29
ENDBRANCH   2  18
TORSDOF 6
