REMARK  Name = ZINCvU00000008k9.1
REMARK                            x       y       z     vdW  Elec       q    Type
REMARK                         _______ _______ _______ _____ _____    ______ ____
ROOT
ATOM      1  C   LIG    1       -0.742   1.585  -1.213  0.00  0.00    +0.520 C 
ATOM      2  N   LIG    1       -0.288   1.272  -2.443  0.00  0.00    -0.730 N 
ATOM      3  H   LIG    1        0.507   0.726  -2.543  0.00  0.00    +0.400 HD
ATOM      4  O   LIG    1       -1.736   2.268  -1.088  0.00  0.00    -0.520 OA
ENDROOT
BRANCH   1   5
ATOM      5  C   LIG    1       -0.013   1.086   0.008  0.00  0.00    +0.140 C 
BRANCH   5  11
ATOM      6  C   LIG    1       -3.228   1.385   3.846  0.00  0.00    -0.090 A 
ATOM      7  C   LIG    1       -2.171   1.743   3.016  0.00  0.00    +0.100 A 
ATOM      8  N   LIG    1       -1.277   2.791   3.017  0.00  0.00    -0.590 N 
ATOM      9  H   LIG    1       -1.257   3.506   3.672  0.00  0.00    +0.410 HD
ATOM     10  C   LIG    1       -0.420   2.672   1.957  0.00  0.00    +0.240 A 
ATOM     11  C   LIG    1       -0.718   1.572   1.248  0.00  0.00    -0.160 A 
ATOM     12  C   LIG    1       -1.863   0.937   1.904  0.00  0.00    -0.090 A 
ATOM     13  C   LIG    1       -2.618  -0.208   1.645  0.00  0.00    +0.050 A 
ATOM     14  C   LIG    1       -3.655  -0.539   2.471  0.00  0.00    -0.020 A 
ATOM     15  C   LIG    1       -3.964   0.255   3.567  0.00  0.00    +0.020 A 
BRANCH   6  17
ATOM     16  C   LIG    1       -4.500   3.377   4.598  0.00  0.00    +0.020 C 
ATOM     17  C   LIG    1       -3.576   2.239   5.038  0.00  0.00    +0.060 C 
ENDBRANCH   6  17
ENDBRANCH   5  11
ENDBRANCH   1   5
BRANCH   2  18
ATOM     18  C   LIG    1       -0.997   1.758  -3.630  0.00  0.00    +0.340 C 
BRANCH  18  19
ATOM     19  C   LIG    1       -0.041   1.828  -4.792  0.00  0.00    -0.070 A 
ATOM     20  C   LIG    1        0.898   0.822  -4.974  0.00  0.00    +0.010 A 
ATOM     21  C   LIG    1        1.774   0.867  -6.021  0.00  0.00    +0.070 A 
ATOM     22  C   LIG    1        1.728   1.935  -6.922  0.00  0.00    +0.050 A 
ATOM     23  N   LIG    1        2.443   2.256  -8.031  0.00  0.00    -0.500 NA
ATOM     24  C   LIG    1        2.003   3.376  -8.525  0.00  0.00    +0.490 A 
ATOM     25  N   LIG    1        0.977   3.850  -7.769  0.00  0.00    -0.600 N 
ATOM     26  H   LIG    1        0.478   4.668  -7.924  0.00  0.00    +0.430 HD
ATOM     27  C   LIG    1        0.778   2.953  -6.738  0.00  0.00    +0.050 A 
ATOM     28  C   LIG    1       -0.108   2.888  -5.672  0.00  0.00    +0.040 A 
ENDBRANCH  18  19
BRANCH  18  29
ATOM     29  C   LIG    1       -2.124   0.814  -3.963  0.00  0.00    -0.090 A 
ATOM     30  C   LIG    1       -1.938  -0.551  -3.854  0.00  0.00    +0.020 A 
ATOM     31  C   LIG    1       -2.973  -1.416  -4.155  0.00  0.00    +0.000 A 
ATOM     32  C   LIG    1       -4.191  -0.917  -4.574  0.00  0.00    +0.000 A 
ATOM     33  C   LIG    1       -4.376   0.449  -4.688  0.00  0.00    +0.000 A 
ATOM     34  C   LIG    1       -3.343   1.314  -4.383  0.00  0.00    +0.020 A 
ENDBRANCH  18  29
ENDBRANCH   2  18
TORSDOF 6
