REMARK  Name = ZINCAx0000000dkR.0
REMARK                            x       y       z     vdW  Elec       q    Type
REMARK                         _______ _______ _______ _____ _____    ______ ____
ROOT
ATOM      1  C   LIG    1       -0.754   1.593  -1.232  0.00  0.00    +0.240 C 
ENDROOT
BRANCH   1   9
ATOM      2  C   LIG    1        0.465  -4.112  -2.477  0.00  0.00    +0.010 A 
ATOM      3  N   LIG    1       -0.580  -4.425  -1.729  0.00  0.00    -0.220 NA
ATOM      4  N   LIG    1       -1.347  -3.400  -1.587  0.00  0.00    -0.360 N 
ATOM      5  H   LIG    1       -2.173  -3.389  -1.078  0.00  0.00    +0.450 HD
ATOM      6  C   LIG    1       -0.836  -2.349  -2.248  0.00  0.00    -0.010 A 
ATOM      7  C   LIG    1       -1.381  -0.951  -2.371  0.00  0.00    +0.390 C 
ATOM      8  N   LIG    1       -0.321  -0.116  -2.967  0.00  0.00    -0.600 N 
ATOM      9  C   LIG    1       -0.047   1.107  -2.471  0.00  0.00    +0.520 C 
ATOM     10  O   LIG    1        0.768   1.816  -3.023  0.00  0.00    -0.520 OA
ATOM     11  C   LIG    1        0.434  -0.651  -4.110  0.00  0.00    +0.300 C 
ATOM     12  C   LIG    1        1.222  -1.889  -3.659  0.00  0.00    +0.130 C 
ATOM     13  C   LIG    1        0.320  -2.757  -2.826  0.00  0.00    -0.120 A 
BRANCH   2  14
ATOM     14  C   LIG    1        1.569  -5.010  -2.870  0.00  0.00    +0.550 C 
ATOM     15  O   LIG    1        2.473  -4.592  -3.565  0.00  0.00    -0.490 OA
BRANCH  14  17
ATOM     16  C   LIG    1        2.689  -7.117  -2.881  0.00  0.00    +0.290 C 
ATOM     17  O   LIG    1        1.573  -6.292  -2.457  0.00  0.00    -0.340 OA
ENDBRANCH  14  17
ENDBRANCH   2  14
ENDBRANCH   1   9
BRANCH   1  18
ATOM     18  N   LIG    1       -0.770   3.058  -1.223  0.00  0.00    -0.710 N 
ATOM     19  H   LIG    1       -0.092   3.554  -1.707  0.00  0.00    +0.410 HD
ATOM     20  C   LIG    1       -1.729   3.717  -0.542  0.00  0.00    +0.560 C 
ATOM     21  O   LIG    1       -2.579   3.095   0.065  0.00  0.00    -0.510 OA
BRANCH  20  22
ATOM     22  C   LIG    1       -1.746   5.194  -0.533  0.00  0.00    -0.150 A 
ATOM     23  C   LIG    1       -0.767   5.910  -1.224  0.00  0.00    +0.080 A 
ATOM     24  C   LIG    1       -0.790   7.288  -1.216  0.00  0.00    -0.020 A 
ATOM     25  C   LIG    1       -1.777   7.963  -0.515  0.00  0.00    +0.130 A 
ATOM     26  C   LIG    1       -2.749   7.257   0.178  0.00  0.00    -0.020 A 
ATOM     27  F   LIG    1       -1.792   9.314  -0.506  0.00  0.00    -0.130 F 
ATOM     28  C   LIG    1       -2.738   5.879   0.172  0.00  0.00    +0.120 A 
ENDBRANCH  20  22
ENDBRANCH   1  18
BRANCH   1  29
ATOM     29  C   LIG    1       -0.017   1.084   0.008  0.00  0.00    +0.110 C 
BRANCH  29  30
ATOM     30  C   LIG    1       -0.800   1.449   1.243  0.00  0.00    -0.160 A 
ATOM     31  C   LIG    1       -0.614   2.532   2.014  0.00  0.00    +0.230 A 
ATOM     32  N   LIG    1       -1.513   2.529   3.046  0.00  0.00    -0.590 N 
ATOM     33  H   LIG    1       -1.573   3.209   3.735  0.00  0.00    +0.410 HD
ATOM     34  C   LIG    1       -2.319   1.416   2.962  0.00  0.00    +0.110 A 
ATOM     35  C   LIG    1       -3.371   0.934   3.734  0.00  0.00    -0.010 A 
ATOM     36  C   LIG    1       -3.996  -0.242   3.382  0.00  0.00    +0.020 A 
ATOM     37  C   LIG    1       -3.586  -0.954   2.263  0.00  0.00    -0.020 A 
ATOM     38  C   LIG    1       -2.554  -0.499   1.490  0.00  0.00    +0.030 A 
ATOM     39  C   LIG    1       -1.911   0.694   1.825  0.00  0.00    -0.080 A 
ENDBRANCH  29  30
ENDBRANCH   1  29
TORSDOF 7
