REMARK  Name = ZINCtV00000tRQHQ.0
REMARK                            x       y       z     vdW  Elec       q    Type
REMARK                         _______ _______ _______ _____ _____    ______ ____
ROOT
ATOM      1  O   LIG    1       -1.383   1.556   2.364  0.00  0.00    -0.510 OA
ATOM      2  C   LIG    1       -1.967   2.095   1.448  0.00  0.00    +0.520 C 
ATOM      3  N   LIG    1       -2.918   3.015   1.703  0.00  0.00    -0.570 N 
ENDROOT
BRANCH   3   4
ATOM      4  C   LIG    1       -3.668   3.556   0.653  0.00  0.00    +0.150 A 
ATOM      5  C   LIG    1       -3.058   4.373  -0.289  0.00  0.00    +0.010 A 
ATOM      6  C   LIG    1       -3.800   4.901  -1.328  0.00  0.00    +0.050 A 
ATOM      7  C   LIG    1       -5.151   4.626  -1.424  0.00  0.00    +0.030 A 
ATOM      8  C   LIG    1       -5.764   3.817  -0.484  0.00  0.00    -0.020 A 
ATOM      9 CL   LIG    1       -7.462   3.474  -0.609  0.00  0.00    -0.060 Cl
ATOM     10  C   LIG    1       -5.026   3.281   0.555  0.00  0.00    +0.030 A 
ENDBRANCH   3   4
BRANCH   3  11
ATOM     11  C   LIG    1       -3.166   3.449   3.080  0.00  0.00    +0.280 C 
BRANCH  11  12
ATOM     12  C   LIG    1       -2.277   4.651   3.404  0.00  0.00    +0.010 C 
BRANCH  12  13
ATOM     13  C   LIG    1       -2.537   5.104   4.843  0.00  0.00    -0.010 C 
ATOM     14  C   LIG    1       -3.972   5.619   4.964  0.00  0.00    +0.000 C 
ATOM     15  C   LIG    1       -4.232   6.072   6.402  0.00  0.00    +0.000 C 
ATOM     16  C   LIG    1       -3.256   7.192   6.768  0.00  0.00    +0.000 C 
ATOM     17  C   LIG    1       -1.820   6.678   6.646  0.00  0.00    +0.000 C 
ATOM     18  C   LIG    1       -1.561   6.225   5.208  0.00  0.00    +0.010 C 
ENDBRANCH  12  13
ENDBRANCH  11  12
ENDBRANCH   3  11
BRANCH   2  19
ATOM     19  C   LIG    1       -1.630   1.735   0.024  0.00  0.00    +0.120 C 
BRANCH  19  20
ATOM     20  C   LIG    1       -0.640   0.599   0.014  0.00  0.00    -0.110 A 
ATOM     21  C   LIG    1        0.696   0.842  -0.084  0.00  0.00    +0.240 A 
ATOM     22  N   LIG    1        1.587  -0.139  -0.101  0.00  0.00    -0.490 NA
ATOM     23  C   LIG    1        1.252  -1.406  -0.025  0.00  0.00    +0.320 A 
ATOM     24  C   LIG    1       -0.102  -1.766   0.080  0.00  0.00    -0.110 A 
ATOM     25  C   LIG    1       -0.512  -3.105   0.163  0.00  0.00    +0.060 A 
ATOM     26  C   LIG    1       -1.839  -3.395   0.262  0.00  0.00    +0.010 A 
ATOM     27  C   LIG    1       -2.797  -2.383   0.281  0.00  0.00    +0.040 A 
ATOM     28  C   LIG    1       -2.436  -1.072   0.202  0.00  0.00    +0.000 A 
ATOM     29  C   LIG    1       -1.079  -0.736   0.099  0.00  0.00    -0.010 A 
ENDBRANCH  19  20
ENDBRANCH   2  19
TORSDOF 6
