REMARK  Name = ZINCqH00000518Rq.0
REMARK                            x       y       z     vdW  Elec       q    Type
REMARK                         _______ _______ _______ _____ _____    ______ ____
ROOT
ATOM      1  O   LIG    1        3.288   1.419   0.139  0.00  0.00    -0.510 OA
ATOM      2  C   LIG    1        3.503   2.603  -0.016  0.00  0.00    +0.510 C 
ATOM      3  N   LIG    1        2.476   3.457  -0.195  0.00  0.00    -0.670 N 
ATOM      4  H   LIG    1        2.650   4.390  -0.395  0.00  0.00    +0.420 HD
ENDROOT
BRANCH   3   5
ATOM      5  C   LIG    1        1.159   2.997  -0.093  0.00  0.00    +0.180 A 
ATOM      6  C   LIG    1        0.845   1.979   0.798  0.00  0.00    -0.010 A 
ATOM      7  C   LIG    1       -0.458   1.524   0.899  0.00  0.00    +0.130 A 
ATOM      8  C   LIG    1       -1.450   2.078   0.109  0.00  0.00    -0.070 A 
ATOM      9  C   LIG    1       -1.141   3.100  -0.780  0.00  0.00    +0.130 A 
ATOM     10  F   LIG    1       -0.761   0.534   1.767  0.00  0.00    -0.130 F 
ATOM     11  C   LIG    1        0.165   3.558  -0.883  0.00  0.00    +0.010 A 
BRANCH   9  12
ATOM     12  N   LIG    1       -2.144   3.663  -1.573  0.00  0.00    -0.480 N 
ATOM     13  C   LIG    1       -2.715   2.655  -2.503  0.00  0.00    +0.180 C 
ATOM     14  C   LIG    1       -4.087   3.264  -2.887  0.00  0.00    +0.040 C 
ATOM     15  C   LIG    1       -4.559   3.913  -1.565  0.00  0.00    +0.020 C 
ATOM     16  C   LIG    1       -3.275   4.133  -0.744  0.00  0.00    +0.170 C 
ENDBRANCH   9  12
ENDBRANCH   3   5
BRANCH   2  17
ATOM     17  C   LIG    1        4.920   3.119  -0.009  0.00  0.00    +0.070 C 
BRANCH  17  18
ATOM     18  C   LIG    1        5.886   1.953   0.211  0.00  0.00    +0.120 C 
BRANCH  18  19
ATOM     19  C   LIG    1        7.302   2.469   0.218  0.00  0.00    -0.080 A 
ATOM     20  C   LIG    1        8.018   2.531  -0.962  0.00  0.00    +0.040 A 
ATOM     21  C   LIG    1        9.316   3.009  -0.962  0.00  0.00    +0.040 A 
ATOM     22  C   LIG    1        9.905   3.415   0.224  0.00  0.00    +0.030 A 
ATOM     23  O   LIG    1       11.148   3.910   0.495  0.00  0.00    -0.310 OA
ATOM     24  C   LIG    1       11.321   3.760   1.916  0.00  0.00    +0.430 C 
ATOM     25  O   LIG    1        9.976   3.799   2.430  0.00  0.00    -0.310 OA
ATOM     26  C   LIG    1        9.184   3.346   1.414  0.00  0.00    +0.030 A 
ATOM     27  C   LIG    1        7.883   2.873   1.405  0.00  0.00    +0.040 A 
ENDBRANCH  18  19
ENDBRANCH  17  18
ENDBRANCH   2  17
TORSDOF 5
