REMARK  Name = ZINCAx0000000a3i.0
REMARK                            x       y       z     vdW  Elec       q    Type
REMARK                         _______ _______ _______ _____ _____    ______ ____
ROOT
ATOM      1  C   LIG    1       -4.468   1.740   4.873  0.00  0.00    +0.400 A 
ATOM      2  N   LIG    1       -3.660   2.706   4.596  0.00  0.00    -0.550 NA
ATOM      3  C   LIG    1       -2.797   2.533   3.575  0.00  0.00    +0.190 A 
ATOM      4  C   LIG    1       -1.825   3.427   3.080  0.00  0.00    +0.040 A 
ATOM      5  C   LIG    1       -1.024   3.068   2.024  0.00  0.00    +0.140 A 
ATOM      6  C   LIG    1       -1.166   1.828   1.420  0.00  0.00    -0.690 A 
ATOM      7  C   LIG    1       -2.109   0.939   1.887  0.00  0.00    +0.210 A 
ATOM      8  C   LIG    1       -2.926   1.284   2.961  0.00  0.00    -0.220 A 
ATOM      9  S   LIG    1       -4.204   0.389   3.780  0.00  0.00    +0.060 S 
ENDROOT
BRANCH   6  10
ATOM     10  S   LIG    1       -0.135   1.387   0.061  0.00  0.00    +2.700 S 
ATOM     11  O   LIG    1        1.032   2.191   0.165  0.00  0.00    -0.950 OA
ATOM     12  O   LIG    1       -0.100  -0.033   0.029  0.00  0.00    -0.950 OA
BRANCH  10  13
ATOM     13  N   LIG    1       -0.912   1.867  -1.320  0.00  0.00    -1.120 NA
ATOM     14  H   LIG    1       -1.215   1.205  -1.961  0.00  0.00    +0.420 HD
BRANCH  13  15
ATOM     15  C   LIG    1       -1.142   3.291  -1.574  0.00  0.00    +0.300 C 
BRANCH  15  16
ATOM     16  C   LIG    1       -1.514   3.494  -3.044  0.00  0.00    -0.090 C 
ATOM     17  C   LIG    1       -1.705   4.996  -3.339  0.00  0.00    +0.040 C 
ATOM     18  C   LIG    1       -2.886   5.039  -4.340  0.00  0.00    +0.010 C 
ATOM     19  C   LIG    1       -3.822   3.923  -3.813  0.00  0.00    +0.020 C 
ATOM     20  C   LIG    1       -2.860   2.812  -3.345  0.00  0.00    +0.040 C 
BRANCH  16  21
ATOM     21  C   LIG    1       -0.437   2.925  -3.932  0.00  0.00    +0.530 C 
ATOM     22  O   LIG    1       -0.721   2.107  -4.782  0.00  0.00    -0.540 OA
ATOM     23  N   LIG    1        0.841   3.326  -3.782  0.00  0.00    -0.850 N 
ATOM     24  H   LIG    1        1.544   2.908  -4.303  0.00  0.00    +0.400 HD
ATOM     25  H   LIG    1        1.057   4.032  -3.153  0.00  0.00    +0.400 HD
ENDBRANCH  16  21
ENDBRANCH  15  16
ENDBRANCH  13  15
ENDBRANCH  10  13
ENDBRANCH   6  10
BRANCH   1  26
ATOM     26  N   LIG    1       -5.406   1.763   5.885  0.00  0.00    -0.680 N 
ATOM     27  H   LIG    1       -5.980   0.995   6.032  0.00  0.00    +0.420 HD
BRANCH  26  32
ATOM     28  N   LIG    1       -6.282   3.735   8.933  0.00  0.00    -0.470 N 
ATOM     29  C   LIG    1       -7.203   4.704   8.326  0.00  0.00    +0.180 C 
ATOM     30  C   LIG    1       -6.641   5.173   6.982  0.00  0.00    +0.050 C 
ATOM     31  C   LIG    1       -6.462   3.964   6.060  0.00  0.00    +0.020 C 
ATOM     32  C   LIG    1       -5.537   2.948   6.736  0.00  0.00    +0.270 C 
ATOM     33  C   LIG    1       -6.131   2.544   8.087  0.00  0.00    +0.220 C 
BRANCH  28  38
ATOM     34  C   LIG    1       -7.702   1.064  12.900  0.00  0.00    +0.160 C 
ATOM     35  C   LIG    1       -7.335   2.220  12.005  0.00  0.00    +0.090 A 
ATOM     36  N   LIG    1       -7.328   3.482  12.348  0.00  0.00    -0.290 NA
ATOM     37  N   LIG    1       -6.925   4.239  11.240  0.00  0.00    -0.370 N 
ATOM     38  C   LIG    1       -6.697   3.387  10.215  0.00  0.00    +0.270 A 
ATOM     39  C   LIG    1       -6.779   5.696  11.199  0.00  0.00    +0.350 C 
ATOM     40  C   LIG    1       -6.942   2.126  10.667  0.00  0.00    -0.160 A 
ENDBRANCH  28  38
ENDBRANCH  26  32
ENDBRANCH   1  26
TORSDOF 8
