REMARK  Name = ZINCvU0000000An0.0
REMARK                            x       y       z     vdW  Elec       q    Type
REMARK                         _______ _______ _______ _____ _____    ______ ____
ROOT
ATOM      1  N   LIG    1       -1.726  -4.304   0.369  0.00  0.00    -0.660 N 
ATOM      2  H   LIG    1       -2.526  -4.852   0.345  0.00  0.00    +0.410 HD
ATOM      3  C   LIG    1       -0.517  -4.884   0.510  0.00  0.00    +0.530 C 
ATOM      4  O   LIG    1        0.489  -4.209   0.453  0.00  0.00    -0.510 OA
ENDROOT
BRANCH   1   8
ATOM      5  C   LIG    1       -2.092  -0.206   0.082  0.00  0.00    +0.310 A 
ATOM      6  C   LIG    1       -0.981  -0.810  -0.492  0.00  0.00    -0.010 A 
ATOM      7  C   LIG    1       -0.841  -2.184  -0.406  0.00  0.00    +0.120 A 
ATOM      8  C   LIG    1       -1.826  -2.911   0.258  0.00  0.00    +0.060 A 
ATOM      9  C   LIG    1       -2.907  -2.238   0.807  0.00  0.00    +0.280 A 
ATOM     10  N   LIG    1       -3.005  -0.927   0.711  0.00  0.00    -0.500 NA
BRANCH   5  11
ATOM     11  O   LIG    1       -2.239   1.142   0.003  0.00  0.00    -0.250 OA
BRANCH  11  17
ATOM     12  C   LIG    1       -4.141   2.799   4.181  0.00  0.00    +0.090 C 
ATOM     13  C   LIG    1       -4.244   2.533   2.701  0.00  0.00    -0.080 A 
ATOM     14  C   LIG    1       -5.400   2.862   2.019  0.00  0.00    +0.020 A 
ATOM     15  C   LIG    1       -5.497   2.620   0.661  0.00  0.00    +0.020 A 
ATOM     16  C   LIG    1       -4.439   2.047  -0.017  0.00  0.00    +0.010 A 
ATOM     17  C   LIG    1       -3.279   1.710   0.667  0.00  0.00    +0.100 A 
ATOM     18  C   LIG    1       -3.182   1.960   2.028  0.00  0.00    -0.080 A 
ATOM     19  C   LIG    1       -1.922   1.601   2.773  0.00  0.00    +0.100 C 
ENDBRANCH  11  17
ENDBRANCH   5  11
ENDBRANCH   1   8
BRANCH   3  20
ATOM     20  C   LIG    1       -0.416  -6.370   0.737  0.00  0.00    -0.030 C 
ATOM     21  C   LIG    1       -1.345  -6.777   1.885  0.00  0.00    +0.030 C 
ATOM     22  C   LIG    1       -0.881  -6.089   3.173  0.00  0.00    +0.210 C 
ATOM     23  O   LIG    1        0.476  -6.447   3.442  0.00  0.00    -0.380 OA
ATOM     24  C   LIG    1        1.396  -6.049   2.423  0.00  0.00    +0.220 C 
ATOM     25  C   LIG    1        1.025  -6.735   1.106  0.00  0.00    +0.040 C 
BRANCH  20  26
ATOM     26  C   LIG    1       -0.815  -7.101  -0.519  0.00  0.00    -0.050 A 
ATOM     27  C   LIG    1       -2.070  -6.903  -1.063  0.00  0.00    -0.010 A 
ATOM     28  C   LIG    1       -2.438  -7.572  -2.216  0.00  0.00    +0.060 A 
ATOM     29  C   LIG    1       -1.551  -8.440  -2.825  0.00  0.00    -0.010 A 
ATOM     30  C   LIG    1       -0.294  -8.639  -2.280  0.00  0.00    +0.110 A 
ATOM     31  F   LIG    1        0.574  -9.486  -2.874  0.00  0.00    -0.130 F 
ATOM     32  C   LIG    1        0.075  -7.964  -1.129  0.00  0.00    +0.000 A 
ENDBRANCH  20  26
ENDBRANCH   3  20
TORSDOF 5
