REMARK  Name = ZINCrD000000CTak.0
REMARK                            x       y       z     vdW  Elec       q    Type
REMARK                         _______ _______ _______ _____ _____    ______ ____
ROOT
ATOM      1  C   LIG    1       -2.506   4.666   5.916  0.00  0.00    +0.150 A 
ATOM      2  C   LIG    1       -1.285   5.281   6.164  0.00  0.00    +0.060 A 
ATOM      3  C   LIG    1       -0.350   5.404   5.153  0.00  0.00    +0.030 A 
ATOM      4  C   LIG    1       -0.621   4.911   3.893  0.00  0.00    +0.090 A 
ATOM      5  C   LIG    1       -1.847   4.296   3.632  0.00  0.00    -0.030 A 
ATOM      6  C   LIG    1       -2.790   4.173   4.652  0.00  0.00    +0.070 A 
ENDROOT
BRANCH   1  14
ATOM      7  O   LIG    1       -4.319   6.490   6.393  0.00  0.00    -0.580 OA
ATOM      8  C   LIG    1       -4.346   5.524   7.131  0.00  0.00    +0.710 C 
ATOM      9  N   LIG    1       -5.271   5.481   8.101  0.00  0.00    -0.730 N 
ATOM     10  H   LIG    1       -5.892   6.220   8.199  0.00  0.00    +0.420 HD
ATOM     11  C   LIG    1       -5.364   4.341   9.014  0.00  0.00    +0.270 C 
ATOM     12  C   LIG    1       -3.976   3.714   9.178  0.00  0.00    +0.030 C 
ATOM     13  C   LIG    1       -3.441   3.348   7.787  0.00  0.00    +0.270 C 
ATOM     14  N   LIG    1       -3.449   4.545   6.943  0.00  0.00    -0.590 N 
ENDBRANCH   1  14
BRANCH   5  15
ATOM     15  C   LIG    1       -2.142   3.773   2.282  0.00  0.00    +0.240 A 
ATOM     16  N   LIG    1       -1.347   3.814   1.228  0.00  0.00    -0.460 NA
ATOM     17  C   LIG    1       -2.033   3.226   0.236  0.00  0.00    +0.170 A 
ATOM     18  N   LIG    1       -3.182   2.855   0.718  0.00  0.00    -0.360 NA
ATOM     19  O   LIG    1       -3.268   3.157   1.889  0.00  0.00    +0.100 OA
BRANCH  17  20
ATOM     20  C   LIG    1       -1.556   3.027  -1.180  0.00  0.00    +0.360 C 
BRANCH  20  21
ATOM     21  O   LIG    1       -1.934   4.154  -1.973  0.00  0.00    -0.300 OA
BRANCH  21  22
ATOM     22  C   LIG    1       -1.577   4.133  -3.284  0.00  0.00    +0.160 A 
ATOM     23  C   LIG    1       -0.872   3.053  -3.795  0.00  0.00    -0.080 A 
ATOM     24  C   LIG    1       -0.515   3.031  -5.130  0.00  0.00    +0.090 A 
ATOM     25  C   LIG    1       -0.849   4.089  -5.954  0.00  0.00    -0.050 A 
ATOM     26  C   LIG    1       -1.548   5.171  -5.446  0.00  0.00    +0.140 A 
ATOM     27  F   LIG    1       -1.873   6.204  -6.254  0.00  0.00    -0.130 F 
ATOM     28  C   LIG    1       -1.912   5.195  -4.112  0.00  0.00    -0.050 A 
ENDBRANCH  21  22
ENDBRANCH  20  21
ENDBRANCH  17  20
ENDBRANCH   5  15
TORSDOF 5
