REMARK  Name = ZINCah0000002C53.0
REMARK                            x       y       z     vdW  Elec       q    Type
REMARK                         _______ _______ _______ _____ _____    ______ ____
ROOT
ATOM      1  C   LIG    1        1.694   1.856  -0.004  0.00  0.00    +0.340 A 
ATOM      2  N   LIG    1        2.152   0.622  -0.015  0.00  0.00    -0.560 NA
ATOM      3  C   LIG    1        1.259  -0.341  -0.012  0.00  0.00    +0.230 A 
ATOM      4  N   LIG    1        0.002  -0.004   0.002  0.00  0.00    -0.450 NA
ATOM      5  S   LIG    1       -0.021   1.695   0.011  0.00  0.00    +0.260 S 
ENDROOT
BRANCH   3   6
ATOM      6  C   LIG    1        1.676  -1.789  -0.024  0.00  0.00    +0.570 C 
ATOM      7  F   LIG    1        2.146  -2.149   1.243  0.00  0.00    -0.160 F 
ATOM      8  F   LIG    1        2.692  -1.973  -0.968  0.00  0.00    -0.150 F 
ATOM      9  F   LIG    1        0.578  -2.588  -0.359  0.00  0.00    -0.150 F 
ENDBRANCH   3   6
BRANCH   1  10
ATOM     10  N   LIG    1        2.430   3.027  -0.005  0.00  0.00    -0.780 N 
ATOM     11  H   LIG    1        3.400   2.991  -0.015  0.00  0.00    +0.420 HD
ATOM     12  H   LIG    1        1.977   3.885   0.004  0.00  0.00    +0.430 HD
ENDBRANCH   1  10
TORSDOF 2
