REMARK  Name = ZINCrH000004quYh.0
REMARK                            x       y       z     vdW  Elec       q    Type
REMARK                         _______ _______ _______ _____ _____    ______ ____
ROOT
ATOM      1  C   LIG    1       -0.433   1.891   0.945  0.00  0.00    +0.530 C 
ATOM      2  N   LIG    1       -0.138   1.398   2.164  0.00  0.00    -0.600 N 
ATOM      3  O   LIG    1        0.206   1.538  -0.023  0.00  0.00    -0.520 OA
ENDROOT
BRANCH   2   4
ATOM      4  C   LIG    1        0.859   0.333   2.301  0.00  0.00    +0.270 C 
ATOM      5  C   LIG    1        2.211   0.800   1.736  0.00  0.00    +0.060 C 
ATOM      6  C   LIG    1        3.132  -0.426   1.578  0.00  0.00    -0.310 C 
ATOM      7  S   LIG    1        2.001  -1.839   1.313  0.00  0.00    +2.390 S 
ATOM      8  O   LIG    1        2.139  -2.309  -0.021  0.00  0.00    -0.930 OA
ATOM      9  O   LIG    1        2.118  -2.746   2.401  0.00  0.00    -0.940 OA
ATOM     10  C   LIG    1        0.433  -0.903   1.468  0.00  0.00    -0.320 C 
ENDBRANCH   2   4
BRANCH   2  11
ATOM     11  C   LIG    1       -0.813   1.927   3.352  0.00  0.00    +0.240 C 
ATOM     12  C   LIG    1       -2.244   1.388   3.407  0.00  0.00    +0.000 C 
ATOM     13  C   LIG    1       -2.950   1.940   4.647  0.00  0.00    +0.020 C 
ATOM     14  C   LIG    1       -2.983   3.468   4.577  0.00  0.00    +0.010 C 
ATOM     15  C   LIG    1       -1.552   4.007   4.522  0.00  0.00    +0.030 C 
ATOM     16  C   LIG    1       -0.847   3.455   3.281  0.00  0.00    -0.010 C 
ENDBRANCH   2  11
BRANCH   1  17
ATOM     17  C   LIG    1       -1.558   2.881   0.785  0.00  0.00    +0.230 C 
BRANCH  17  18
ATOM     18  N   LIG    1       -2.039   2.856  -0.602  0.00  0.00    -0.630 N 
ATOM     19  H   LIG    1       -1.308   3.123  -1.244  0.00  0.00    +0.370 HD
BRANCH  18  24
ATOM     20  C   LIG    1       -6.603   6.165  -1.232  0.00  0.00    +0.100 C 
ATOM     21  C   LIG    1       -5.390   5.287  -1.065  0.00  0.00    -0.070 A 
ATOM     22  C   LIG    1       -5.545   3.951  -0.744  0.00  0.00    +0.020 A 
ATOM     23  C   LIG    1       -4.436   3.140  -0.596  0.00  0.00    -0.050 A 
ATOM     24  C   LIG    1       -3.164   3.672  -0.757  0.00  0.00    +0.090 A 
ATOM     25  C   LIG    1       -3.010   5.015  -1.080  0.00  0.00    -0.070 A 
ATOM     26 CL   LIG    1       -1.422   5.683  -1.290  0.00  0.00    -0.070 Cl
ATOM     27  C   LIG    1       -4.607   1.683  -0.252  0.00  0.00    +0.110 C 
ATOM     28  C   LIG    1       -4.125   5.818  -1.232  0.00  0.00    +0.020 A 
ENDBRANCH  18  24
ENDBRANCH  17  18
ENDBRANCH   1  17
TORSDOF 5
