REMARK  Name = ZINCpk00000e95dl.0
REMARK                            x       y       z     vdW  Elec       q    Type
REMARK                         _______ _______ _______ _____ _____    ______ ____
ROOT
ATOM      1  N   LIG    1       -1.487   3.633   2.373  0.00  0.00    -0.510 NA
ATOM      2  C   LIG    1       -2.894   3.452   1.990  0.00  0.00    +0.200 C 
ATOM      3  C   LIG    1       -3.796   3.941   3.125  0.00  0.00    +0.220 C 
ATOM      4  N   LIG    1       -3.507   5.354   3.403  0.00  0.00    -0.470 N 
ATOM      5  C   LIG    1       -2.100   5.536   3.786  0.00  0.00    +0.230 C 
ATOM      6  C   LIG    1       -1.198   5.047   2.651  0.00  0.00    +0.180 C 
ENDROOT
BRANCH   4   7
ATOM      7  C   LIG    1       -4.354   5.852   4.377  0.00  0.00    +0.410 A 
ATOM      8  C   LIG    1       -5.747   5.785   4.221  0.00  0.00    -0.220 A 
ATOM      9  C   LIG    1       -6.651   5.274   3.192  0.00  0.00    -0.010 A 
ATOM     10  C   LIG    1       -7.901   5.502   3.626  0.00  0.00    +0.230 A 
ATOM     11  N   LIG    1       -7.863   6.118   4.850  0.00  0.00    -0.570 N 
ATOM     12  H   LIG    1       -8.642   6.383   5.364  0.00  0.00    +0.420 HD
ATOM     13  C   LIG    1       -6.566   6.304   5.241  0.00  0.00    +0.330 A 
ATOM     14  N   LIG    1       -5.985   6.839   6.314  0.00  0.00    -0.550 NA
ATOM     15  C   LIG    1       -4.674   6.881   6.417  0.00  0.00    +0.540 A 
ATOM     16  N   LIG    1       -3.869   6.400   5.487  0.00  0.00    -0.580 NA
ENDBRANCH   4   7
BRANCH   1  21
ATOM     17  N   LIG    1        1.864   3.526   1.100  0.00  0.00    -0.600 N 
ATOM     18  C   LIG    1        1.753   4.006  -0.272  0.00  0.00    +0.250 C 
ATOM     19  C   LIG    1        0.421   3.572  -0.884  0.00  0.00    +0.030 C 
ATOM     20  C   LIG    1       -0.713   3.957   0.074  0.00  0.00    +0.000 C 
ATOM     21  C   LIG    1       -0.587   3.105   1.339  0.00  0.00    +0.190 C 
ATOM     22  C   LIG    1        0.827   3.139   1.843  0.00  0.00    +0.520 C 
ATOM     23  O   LIG    1        1.036   2.796   2.987  0.00  0.00    -0.520 OA
BRANCH  17  25
ATOM     24  C   LIG    1        3.243   4.359   2.940  0.00  0.00    +0.030 C 
ATOM     25  C   LIG    1        3.199   3.464   1.700  0.00  0.00    +0.220 C 
ATOM     26  C   LIG    1        3.513   2.021   2.100  0.00  0.00    +0.020 C 
ENDBRANCH  17  25
ENDBRANCH   1  21
TORSDOF 3
