REMARK  Name = ZINCpk00000xI5Ns.0
REMARK                            x       y       z     vdW  Elec       q    Type
REMARK                         _______ _______ _______ _____ _____    ______ ____
ROOT
ATOM      1  C   LIG    1       -3.301  -1.976   3.672  0.00  0.00    +0.120 C 
ATOM      2  C   LIG    1       -3.779  -2.408   2.277  0.00  0.00    +0.310 C 
ATOM      3  N   LIG    1       -4.123  -1.199   1.512  0.00  0.00    -1.000 NA
ATOM      4  C   LIG    1       -5.037  -0.224   2.127  0.00  0.00    +0.310 C 
ATOM      5  C   LIG    1       -4.514   0.119   3.526  0.00  0.00    +0.170 C 
ATOM      6  N   LIG    1       -4.323  -1.121   4.291  0.00  0.00    -0.520 NA
ENDROOT
BRANCH   3   7
ATOM      7  S   LIG    1       -3.503  -0.946  -0.002  0.00  0.00    +2.690 S 
ATOM      8  O   LIG    1       -3.153  -2.226  -0.511  0.00  0.00    -0.950 OA
ATOM      9  O   LIG    1       -4.403  -0.067  -0.662  0.00  0.00    -0.950 OA
BRANCH   7  10
ATOM     10  C   LIG    1       -1.994  -0.058   0.194  0.00  0.00    -0.710 A 
ATOM     11  C   LIG    1       -2.001   1.324   0.199  0.00  0.00    +0.160 A 
ATOM     12  C   LIG    1       -0.817   2.018   0.348  0.00  0.00    -0.030 A 
ATOM     13  C   LIG    1        0.383   1.332   0.500  0.00  0.00    +0.190 A 
ATOM     14  O   LIG    1        1.527   2.050   0.641  0.00  0.00    -0.310 OA
ATOM     15  C   LIG    1        2.678   1.378   1.154  0.00  0.00    +0.240 C 
ATOM     16  C   LIG    1        2.864   0.070   0.373  0.00  0.00    +0.010 C 
ATOM     17  C   LIG    1        1.664  -0.836   0.661  0.00  0.00    +0.090 C 
ATOM     18  C   LIG    1        0.386  -0.052   0.497  0.00  0.00    -0.180 A 
ATOM     19  C   LIG    1       -0.804  -0.744   0.343  0.00  0.00    +0.160 A 
ENDBRANCH   7  10
ENDBRANCH   3   7
BRANCH   1  21
ATOM     20  C   LIG    1       -1.995  -4.092   3.911  0.00  0.00    +0.010 C 
ATOM     21  C   LIG    1       -3.079  -3.216   4.541  0.00  0.00    +0.030 C 
ENDBRANCH   1  21
BRANCH   6  22
ATOM     22  C   LIG    1       -3.987  -0.829   5.691  0.00  0.00    +0.150 C 
BRANCH  22  23
ATOM     23  C   LIG    1       -5.178  -0.147   6.369  0.00  0.00    +0.210 C 
ATOM     24  C   LIG    1       -4.786   0.269   7.788  0.00  0.00    +0.000 C 
BRANCH  23  25
ATOM     25  O   LIG    1       -6.278  -1.057   6.426  0.00  0.00    -0.550 OA
ATOM     26  H   LIG    1       -6.093  -1.867   6.920  0.00  0.00    +0.370 HD
ENDBRANCH  23  25
ENDBRANCH  22  23
ENDBRANCH   6  22
TORSDOF 6
