REMARK  Name = ZINCpe00000cbVDL.1
REMARK                            x       y       z     vdW  Elec       q    Type
REMARK                         _______ _______ _______ _____ _____    ______ ____
ROOT
ATOM      1  O   LIG    1        6.397   6.478  10.599  0.00  0.00    -0.520 OA
ATOM      2  C   LIG    1        5.369   6.731   9.998  0.00  0.00    +0.600 C 
ATOM      3  N   LIG    1        5.117   6.136   8.815  0.00  0.00    -0.610 N 
ATOM      4  C   LIG    1        3.819   6.315   8.150  0.00  0.00    +0.250 C 
ATOM      5  C   LIG    1        3.231   4.936   7.838  0.00  0.00    +0.020 C 
ATOM      6  C   LIG    1        4.245   4.124   7.029  0.00  0.00    +0.010 C 
ATOM      7  C   LIG    1        5.520   3.930   7.854  0.00  0.00    +0.020 C 
ATOM      8  C   LIG    1        6.134   5.298   8.166  0.00  0.00    +0.280 C 
ENDROOT
BRANCH   6   9
ATOM      9  C   LIG    1        3.648   2.758   6.686  0.00  0.00    -0.010 C 
ATOM     10  C   LIG    1        4.564   1.981   5.704  0.00  0.00    +0.040 C 
ATOM     11  C   LIG    1        3.573   1.048   4.976  0.00  0.00    +0.240 C 
ATOM     12  N   LIG    1        2.237   1.649   5.098  0.00  0.00    -0.620 N 
ATOM     13  C   LIG    1        1.094   1.128   4.610  0.00  0.00    +0.540 C 
ATOM     14  O   LIG    1        0.043   1.710   4.775  0.00  0.00    -0.530 OA
ATOM     15  C   LIG    1        2.354   2.912   5.849  0.00  0.00    +0.260 C 
BRANCH  13  16
ATOM     16  C   LIG    1        1.121  -0.178   3.858  0.00  0.00    -0.010 C 
ATOM     17  C   LIG    1        1.120  -1.416   4.770  0.00  0.00    +0.020 C 
ATOM     18  C   LIG    1        0.157  -2.062   3.760  0.00  0.00    +0.170 C 
ATOM     19  C   LIG    1       -0.262  -0.635   3.367  0.00  0.00    +0.070 C 
BRANCH  18  20
ATOM     20  O   LIG    1       -0.890  -2.818   4.370  0.00  0.00    -0.560 OA
ATOM     21  H   LIG    1       -0.632  -3.716   4.620  0.00  0.00    +0.380 HD
ENDBRANCH  18  20
ENDBRANCH  13  16
ENDBRANCH   6   9
BRANCH   2  22
ATOM     22  C   LIG    1        4.405   7.682  10.562  0.00  0.00    -0.090 A 
ATOM     23  C   LIG    1        4.274   8.034  11.876  0.00  0.00    +0.250 A 
ATOM     24  N   LIG    1        3.284   8.923  11.963  0.00  0.00    -0.500 NA
ATOM     25  C   LIG    1        2.787   9.146  10.774  0.00  0.00    +0.440 A 
ATOM     26  N   LIG    1        3.452   8.404   9.870  0.00  0.00    -0.560 N 
ATOM     27  H   LIG    1        3.291   8.379   8.914  0.00  0.00    +0.430 HD
ENDBRANCH   2  22
TORSDOF 4
