REMARK  Name = ZINCpe00000cbVDL.0
REMARK                            x       y       z     vdW  Elec       q    Type
REMARK                         _______ _______ _______ _____ _____    ______ ____
ROOT
ATOM      1  O   LIG    1        4.180  -0.223   0.096  0.00  0.00    -0.550 OA
ATOM      2  C   LIG    1        3.528   0.797  -0.027  0.00  0.00    +0.600 C 
ATOM      3  N   LIG    1        4.152   1.987  -0.128  0.00  0.00    -0.600 N 
ATOM      4  C   LIG    1        3.381   3.238  -0.122  0.00  0.00    +0.280 C 
ATOM      5  C   LIG    1        3.949   4.157   0.970  0.00  0.00    +0.010 C 
ATOM      6  C   LIG    1        5.451   4.345   0.741  0.00  0.00    +0.000 C 
ATOM      7  C   LIG    1        6.156   2.990   0.836  0.00  0.00    +0.020 C 
ATOM      8  C   LIG    1        5.614   2.058  -0.252  0.00  0.00    +0.270 C 
ENDROOT
BRANCH   6   9
ATOM      9  C   LIG    1        6.015   5.289   1.804  0.00  0.00    +0.000 C 
ATOM     10  C   LIG    1        5.468   6.729   1.616  0.00  0.00    +0.030 C 
ATOM     11  C   LIG    1        6.576   7.604   2.238  0.00  0.00    +0.240 C 
ATOM     12  N   LIG    1        7.815   6.813   2.225  0.00  0.00    -0.620 N 
ATOM     13  C   LIG    1        9.010   7.217   2.701  0.00  0.00    +0.540 C 
ATOM     14  O   LIG    1        9.969   6.479   2.637  0.00  0.00    -0.530 OA
ATOM     15  C   LIG    1        7.535   5.506   1.604  0.00  0.00    +0.260 C 
BRANCH  13  16
ATOM     16  C   LIG    1        9.153   8.587   3.314  0.00  0.00    -0.020 C 
ATOM     17  C   LIG    1       10.576   8.895   3.808  0.00  0.00    +0.070 C 
ATOM     18  C   LIG    1       10.377  10.315   3.253  0.00  0.00    +0.170 C 
ATOM     19  C   LIG    1        9.355   9.706   2.279  0.00  0.00    +0.020 C 
BRANCH  18  20
ATOM     20  O   LIG    1       11.537  10.846   2.610  0.00  0.00    -0.560 OA
ATOM     21  H   LIG    1       11.418  11.739   2.259  0.00  0.00    +0.380 HD
ENDBRANCH  18  20
ENDBRANCH  13  16
ENDBRANCH   6   9
BRANCH   2  22
ATOM     22  C   LIG    1        2.057   0.730  -0.064  0.00  0.00    -0.060 A 
ATOM     23  C   LIG    1        1.294  -0.378   0.164  0.00  0.00    +0.230 A 
ATOM     24  N   LIG    1        0.001   0.002   0.031  0.00  0.00    -0.560 N 
ATOM     25  H   LIG    1       -0.776  -0.569   0.135  0.00  0.00    +0.430 HD
ATOM     26  C   LIG    1       -0.012   1.325  -0.274  0.00  0.00    +0.410 A 
ATOM     27  N   LIG    1        1.214   1.760  -0.331  0.00  0.00    -0.460 NA
ENDBRANCH   2  22
TORSDOF 4
