REMARK  Name = ZINCb70000002Cav.0
REMARK                            x       y       z     vdW  Elec       q    Type
REMARK                         _______ _______ _______ _____ _____    ______ ____
ROOT
ATOM      1  C   LIG    1        0.089   3.721   0.021  0.00  0.00    +0.590 C 
ATOM      2  N   LIG    1        1.204   3.006   0.007  0.00  0.00    -0.610 NA
ATOM      3  C   LIG    1        1.171   1.668  -0.000  0.00  0.00    +0.710 C 
ATOM      4  N   LIG    1       -0.011   0.966   0.007  0.00  0.00    -0.620 N 
ATOM      5  H   LIG    1        0.002  -0.004   0.002  0.00  0.00    +0.430 HD
ATOM      6  C   LIG    1       -1.212   1.636   0.017  0.00  0.00    +0.330 A 
ATOM      7  N   LIG    1       -2.509   1.242   0.033  0.00  0.00    -0.540 N 
ATOM      8  H   LIG    1       -2.810   0.319   0.030  0.00  0.00    +0.440 HD
ATOM      9  C   LIG    1       -3.336   2.337   0.046  0.00  0.00    +0.240 A 
ATOM     10  C   LIG    1       -2.594   3.457   0.045  0.00  0.00    +0.050 A 
ATOM     11  C   LIG    1       -1.195   3.029   0.030  0.00  0.00    -0.260 A 
ENDROOT
BRANCH   1  12
ATOM     12  N   LIG    1        0.141   5.095   0.029  0.00  0.00    -0.770 N 
ATOM     13  H   LIG    1       -0.680   5.612   0.039  0.00  0.00    +0.430 HD
ATOM     14  H   LIG    1        0.998   5.548   0.023  0.00  0.00    +0.430 HD
ENDBRANCH   1  12
BRANCH   3  15
ATOM     15  N   LIG    1        2.306   1.003  -0.015  0.00  0.00    -0.750 NA
ATOM     16  H   LIG    1        3.149   1.483  -0.021  0.00  0.00    +0.450 HD
ATOM     17  H   LIG    1        2.300   0.033  -0.021  0.00  0.00    +0.430 HD
ENDBRANCH   3  15
TORSDOF 2
