REMARK  Name = ZINCpk00001AZj7Q.0
REMARK                            x       y       z     vdW  Elec       q    Type
REMARK                         _______ _______ _______ _____ _____    ______ ____
ROOT
ATOM      1  C   LIG    1       -1.333   3.690   0.088  0.00  0.00    +0.100 C 
ATOM      2  C   LIG    1       -1.449   2.187   0.088  0.00  0.00    +0.540 C 
ATOM      3  N   LIG    1       -0.338   1.426   0.027  0.00  0.00    -0.640 N 
ATOM      4  C   LIG    1        1.112   1.675  -0.054  0.00  0.00    +0.290 C 
ATOM      5  C   LIG    1        1.316   0.315   0.593  0.00  0.00    -0.090 C 
ATOM      6  C   LIG    1        2.506  -0.515   0.094  0.00  0.00    +0.030 C 
ATOM      7  C   LIG    1        3.638  -0.184   1.093  0.00  0.00    +0.180 C 
ATOM      8  C   LIG    1        2.960   0.325   2.378  0.00  0.00    +0.140 C 
ATOM      9  C   LIG    1        1.436   0.288   2.122  0.00  0.00    +0.070 C 
ATOM     10  C   LIG    1       -0.045  -0.018   0.006  0.00  0.00    +0.240 C 
ATOM     11  O   LIG    1       -2.541   1.663   0.142  0.00  0.00    -0.540 OA
ENDROOT
BRANCH   8  12
ATOM     12  N   LIG    1        3.301  -0.551   3.507  0.00  0.00    -0.520 NA
ATOM     13  C   LIG    1        4.747  -0.531   3.771  0.00  0.00    +0.230 C 
ATOM     14  C   LIG    1        5.221   0.917   3.943  0.00  0.00    +0.250 C 
ATOM     15  N   LIG    1        4.332   1.580   4.901  0.00  0.00    -0.460 N 
ATOM     16  C   LIG    1        4.530   2.740   5.582  0.00  0.00    +0.120 A 
ATOM     17  C   LIG    1        3.433   2.934   6.343  0.00  0.00    -0.000 A 
ATOM     18  N   LIG    1        2.589   1.912   6.125  0.00  0.00    -0.480 NA
ATOM     19  C   LIG    1        3.196   4.095   7.275  0.00  0.00    +0.140 C 
ATOM     20  C   LIG    1        3.117   1.097   5.263  0.00  0.00    +0.170 A 
ATOM     21  C   LIG    1        2.536  -0.182   4.711  0.00  0.00    +0.360 C 
ENDBRANCH   8  12
BRANCH  10  22
ATOM     22  C   LIG    1        0.025  -0.607  -1.404  0.00  0.00    -0.020 C 
ATOM     23  C   LIG    1       -1.260  -0.269  -2.162  0.00  0.00    +0.030 C 
ATOM     24  C   LIG    1        0.179  -2.127  -1.315  0.00  0.00    +0.030 C 
ENDBRANCH  10  22
BRANCH   7  25
ATOM     25  O   LIG    1        4.487   0.831   0.553  0.00  0.00    -0.570 OA
ATOM     26  H   LIG    1        4.943   0.571  -0.259  0.00  0.00    +0.380 HD
ENDBRANCH   7  25
TORSDOF 3
