REMARK  Name = ZINCrD000000AC5O.0
REMARK                            x       y       z     vdW  Elec       q    Type
REMARK                         _______ _______ _______ _____ _____    ______ ____
ROOT
ATOM      1  O   LIG    1       -1.049  -4.086  -2.177  0.00  0.00    -0.510 OA
ATOM      2  C   LIG    1       -1.405  -4.870  -1.322  0.00  0.00    +0.520 C 
ATOM      3  N   LIG    1       -1.387  -6.194  -1.572  0.00  0.00    -0.620 N 
ATOM      4  C   LIG    1       -1.810  -7.150  -0.540  0.00  0.00    +0.280 C 
ATOM      5  C   LIG    1       -2.965  -7.996  -1.103  0.00  0.00    +0.060 C 
ATOM      6  C   LIG    1       -2.553  -8.522  -2.461  0.00  0.00    -0.100 C 
ATOM      7  C   LIG    1       -2.064  -7.533  -3.497  0.00  0.00    +0.060 C 
ATOM      8  C   LIG    1       -2.620  -9.817  -2.737  0.00  0.00    +0.000 C 
ATOM      9  C   LIG    1       -0.938  -6.698  -2.876  0.00  0.00    +0.290 C 
ENDROOT
BRANCH   8  10
ATOM     10  C   LIG    1       -3.268 -10.743  -1.784  0.00  0.00    -0.020 A 
ATOM     11  C   LIG    1       -4.402 -10.340  -1.078  0.00  0.00    +0.000 A 
ATOM     12  C   LIG    1       -5.003 -11.209  -0.190  0.00  0.00    +0.040 A 
ATOM     13  C   LIG    1       -4.486 -12.477   0.000  0.00  0.00    -0.020 A 
ATOM     14  C   LIG    1       -3.361 -12.884  -0.698  0.00  0.00    +0.100 A 
ATOM     15  F   LIG    1       -2.860 -14.124  -0.507  0.00  0.00    -0.140 F 
ATOM     16  C   LIG    1       -2.752 -12.025  -1.593  0.00  0.00    -0.010 A 
ENDBRANCH   8  10
BRANCH   2  17
ATOM     17  C   LIG    1       -1.867  -4.362   0.019  0.00  0.00    +0.150 C 
BRANCH  17  18
ATOM     18  C   LIG    1       -1.791  -2.857   0.040  0.00  0.00    +0.080 A 
ATOM     19  C   LIG    1       -2.849  -2.097   0.342  0.00  0.00    -0.050 A 
ATOM     20  S   LIG    1       -2.354  -0.407   0.265  0.00  0.00    +0.150 S 
ATOM     21  C   LIG    1       -0.728  -0.910  -0.189  0.00  0.00    +0.140 A 
ATOM     22  N   LIG    1       -0.682  -2.210  -0.237  0.00  0.00    -0.400 NA
BRANCH  21  23
ATOM     23  C   LIG    1        0.406  -0.001  -0.466  0.00  0.00    +0.300 A 
ATOM     24  N   LIG    1        0.365   1.314  -0.419  0.00  0.00    -0.290 NA
ATOM     25  N   LIG    1        1.652   1.770  -0.748  0.00  0.00    -0.470 N 
ATOM     26  H   LIG    1        1.944   2.693  -0.800  0.00  0.00    +0.450 HD
ATOM     27  C   LIG    1        2.399   0.675  -0.977  0.00  0.00    +0.500 A 
ATOM     28  N   LIG    1        1.647  -0.379  -0.806  0.00  0.00    -0.500 NA
ENDBRANCH  21  23
ENDBRANCH  17  18
ENDBRANCH   2  17
TORSDOF 4
