REMARK  Name = ZINCqH0000004Pb6.0
REMARK                            x       y       z     vdW  Elec       q    Type
REMARK                         _______ _______ _______ _____ _____    ______ ____
ROOT
ATOM      1  C   LIG    1        0.324   2.163  -6.554  0.00  0.00    +0.370 A 
ATOM      2  C   LIG    1       -0.583   2.702  -7.461  0.00  0.00    -0.070 A 
ATOM      3  C   LIG    1       -1.822   3.125  -7.011  0.00  0.00    +0.100 A 
ATOM      4  C   LIG    1       -2.120   2.991  -5.664  0.00  0.00    -0.050 A 
ATOM      5  C   LIG    1       -1.166   2.448  -4.808  0.00  0.00    +0.210 A 
ATOM      6  N   LIG    1        0.013   2.052  -5.273  0.00  0.00    -0.470 NA
ENDROOT
BRANCH   5   7
ATOM      7  C   LIG    1       -1.472   2.304  -3.364  0.00  0.00    -0.090 A 
ATOM      8  C   LIG    1       -2.706   2.715  -2.863  0.00  0.00    +0.080 A 
ATOM      9  C   LIG    1       -2.991   2.578  -1.523  0.00  0.00    -0.010 A 
ATOM     10  C   LIG    1       -2.050   2.027  -0.655  0.00  0.00    +0.120 A 
ATOM     11  O   LIG    1       -2.135   1.787   0.682  0.00  0.00    -0.300 OA
ATOM     12  C   LIG    1       -0.811   1.622   1.220  0.00  0.00    +0.240 C 
ATOM     13  C   LIG    1       -0.014   1.086   0.008  0.00  0.00    +0.070 C 
ATOM     14  C   LIG    1       -0.818   1.625  -1.160  0.00  0.00    -0.180 A 
ATOM     15  C   LIG    1       -0.526   1.755  -2.497  0.00  0.00    +0.130 A 
ENDBRANCH   5   7
BRANCH   1  17
ATOM     16  C   LIG    1        2.494   1.307  -6.114  0.00  0.00    +0.600 C 
ATOM     17  N   LIG    1        1.572   1.735  -6.999  0.00  0.00    -0.650 N 
ATOM     18  H   LIG    1        1.778   1.744  -7.947  0.00  0.00    +0.420 HD
ATOM     19  O   LIG    1        2.205   1.207  -4.936  0.00  0.00    -0.450 OA
BRANCH  16  25
ATOM     20  C   LIG    1        5.030   1.833  -6.687  0.00  0.00    +0.060 A 
ATOM     21  N   LIG    1        5.982   1.067  -7.130  0.00  0.00    -0.350 NA
ATOM     22  O   LIG    1        5.612  -0.068  -7.308  0.00  0.00    +0.100 OA
ATOM     23  C   LIG    1        4.326  -0.254  -7.001  0.00  0.00    +0.030 A 
ATOM     24  C   LIG    1        3.550  -1.542  -7.106  0.00  0.00    +0.210 C 
ATOM     25  C   LIG    1        3.851   0.961  -6.571  0.00  0.00    -0.260 A 
BRANCH  20  27
ATOM     26  C   LIG    1        5.520   3.473  -4.893  0.00  0.00    +0.040 C 
ATOM     27  C   LIG    1        5.117   3.301  -6.359  0.00  0.00    +0.130 C 
ENDBRANCH  20  27
ENDBRANCH  16  25
ENDBRANCH   1  17
TORSDOF 4
