REMARK  Name = ZINCpk00000KaVJP.1
REMARK                            x       y       z     vdW  Elec       q    Type
REMARK                         _______ _______ _______ _____ _____    ______ ____
ROOT
ATOM      1  C   LIG    1        0.239  -0.410   2.312  0.00  0.00    +0.540 C 
ATOM      2  N   LIG    1        0.268  -1.037   1.119  0.00  0.00    -0.600 N 
ATOM      3  C   LIG    1        0.243  -0.265  -0.132  0.00  0.00    +0.300 C 
ATOM      4  C   LIG    1        1.462  -0.671  -0.978  0.00  0.00    +0.250 C 
ATOM      5  N   LIG    1        1.513  -2.138  -1.051  0.00  0.00    -0.610 N 
ATOM      6  C   LIG    1        1.533  -2.909   0.199  0.00  0.00    +0.270 C 
ATOM      7  C   LIG    1        1.541  -2.764  -2.244  0.00  0.00    +0.550 C 
ATOM      8  O   LIG    1        1.584  -3.975  -2.293  0.00  0.00    -0.540 OA
ATOM      9  C   LIG    1        0.320  -2.504   1.045  0.00  0.00    +0.270 C 
ATOM     10  O   LIG    1        0.350  -1.051   3.336  0.00  0.00    -0.530 OA
ENDROOT
BRANCH   1  11
ATOM     11  C   LIG    1        0.069   1.086   2.373  0.00  0.00    +0.130 C 
ATOM     12  C   LIG    1       -0.416   1.512   3.775  0.00  0.00    +0.040 C 
ATOM     13  C   LIG    1        0.908   1.814   4.507  0.00  0.00    +0.090 C 
ATOM     14  C   LIG    1        1.886   2.195   3.416  0.00  0.00    -0.080 A 
ATOM     15  C   LIG    1        3.100   2.855   3.490  0.00  0.00    +0.010 A 
ATOM     16  C   LIG    1        3.831   3.097   2.343  0.00  0.00    +0.020 A 
ATOM     17  C   LIG    1        3.349   2.678   1.117  0.00  0.00    +0.010 A 
ATOM     18  C   LIG    1        2.138   2.019   1.041  0.00  0.00    +0.040 A 
ATOM     19  C   LIG    1        1.404   1.776   2.190  0.00  0.00    -0.090 A 
BRANCH  11  21
ATOM     20  C   LIG    1       -0.942   2.999   1.288  0.00  0.00    +0.210 C 
ATOM     21  N   LIG    1       -0.881   1.532   1.347  0.00  0.00    -0.530 NA
ATOM     22  C   LIG    1       -2.214   0.959   1.577  0.00  0.00    +0.200 C 
ENDBRANCH  11  21
ENDBRANCH   1  11
BRANCH   7  23
ATOM     23  C   LIG    1        1.520  -1.959  -3.518  0.00  0.00    -0.070 C 
ATOM     24  C   LIG    1        0.262  -2.042  -4.385  0.00  0.00    +0.060 C 
ATOM     25  C   LIG    1        1.552  -2.729  -4.841  0.00  0.00    +0.060 C 
ENDBRANCH   7  23
TORSDOF 3
