REMARK  Name = ZINCtV00001bB3PY.0
REMARK                            x       y       z     vdW  Elec       q    Type
REMARK                         _______ _______ _______ _____ _____    ______ ____
ROOT
ATOM      1  O   LIG    1       -3.695   0.480  -2.428  0.00  0.00    -0.500 OA
ATOM      2  C   LIG    1       -3.371   1.605  -2.097  0.00  0.00    +0.630 C 
ATOM      3  N   LIG    1       -4.205   2.354  -1.347  0.00  0.00    -0.470 N 
ATOM      4  N   LIG    1       -3.977   3.667  -0.918  0.00  0.00    -0.230 NA
ATOM      5  C   LIG    1       -4.829   4.078  -0.044  0.00  0.00    +0.150 C 
ATOM      6  C   LIG    1       -5.055   5.389   0.440  0.00  0.00    -0.070 C 
ATOM      7  C   LIG    1       -6.311   5.728   1.184  0.00  0.00    +0.100 C 
ATOM      8  C   LIG    1       -7.192   4.533   1.491  0.00  0.00    +0.030 C 
ATOM      9  C   LIG    1       -7.141   3.450   0.416  0.00  0.00    +0.040 C 
ATOM     10  C   LIG    1       -4.129   6.346   0.228  0.00  0.00    +0.090 C 
ATOM     11  C   LIG    1       -5.713   2.903   0.356  0.00  0.00    +0.010 C 
ATOM     12  C   LIG    1       -5.524   1.933  -0.823  0.00  0.00    +0.260 C 
ENDROOT
BRANCH  10  13
ATOM     13  C   LIG    1       -2.719   5.974   0.029  0.00  0.00    -0.060 A 
ATOM     14  C   LIG    1       -2.186   4.862   0.689  0.00  0.00    +0.030 A 
ATOM     15  C   LIG    1       -0.865   4.517   0.494  0.00  0.00    +0.010 A 
ATOM     16  C   LIG    1       -0.064   5.275  -0.343  0.00  0.00    +0.010 A 
ATOM     17  C   LIG    1       -0.583   6.380  -0.995  0.00  0.00    -0.010 A 
ATOM     18  C   LIG    1       -1.903   6.735  -0.814  0.00  0.00    +0.040 A 
ENDBRANCH  10  13
BRANCH  12  19
ATOM     19  C   LIG    1       -5.485   0.504  -0.345  0.00  0.00    -0.080 A 
ATOM     20  C   LIG    1       -4.365   0.025   0.309  0.00  0.00    +0.020 A 
ATOM     21  C   LIG    1       -4.331  -1.284   0.752  0.00  0.00    +0.000 A 
ATOM     22  C   LIG    1       -5.412  -2.117   0.531  0.00  0.00    +0.010 A 
ATOM     23  C   LIG    1       -6.529  -1.639  -0.127  0.00  0.00    +0.000 A 
ATOM     24  C   LIG    1       -6.566  -0.329  -0.565  0.00  0.00    +0.020 A 
ENDBRANCH  12  19
BRANCH   2  25
ATOM     25  C   LIG    1       -2.075   2.147  -2.513  0.00  0.00    -0.300 A 
ATOM     26  C   LIG    1       -1.089   1.444  -3.148  0.00  0.00    +0.080 A 
ATOM     27  C   LIG    1        0.023   2.202  -3.429  0.00  0.00    -0.020 A 
ATOM     28  C   LIG    1       -0.045   3.479  -3.034  0.00  0.00    -0.110 A 
ATOM     29  S   LIG    1       -1.538   3.804  -2.274  0.00  0.00    +0.320 S 
ENDBRANCH   2  25
TORSDOF 3
