REMARK  Name = ZINCrH000004n4WQ.0
REMARK                            x       y       z     vdW  Elec       q    Type
REMARK                         _______ _______ _______ _____ _____    ______ ____
ROOT
ATOM      1  N   LIG    1       -0.242   1.246   2.466  0.00  0.00    -0.730 N 
ATOM      2  H   LIG    1        0.555   0.699   2.544  0.00  0.00    +0.410 HD
ATOM      3  C   LIG    1       -0.718   1.572   1.248  0.00  0.00    +0.510 C 
ATOM      4  O   LIG    1       -1.714   2.256   1.150  0.00  0.00    -0.540 OA
ENDROOT
BRANCH   1   5
ATOM      5  C   LIG    1       -0.927   1.718   3.671  0.00  0.00    +0.240 C 
BRANCH   5   6
ATOM      6  C   LIG    1       -0.187   1.212   4.911  0.00  0.00    +0.250 C 
BRANCH   6  10
ATOM      7  C   LIG    1       -2.376   2.293   8.418  0.00  0.00    +0.130 A 
ATOM      8  C   LIG    1       -2.474   1.007   7.907  0.00  0.00    -0.020 A 
ATOM      9  C   LIG    1       -1.765   0.660   6.773  0.00  0.00    +0.070 A 
ATOM     10  C   LIG    1       -0.959   1.593   6.147  0.00  0.00    -0.160 A 
ATOM     11  C   LIG    1       -0.856   2.874   6.658  0.00  0.00    +0.050 A 
ATOM     12  C   LIG    1       -1.567   3.228   7.788  0.00  0.00    -0.070 A 
BRANCH   7  14
ATOM     13  C   LIG    1       -2.924   3.979  10.002  0.00  0.00    +0.250 C 
ATOM     14  O   LIG    1       -3.072   2.637   9.533  0.00  0.00    -0.320 OA
ENDBRANCH   7  14
ENDBRANCH   6  10
BRANCH   6  15
ATOM     15  O   LIG    1        1.115   1.799   4.962  0.00  0.00    -0.550 OA
ATOM     16  H   LIG    1        1.109   2.765   5.008  0.00  0.00    +0.380 HD
ENDBRANCH   6  15
ENDBRANCH   5   6
ENDBRANCH   1   5
BRANCH   3  17
ATOM     17  C   LIG    1       -0.013   1.086   0.008  0.00  0.00    +0.060 C 
BRANCH  17  18
ATOM     18  C   LIG    1       -0.753   1.593  -1.232  0.00  0.00    +0.170 C 
BRANCH  18  19
ATOM     19  C   LIG    1       -0.047   1.107  -2.471  0.00  0.00    -0.010 A 
ATOM     20  C   LIG    1       -0.299  -0.049  -3.117  0.00  0.00    -0.050 A 
ATOM     21  C   LIG    1        0.581  -0.108  -4.216  0.00  0.00    -0.040 A 
ATOM     22  C   LIG    1        1.329   1.026  -4.180  0.00  0.00    +0.030 A 
ATOM     23  O   LIG    1        0.933   1.756  -3.120  0.00  0.00    -0.170 OA
BRANCH  22  24
ATOM     24  C   LIG    1        2.389   1.397  -5.142  0.00  0.00    -0.020 A 
ATOM     25  C   LIG    1        2.702   0.545  -6.202  0.00  0.00    +0.030 A 
ATOM     26  C   LIG    1        3.688   0.899  -7.099  0.00  0.00    +0.010 A 
ATOM     27  C   LIG    1        4.374   2.091  -6.943  0.00  0.00    +0.020 A 
ATOM     28  C   LIG    1        4.072   2.937  -5.891  0.00  0.00    +0.010 A 
ATOM     29  C   LIG    1        3.084   2.597  -4.989  0.00  0.00    +0.030 A 
ENDBRANCH  22  24
ENDBRANCH  18  19
ENDBRANCH  17  18
ENDBRANCH   3  17
TORSDOF 9
