REMARK  Name = ZINCrg00001JduS8.0
REMARK                            x       y       z     vdW  Elec       q    Type
REMARK                         _______ _______ _______ _____ _____    ______ ____
ROOT
ATOM      1  C   LIG    1        2.442   0.995   0.035  0.00  0.00    +0.300 C 
ATOM      2  C   LIG    1        3.371   1.142  -1.187  0.00  0.00    -0.280 C 
ATOM      3  S   LIG    1        3.098   2.886  -1.700  0.00  0.00    +2.380 S 
ATOM      4  C   LIG    1        1.318   2.881  -1.250  0.00  0.00    -0.290 C 
ATOM      5  O   LIG    1        3.237   3.001  -3.110  0.00  0.00    -0.930 OA
ATOM      6  O   LIG    1        3.813   3.760  -0.837  0.00  0.00    -0.920 OA
ATOM      7  C   LIG    1        1.280   1.980   0.001  0.00  0.00    +0.020 C 
ENDROOT
BRANCH   1   9
ATOM      8  C   LIG    1        3.958   0.224   1.780  0.00  0.00    +0.530 C 
ATOM      9  N   LIG    1        3.222   1.223   1.254  0.00  0.00    -0.730 N 
ATOM     10  H   LIG    1        3.209   2.093   1.683  0.00  0.00    +0.400 HD
ATOM     11  O   LIG    1        3.975  -0.864   1.244  0.00  0.00    -0.520 OA
BRANCH   8  15
ATOM     12  C   LIG    1        6.632   0.751   5.262  0.00  0.00    +0.040 C 
ATOM     13  C   LIG    1        6.707   0.211   3.833  0.00  0.00    -0.040 C 
ATOM     14  C   LIG    1        5.573  -0.767   3.483  0.00  0.00    +0.060 C 
ATOM     15  C   LIG    1        4.761   0.458   3.034  0.00  0.00    -0.020 C 
ATOM     16  C   LIG    1        6.104   1.162   2.783  0.00  0.00    +0.050 C 
ENDBRANCH   8  15
ENDBRANCH   1   9
BRANCH   7  17
ATOM     17  C   LIG    1       -0.014   1.209   0.009  0.00  0.00    +0.530 C 
ATOM     18  N   LIG    1       -1.191   1.867   0.018  0.00  0.00    -0.720 N 
ATOM     19  H   LIG    1       -1.204   2.837   0.023  0.00  0.00    +0.400 HD
ATOM     20  O   LIG    1        0.002  -0.004   0.002  0.00  0.00    -0.520 OA
BRANCH  18  21
ATOM     21  C   LIG    1       -2.449   1.117   0.020  0.00  0.00    +0.260 C 
BRANCH  21  22
ATOM     22  C   LIG    1       -3.626   2.095   0.031  0.00  0.00    +0.080 C 
BRANCH  22  23
ATOM     23  C   LIG    1       -4.920   1.324   0.033  0.00  0.00    -0.120 A 
ATOM     24  C   LIG    1       -5.615   1.143   1.213  0.00  0.00    +0.050 A 
ATOM     25  C   LIG    1       -6.803   0.435   1.215  0.00  0.00    +0.000 A 
ATOM     26  C   LIG    1       -7.296  -0.092   0.037  0.00  0.00    +0.040 A 
ATOM     27  C   LIG    1       -6.604   0.088  -1.145  0.00  0.00    -0.010 A 
ATOM     28  C   LIG    1       -5.417   0.802  -1.150  0.00  0.00    +0.100 A 
ATOM     29  F   LIG    1       -4.742   0.984  -2.306  0.00  0.00    -0.140 F 
ENDBRANCH  22  23
ENDBRANCH  21  22
ENDBRANCH  18  21
ENDBRANCH   7  17
TORSDOF 6
