REMARK  Name = ZINCpe000000Tjem.0
REMARK                            x       y       z     vdW  Elec       q    Type
REMARK                         _______ _______ _______ _____ _____    ______ ____
ROOT
ATOM      1  C   LIG    1       -1.484   1.898  -0.134  0.00  0.00    +0.010 C 
ATOM      2  C   LIG    1       -1.964   2.427   1.219  0.00  0.00    +0.100 C 
ENDROOT
BRANCH   1   3
ATOM      3  C   LIG    1       -0.155   1.208   0.040  0.00  0.00    +0.540 C 
ATOM      4  N   LIG    1        0.988   1.915  -0.054  0.00  0.00    -0.590 N 
ATOM      5  O   LIG    1       -0.115   0.016   0.259  0.00  0.00    -0.510 OA
BRANCH   4   6
ATOM      6  C   LIG    1        2.273   1.271   0.228  0.00  0.00    +0.280 C 
ATOM      7  C   LIG    1        2.286   0.727   1.667  0.00  0.00    +0.070 C 
ATOM      8  C   LIG    1        3.486  -0.227   1.825  0.00  0.00    -0.310 C 
ATOM      9  S   LIG    1        3.781  -0.902   0.150  0.00  0.00    +2.390 S 
ATOM     10  O   LIG    1        3.450  -2.283   0.134  0.00  0.00    -0.930 OA
ATOM     11  O   LIG    1        5.056  -0.474  -0.312  0.00  0.00    -0.930 OA
ATOM     12  C   LIG    1        2.473   0.052  -0.710  0.00  0.00    -0.320 C 
ENDBRANCH   4   6
BRANCH   4  13
ATOM     13  C   LIG    1        0.946   3.329  -0.438  0.00  0.00    +0.270 C 
ATOM     14  C   LIG    1        0.968   4.200   0.819  0.00  0.00    +0.030 C 
ENDBRANCH   4  13
ENDBRANCH   1   3
BRANCH   1  15
ATOM     15  S   LIG    1       -2.695   0.720  -0.784  0.00  0.00    +0.100 S 
BRANCH  15  22
ATOM     16  N   LIG    1       -5.299   1.428  -1.523  0.00  0.00    -0.530 N 
ATOM     17  C   LIG    1       -6.086   2.521  -1.558  0.00  0.00    +0.650 A 
ATOM     18  N   LIG    1       -5.360   3.561  -1.099  0.00  0.00    -0.540 N 
ATOM     19  H   LIG    1       -5.662   4.479  -1.012  0.00  0.00    +0.460 HD
ATOM     20  N   LIG    1       -4.088   3.072  -0.771  0.00  0.00    -0.280 NA
ATOM     21  O   LIG    1       -7.243   2.563  -1.939  0.00  0.00    -0.550 OA
ATOM     22  C   LIG    1       -4.069   1.796  -1.027  0.00  0.00    +0.240 A 
BRANCH  16  23
ATOM     23  C   LIG    1       -5.686   0.078  -1.940  0.00  0.00    +0.320 C 
BRANCH  23  24
ATOM     24  C   LIG    1       -6.278  -0.674  -0.745  0.00  0.00    +0.000 C 
BRANCH  24  26
ATOM     25  C   LIG    1       -7.275  -2.835   0.014  0.00  0.00    +0.020 C 
ATOM     26  C   LIG    1       -6.683  -2.084  -1.180  0.00  0.00    +0.020 C 
ENDBRANCH  24  26
ENDBRANCH  23  24
ENDBRANCH  16  23
ENDBRANCH  15  22
ENDBRANCH   1  15
TORSDOF 8
