REMARK  Name = ZINCpk00000xI9ns.0
REMARK                            x       y       z     vdW  Elec       q    Type
REMARK                         _______ _______ _______ _____ _____    ______ ____
ROOT
ATOM      1  N   LIG    1       -3.187   8.173  -1.012  0.00  0.00    -0.550 N 
ATOM      2  C   LIG    1       -1.999   7.541  -1.098  0.00  0.00    +0.600 A 
ATOM      3  C   LIG    1       -1.971   6.142  -1.226  0.00  0.00    -0.190 A 
ATOM      4  C   LIG    1       -3.175   5.439  -1.262  0.00  0.00    +0.370 A 
ATOM      5  N   LIG    1       -4.364   6.146  -1.169  0.00  0.00    -0.510 N 
ATOM      6  C   LIG    1       -5.644   5.435  -1.203  0.00  0.00    +0.340 C 
ATOM      7  N   LIG    1       -2.880   4.148  -1.387  0.00  0.00    -0.510 NA
ATOM      8  C   LIG    1       -1.565   3.987  -1.434  0.00  0.00    +0.450 A 
ATOM      9  N   LIG    1       -0.579   3.043  -1.545  0.00  0.00    -0.450 N 
ATOM     10  C   LIG    1        0.638   3.697  -1.509  0.00  0.00    +0.070 A 
ATOM     11  C   LIG    1        1.994   3.046  -1.595  0.00  0.00    +0.190 C 
ATOM     12  C   LIG    1        0.405   5.001  -1.389  0.00  0.00    +0.170 A 
ATOM     13  N   LIG    1       -0.964   5.196  -1.338  0.00  0.00    -0.350 N 
ATOM     14  O   LIG    1       -0.959   8.176  -1.064  0.00  0.00    -0.500 OA
ATOM     15  C   LIG    1       -4.342   7.487  -1.047  0.00  0.00    +0.710 A 
ATOM     16  O   LIG    1       -5.394   8.092  -0.967  0.00  0.00    -0.540 OA
ENDROOT
BRANCH   9  17
ATOM     17  C   LIG    1       -0.778   1.598  -1.673  0.00  0.00    +0.260 C 
ATOM     18  C   LIG    1       -1.479   1.067  -0.420  0.00  0.00    +0.040 C 
BRANCH  17  19
ATOM     19  C   LIG    1       -1.642   1.309  -2.902  0.00  0.00    +0.030 C 
ATOM     20  C   LIG    1       -0.884   1.717  -4.166  0.00  0.00    +0.020 C 
ENDBRANCH  17  19
ENDBRANCH   9  17
BRANCH   1  21
ATOM     21  C   LIG    1       -3.219   9.632  -0.877  0.00  0.00    +0.350 C 
BRANCH  21  22
ATOM     22  C   LIG    1       -3.196  10.008   0.605  0.00  0.00    +0.180 C 
BRANCH  22  23
ATOM     23  O   LIG    1       -1.952   9.602   1.181  0.00  0.00    -0.370 OA
BRANCH  23  25
ATOM     24  C   LIG    1       -0.465   9.433   3.078  0.00  0.00    +0.040 C 
ATOM     25  C   LIG    1       -1.827   9.909   2.571  0.00  0.00    +0.150 C 
ENDBRANCH  23  25
ENDBRANCH  22  23
ENDBRANCH  21  22
ENDBRANCH   1  21
TORSDOF 6
