REMARK  Name = ZINCb800000010Hf.0
REMARK                            x       y       z     vdW  Elec       q    Type
REMARK                         _______ _______ _______ _____ _____    ______ ____
ROOT
ATOM      1  C   LIG    1       -2.826   5.071  -1.244  0.00  0.00    +0.080 C 
ATOM      2  C   LIG    1       -2.317   4.486   0.049  0.00  0.00    +0.510 C 
ATOM      3  N   LIG    1       -1.300   3.601   0.033  0.00  0.00    -0.620 N 
ATOM      4  C   LIG    1       -0.714   3.113   1.289  0.00  0.00    +0.270 C 
ATOM      5  C   LIG    1       -0.734   1.581   1.279  0.00  0.00    +0.020 C 
ATOM      6  C   LIG    1       -0.030   1.074   0.018  0.00  0.00    +0.020 C 
ATOM      7  C   LIG    1       -0.776   1.575  -1.221  0.00  0.00    -0.020 C 
ATOM      8  C   LIG    1       -0.757   3.107  -1.239  0.00  0.00    +0.280 C 
ATOM      9  O   LIG    1       -2.822   4.812   1.102  0.00  0.00    -0.550 OA
ENDROOT
BRANCH   7  10
ATOM     10  C   LIG    1       -0.091   1.040  -2.480  0.00  0.00    +0.180 C 
BRANCH  10  11
ATOM     11  O   LIG    1       -0.854   1.410  -3.631  0.00  0.00    -0.570 OA
ATOM     12  H   LIG    1       -0.478   1.104  -4.467  0.00  0.00    +0.380 HD
ENDBRANCH  10  11
ENDBRANCH   7  10
TORSDOF 2
