REMARK  Name = ZINCqH0000000ahd.0
REMARK                            x       y       z     vdW  Elec       q    Type
REMARK                         _______ _______ _______ _____ _____    ______ ____
ROOT
ATOM      1  C   LIG    1       -1.156  -0.694   0.009  0.00  0.00    +0.510 C 
ATOM      2  N   LIG    1        0.002  -0.004   0.002  0.00  0.00    -0.730 N 
ATOM      3  H   LIG    1        0.849  -0.478  -0.009  0.00  0.00    +0.400 HD
ATOM      4  O   LIG    1       -2.214  -0.102   0.023  0.00  0.00    -0.510 OA
ENDROOT
BRANCH   1   5
ATOM      5  C   LIG    1       -1.135  -2.201   0.001  0.00  0.00    +0.260 C 
ATOM      6  C   LIG    1       -0.395  -2.707   1.241  0.00  0.00    +0.070 C 
BRANCH   5  17
ATOM      7  C   LIG    1       -2.459  -3.943  -2.086  0.00  0.00    +0.040 C 
ATOM      8  C   LIG    1       -3.073  -3.511  -0.981  0.00  0.00    +0.140 C 
ATOM      9  C   LIG    1       -4.466  -3.800  -0.590  0.00  0.00    -0.050 A 
ATOM     10  C   LIG    1       -5.497  -4.532  -1.165  0.00  0.00    +0.040 A 
ATOM     11  C   LIG    1       -6.722  -4.606  -0.531  0.00  0.00    +0.050 A 
ATOM     12  C   LIG    1       -6.931  -3.955   0.674  0.00  0.00    +0.020 A 
ATOM     13  C   LIG    1       -5.918  -3.224   1.261  0.00  0.00    +0.100 A 
ATOM     14  C   LIG    1       -4.676  -3.138   0.637  0.00  0.00    -0.160 A 
ATOM     15  C   LIG    1       -3.414  -2.462   0.976  0.00  0.00    +0.570 C 
ATOM     16  O   LIG    1       -3.220  -1.788   1.970  0.00  0.00    -0.490 OA
ATOM     17  N   LIG    1       -2.510  -2.708   0.011  0.00  0.00    -0.550 N 
ENDBRANCH   5  17
ENDBRANCH   1   5
BRANCH   2  18
ATOM     18  C   LIG    1       -0.018   1.461   0.010  0.00  0.00    +0.300 C 
BRANCH  18  19
ATOM     19  C   LIG    1        1.418   1.990  -0.001  0.00  0.00    +0.070 C 
BRANCH  19  20
ATOM     20  S   LIG    1        1.393   3.804   0.009  0.00  0.00    -0.090 S 
BRANCH  20  21
ATOM     21  C   LIG    1        3.104   4.224  -0.005  0.00  0.00    -0.090 A 
ATOM     22  C   LIG    1        4.067   3.222  -0.014  0.00  0.00    -0.010 A 
ATOM     23  C   LIG    1        5.407   3.554  -0.031  0.00  0.00    +0.030 A 
ATOM     24  C   LIG    1        5.792   4.883  -0.027  0.00  0.00    -0.090 A 
ATOM     25  C   LIG    1        4.836   5.883  -0.013  0.00  0.00    +0.030 A 
ATOM     26  C   LIG    1        7.255   5.242  -0.038  0.00  0.00    +0.090 C 
ATOM     27  C   LIG    1        3.494   5.558  -0.002  0.00  0.00    +0.040 A 
ENDBRANCH  20  21
ENDBRANCH  19  20
ENDBRANCH  18  19
ENDBRANCH   2  18
TORSDOF 6
