REMARK  Name = ZINCrD000006fiOM.0
REMARK                            x       y       z     vdW  Elec       q    Type
REMARK                         _______ _______ _______ _____ _____    ______ ____
ROOT
ATOM      1  C   LIG    1       -2.501   1.026   0.027  0.00  0.00    +0.560 C 
ATOM      2  N   LIG    1       -2.493  -0.321   0.010  0.00  0.00    -0.720 N 
ATOM      3  H   LIG    1       -1.651  -0.801  -0.002  0.00  0.00    +0.400 HD
ATOM      4  O   LIG    1       -3.558   1.628   0.041  0.00  0.00    -0.510 OA
ENDROOT
BRANCH   2   5
ATOM      5  C   LIG    1       -3.758  -1.061   0.008  0.00  0.00    +0.290 C 
ATOM      6  C   LIG    1       -3.536  -2.435  -0.620  0.00  0.00    +0.020 C 
ATOM      7  C   LIG    1       -4.807  -3.269  -0.418  0.00  0.00    +0.030 C 
ATOM      8  C   LIG    1       -4.928  -3.612   1.066  0.00  0.00    +0.080 C 
ATOM      9  C   LIG    1       -4.795  -2.370   1.908  0.00  0.00    -0.030 A 
ATOM     10  C   LIG    1       -5.240  -2.431   3.221  0.00  0.00    -0.030 A 
ATOM     11  C   LIG    1       -5.141  -1.325   4.049  0.00  0.00    +0.130 A 
ATOM     12  C   LIG    1       -4.592  -0.149   3.560  0.00  0.00    -0.080 A 
ATOM     13  C   LIG    1       -4.153  -0.091   2.255  0.00  0.00    +0.080 A 
ATOM     14  C   LIG    1       -4.254  -1.200   1.424  0.00  0.00    -0.140 A 
BRANCH  11  15
ATOM     15  O   LIG    1       -5.580  -1.392   5.334  0.00  0.00    -0.320 OA
ATOM     16  C   LIG    1       -5.445  -0.212   6.128  0.00  0.00    +0.250 C 
ENDBRANCH  11  15
ENDBRANCH   2   5
BRANCH   1  21
ATOM     17  C   LIG    1        1.178   1.790   0.007  0.00  0.00    +0.130 A 
ATOM     18  C   LIG    1        1.166   3.181   0.025  0.00  0.00    +0.080 A 
ATOM     19  C   LIG    1       -0.032   3.867   0.046  0.00  0.00    +0.000 A 
ATOM     20  C   LIG    1       -1.232   3.173   0.051  0.00  0.00    +0.160 A 
ATOM     21  C   LIG    1       -1.228   1.772   0.028  0.00  0.00    -0.150 A 
ATOM     22  C   LIG    1       -0.013   1.084   0.012  0.00  0.00    +0.030 A 
BRANCH  17  24
ATOM     23  C   LIG    1        3.447   1.612  -0.691  0.00  0.00    +0.550 C 
ATOM     24  N   LIG    1        2.398   1.103  -0.014  0.00  0.00    -0.670 N 
ATOM     25  H   LIG    1        2.488   0.260   0.458  0.00  0.00    +0.410 HD
ATOM     26  O   LIG    1        3.360   2.707  -1.213  0.00  0.00    -0.520 OA
BRANCH  23  28
ATOM     27  C   LIG    1        5.730   1.345  -1.467  0.00  0.00    +0.160 C 
ATOM     28  C   LIG    1        4.696   0.843  -0.799  0.00  0.00    -0.090 C 
ENDBRANCH  23  28
ENDBRANCH  17  24
BRANCH  20  29
ATOM     29  O   LIG    1       -2.409   3.849   0.072  0.00  0.00    -0.480 OA
ATOM     30  H   LIG    1       -2.759   4.056  -0.805  0.00  0.00    +0.400 HD
ENDBRANCH  20  29
ENDBRANCH   1  21
TORSDOF 6
