REMARK  Name = ZINCpk00000e9OaO.0
REMARK                            x       y       z     vdW  Elec       q    Type
REMARK                         _______ _______ _______ _____ _____    ______ ____
ROOT
ATOM      1  C   LIG    1       -6.243   3.121   0.082  0.00  0.00    +0.360 C 
ATOM      2  C   LIG    1       -5.655   1.692   0.069  0.00  0.00    +0.030 C 
ATOM      3  C   LIG    1       -6.181   1.122   1.407  0.00  0.00    +0.100 C 
ATOM      4  C   LIG    1       -6.415   2.346   2.265  0.00  0.00    +0.530 C 
ATOM      5  O   LIG    1       -6.559   2.333   3.469  0.00  0.00    -0.520 OA
ATOM      6  N   LIG    1       -6.440   3.450   1.499  0.00  0.00    -0.600 N 
ATOM      7  C   LIG    1       -6.638   4.808   2.012  0.00  0.00    +0.310 C 
ENDROOT
BRANCH   1  13
ATOM      8  C   LIG    1       -6.763   4.288  -2.740  0.00  0.00    +0.320 C 
ATOM      9  N   LIG    1       -7.769   3.662  -1.879  0.00  0.00    -0.450 N 
ATOM     10  C   LIG    1       -9.094   3.485  -2.173  0.00  0.00    +0.140 A 
ATOM     11  C   LIG    1       -9.652   2.878  -1.108  0.00  0.00    +0.140 A 
ATOM     12  N   LIG    1       -8.693   2.684  -0.191  0.00  0.00    -0.470 NA
ATOM     13  C   LIG    1       -7.562   3.148  -0.647  0.00  0.00    +0.170 A 
ENDBRANCH   1  13
BRANCH   2  14
ATOM     14  C   LIG    1       -4.148   1.730   0.054  0.00  0.00    +0.520 C 
ATOM     15  N   LIG    1       -3.446   0.580   0.041  0.00  0.00    -0.610 N 
ATOM     16  H   LIG    1       -3.909  -0.272   0.041  0.00  0.00    +0.440 HD
ATOM     17  O   LIG    1       -3.568   2.795   0.053  0.00  0.00    -0.480 OA
BRANCH  15  18
ATOM     18  C   LIG    1       -2.059   0.615   0.027  0.00  0.00    +0.410 A 
ATOM     19  N   LIG    1       -1.268  -0.432   0.013  0.00  0.00    -0.490 NA
ATOM     20  C   LIG    1        0.002  -0.004   0.002  0.00  0.00    +0.010 A 
ATOM     21  C   LIG    1       -0.016   1.341   0.009  0.00  0.00    -0.060 A 
ATOM     22  C   LIG    1        1.216   2.209   0.002  0.00  0.00    +0.150 C 
ATOM     23  C   LIG    1        2.420   1.345   0.401  0.00  0.00    +0.030 C 
ATOM     24  C   LIG    1        2.429   0.065  -0.441  0.00  0.00    +0.030 C 
ATOM     25  C   LIG    1        1.261  -0.834  -0.016  0.00  0.00    +0.130 C 
ATOM     26  O   LIG    1       -1.303   1.726   0.029  0.00  0.00    -0.170 OA
ENDBRANCH  15  18
ENDBRANCH   2  14
TORSDOF 3
