REMARK  Name = ZINCqH0000051i3i.0
REMARK                            x       y       z     vdW  Elec       q    Type
REMARK                         _______ _______ _______ _____ _____    ______ ____
ROOT
ATOM      1  O   LIG    1        2.549  -0.068  -0.084  0.00  0.00    -0.530 OA
ATOM      2  C   LIG    1        2.481   1.146  -0.049  0.00  0.00    +0.580 C 
ATOM      3  N   LIG    1        3.608   1.885  -0.055  0.00  0.00    -0.720 N 
ATOM      4  H   LIG    1        3.554   2.853  -0.026  0.00  0.00    +0.410 HD
ENDROOT
BRANCH   2   5
ATOM      5  C   LIG    1        1.167   1.809   0.001  0.00  0.00    -0.280 A 
ATOM      6  C   LIG    1       -0.013   1.076   0.008  0.00  0.00    +0.250 A 
ATOM      7  C   LIG    1       -1.238   1.792   0.018  0.00  0.00    -0.170 A 
ATOM      8  C   LIG    1       -2.449   1.122   0.246  0.00  0.00    +0.110 A 
ATOM      9  C   LIG    1       -3.615   1.830   0.306  0.00  0.00    +0.000 A 
ATOM     10  C   LIG    1       -3.613   3.208   0.140  0.00  0.00    +0.090 A 
ATOM     11  C   LIG    1       -2.435   3.885  -0.102  0.00  0.00    +0.010 A 
ATOM     12  C   LIG    1       -1.238   3.185  -0.177  0.00  0.00    +0.150 A 
ATOM     13  O   LIG    1       -0.082   3.837  -0.443  0.00  0.00    -0.270 OA
ATOM     14  C   LIG    1        1.049   3.277   0.044  0.00  0.00    +0.520 A 
ATOM     15  O   LIG    1        1.941   3.965   0.504  0.00  0.00    -0.440 OA
ENDBRANCH   2   5
BRANCH   3  16
ATOM     16  C   LIG    1        4.916   1.226  -0.104  0.00  0.00    +0.280 C 
BRANCH  16  17
ATOM     17  C   LIG    1        6.021   2.284  -0.101  0.00  0.00    +0.030 C 
BRANCH  17  18
ATOM     18  C   LIG    1        7.386   1.595  -0.152  0.00  0.00    +0.160 C 
BRANCH  18  19
ATOM     19  C   LIG    1        8.475   2.638  -0.148  0.00  0.00    +0.090 A 
ATOM     20  N   LIG    1        9.016   3.110   0.910  0.00  0.00    -0.460 NA
ATOM     21  C   LIG    1        9.982   4.036   0.764  0.00  0.00    +0.080 A 
ATOM     22  C   LIG    1       10.739   4.711   1.743  0.00  0.00    +0.080 A 
ATOM     23  C   LIG    1       11.677   5.629   1.379  0.00  0.00    +0.030 A 
ATOM     24  C   LIG    1       11.906   5.917   0.041  0.00  0.00    +0.040 A 
ATOM     25  C   LIG    1       11.183   5.272  -0.938  0.00  0.00    +0.060 A 
ATOM     26  C   LIG    1       10.219   4.331  -0.584  0.00  0.00    -0.180 A 
ATOM     27  S   LIG    1        9.135   3.341  -1.556  0.00  0.00    +0.100 S 
ENDBRANCH  18  19
ENDBRANCH  17  18
ENDBRANCH  16  17
ENDBRANCH   3  16
TORSDOF 5
