REMARK  Name = ZINCkj000018RENs.0
REMARK                            x       y       z     vdW  Elec       q    Type
REMARK                         _______ _______ _______ _____ _____    ______ ____
ROOT
ATOM      1  C   LIG    1        5.298  -1.553  -1.682  0.00  0.00    +0.510 C 
ATOM      2  N   LIG    1        4.134  -0.925  -1.422  0.00  0.00    -0.720 N 
ATOM      3  H   LIG    1        3.573  -0.622  -2.153  0.00  0.00    +0.400 HD
ATOM      4  O   LIG    1        6.000  -1.931  -0.768  0.00  0.00    -0.500 OA
ENDROOT
BRANCH   1   5
ATOM      5  C   LIG    1        5.727  -1.785  -3.108  0.00  0.00    +0.090 C 
BRANCH   5  10
ATOM      6  C   LIG    1        8.693  -4.420  -5.822  0.00  0.00    +0.330 C 
ATOM      7  N   LIG    1        8.508  -3.828  -4.490  0.00  0.00    -0.390 N 
ATOM      8  C   LIG    1        7.837  -4.792  -3.592  0.00  0.00    +0.230 C 
ATOM      9  C   LIG    1        6.909  -3.980  -2.670  0.00  0.00    +0.190 C 
ATOM     10  C   LIG    1        7.074  -2.511  -3.123  0.00  0.00    +0.040 C 
ATOM     11  C   LIG    1        7.603  -2.653  -4.573  0.00  0.00    +0.280 C 
ATOM     12  H   LIG    1        9.399  -3.554  -4.104  0.00  0.00    +0.430 HD
BRANCH   9  13
ATOM     13  O   LIG    1        7.311  -4.126  -1.307  0.00  0.00    -0.520 OA
ATOM     14  H   LIG    1        7.229  -5.028  -0.967  0.00  0.00    +0.390 HD
ENDBRANCH   9  13
ENDBRANCH   5  10
ENDBRANCH   1   5
BRANCH   2  15
ATOM     15  C   LIG    1        3.717  -0.700  -0.036  0.00  0.00    +0.340 C 
BRANCH  15  16
ATOM     16  C   LIG    1        2.391   0.016  -0.020  0.00  0.00    -0.060 A 
ATOM     17  C   LIG    1        1.200  -0.696  -0.013  0.00  0.00    -0.070 A 
ATOM     18  C   LIG    1        0.002  -0.004   0.002  0.00  0.00    +0.300 A 
ATOM     19  N   LIG    1       -0.016   1.314   0.009  0.00  0.00    -0.440 NA
ATOM     20  C   LIG    1        1.096   2.023   0.003  0.00  0.00    +0.300 A 
ATOM     21 CL   LIG    1        1.213  -2.432  -0.021  0.00  0.00    -0.030 Cl
ATOM     22  C   LIG    1        2.332   1.402  -0.013  0.00  0.00    -0.070 A 
ATOM     23 CL   LIG    1        3.789   2.345  -0.022  0.00  0.00    -0.030 Cl
ENDBRANCH  15  16
ENDBRANCH   2  15
TORSDOF 5
