REMARK  Name = ZINCkj000018RENs.1
REMARK                            x       y       z     vdW  Elec       q    Type
REMARK                         _______ _______ _______ _____ _____    ______ ____
ROOT
ATOM      1  C   LIG    1        3.040   3.680   0.785  0.00  0.00    +0.510 C 
ATOM      2  N   LIG    1        3.431   4.753   1.501  0.00  0.00    -0.720 N 
ATOM      3  H   LIG    1        2.805   5.192   2.097  0.00  0.00    +0.400 HD
ATOM      4  O   LIG    1        3.823   3.130   0.039  0.00  0.00    -0.500 OA
ENDROOT
BRANCH   1   5
ATOM      5  C   LIG    1        1.630   3.163   0.911  0.00  0.00    +0.070 C 
BRANCH   5  10
ATOM      6  C   LIG    1       -0.711  -0.502  -1.182  0.00  0.00    +0.320 C 
ATOM      7  N   LIG    1        0.002  -0.004   0.002  0.00  0.00    -0.390 N 
ATOM      8  C   LIG    1        1.409  -0.456  -0.038  0.00  0.00    +0.230 C 
ATOM      9  C   LIG    1        2.220   0.722   0.558  0.00  0.00    +0.190 C 
ATOM     10  C   LIG    1        1.450   1.947  -0.001  0.00  0.00    +0.040 C 
ATOM     11  C   LIG    1       -0.018   1.470   0.010  0.00  0.00    +0.270 C 
ATOM     12  H   LIG    1       -0.441  -0.354   0.838  0.00  0.00    +0.430 HD
BRANCH   9  13
ATOM     13  O   LIG    1        3.568   0.707   0.086  0.00  0.00    -0.500 OA
ATOM     14  H   LIG    1        4.061  -0.089   0.330  0.00  0.00    +0.390 HD
ENDBRANCH   9  13
ENDBRANCH   5  10
ENDBRANCH   1   5
BRANCH   2  15
ATOM     15  C   LIG    1        4.802   5.255   1.379  0.00  0.00    +0.340 C 
BRANCH  15  16
ATOM     16  C   LIG    1        4.980   6.452   2.277  0.00  0.00    -0.060 A 
ATOM     17  C   LIG    1        4.727   7.734   1.811  0.00  0.00    -0.070 A 
ATOM     18  C   LIG    1        4.897   8.808   2.666  0.00  0.00    +0.300 A 
ATOM     19  N   LIG    1        5.304   8.624   3.907  0.00  0.00    -0.440 NA
ATOM     20  C   LIG    1        5.559   7.421   4.383  0.00  0.00    +0.300 A 
ATOM     21 CL   LIG    1        4.198   7.987   0.177  0.00  0.00    -0.030 Cl
ATOM     22  C   LIG    1        5.406   6.299   3.588  0.00  0.00    -0.070 A 
ATOM     23 CL   LIG    1        5.744   4.719   4.224  0.00  0.00    -0.030 Cl
ENDBRANCH  15  16
ENDBRANCH   2  15
TORSDOF 5
