REMARK  Name = ZINCpe000027pGU0.0
REMARK                            x       y       z     vdW  Elec       q    Type
REMARK                         _______ _______ _______ _____ _____    ______ ____
ROOT
ATOM      1  N   LIG    1       -0.853   0.284  -4.736  0.00  0.00    -0.980 NA
ENDROOT
BRANCH   1   2
ATOM      2  S   LIG    1        0.734   0.683  -4.483  0.00  0.00    +2.590 S 
ATOM      3  O   LIG    1        0.703   2.073  -4.187  0.00  0.00    -0.950 OA
ATOM      4  O   LIG    1        1.406   0.194  -5.635  0.00  0.00    -0.930 OA
ATOM      5  C   LIG    1        1.212  -0.269  -3.015  0.00  0.00    -0.300 C 
ENDBRANCH   1   2
BRANCH   1   6
ATOM      6  C   LIG    1       -1.194  -0.856  -5.590  0.00  0.00    +0.350 C 
BRANCH   6  11
ATOM      7  C   LIG    1       -0.688   0.159  -9.195  0.00  0.00    +0.120 A 
ATOM      8  C   LIG    1       -1.976   0.523  -9.560  0.00  0.00    -0.070 A 
ATOM      9  C   LIG    1       -3.004   0.439  -8.641  0.00  0.00    +0.050 A 
ATOM     10  C   LIG    1       -2.751  -0.013  -7.359  0.00  0.00    -0.010 A 
ATOM     11  C   LIG    1       -1.467  -0.370  -6.990  0.00  0.00    -0.080 A 
ATOM     12  C   LIG    1       -0.436  -0.288  -7.905  0.00  0.00    +0.020 A 
BRANCH   7  14
ATOM     13  C   LIG    1       -0.009   0.709 -11.405  0.00  0.00    +0.250 C 
ATOM     14  O   LIG    1        0.324   0.240 -10.097  0.00  0.00    -0.320 OA
ENDBRANCH   7  14
ENDBRANCH   6  11
ENDBRANCH   1   6
BRANCH   1  15
ATOM     15  C   LIG    1       -1.916   1.070  -4.105  0.00  0.00    +0.450 C 
BRANCH  15  16
ATOM     16  C   LIG    1       -2.330   0.412  -2.814  0.00  0.00    +0.150 A 
ATOM     17  N   LIG    1       -3.266  -0.489  -2.668  0.00  0.00    -0.270 NA
ATOM     18  N   LIG    1       -3.343  -0.839  -1.430  0.00  0.00    -0.280 NA
ATOM     19  C   LIG    1       -2.457  -0.186  -0.738  0.00  0.00    +0.180 A 
ATOM     20  C   LIG    1       -2.158  -0.310   0.733  0.00  0.00    +0.140 C 
ATOM     21  C   LIG    1       -2.023   1.095   1.329  0.00  0.00    +0.230 C 
ATOM     22  O   LIG    1       -0.679   1.546   1.185  0.00  0.00    -0.370 OA
ATOM     23  C   LIG    1       -0.013   1.086   0.008  0.00  0.00    +0.240 C 
ATOM     24  C   LIG    1       -0.751   1.592  -1.235  0.00  0.00    +0.270 C 
ATOM     25  N   LIG    1       -1.803   0.641  -1.592  0.00  0.00    -0.470 N 
ENDBRANCH  15  16
ENDBRANCH   1  15
TORSDOF 6
