REMARK  Name = ZINCpe000000Uyhn.0
REMARK                            x       y       z     vdW  Elec       q    Type
REMARK                         _______ _______ _______ _____ _____    ______ ____
ROOT
ATOM      1  C   LIG    1       -1.330   1.944   0.019  0.00  0.00    +0.340 C 
ENDROOT
BRANCH   1   2
ATOM      2  C   LIG    1       -0.014   1.209   0.009  0.00  0.00    +0.490 C 
ATOM      3  N   LIG    1        1.143   1.898   0.001  0.00  0.00    -0.610 N 
ATOM      4  C   LIG    1        1.139   3.368   0.003  0.00  0.00    +0.280 C 
ATOM      5  C   LIG    1        1.984   3.870  -1.166  0.00  0.00    +0.040 C 
ATOM      6  C   LIG    1        3.376   3.240  -1.093  0.00  0.00    +0.260 C 
ATOM      7  O   LIG    1        4.185   3.733  -2.168  0.00  0.00    -0.380 OA
ATOM      8  C   LIG    1        5.328   4.387  -1.580  0.00  0.00    +0.200 C 
ATOM      9  C   LIG    1        5.398   3.762  -0.164  0.00  0.00    +0.200 C 
ATOM     10  C   LIG    1        3.265   1.717  -1.190  0.00  0.00    +0.010 C 
ATOM     11  O   LIG    1        3.996   3.595   0.154  0.00  0.00    -0.370 OA
ATOM     12  C   LIG    1        2.433   1.195  -0.015  0.00  0.00    +0.300 C 
ATOM     13  O   LIG    1        0.002  -0.004   0.002  0.00  0.00    -0.520 OA
ENDBRANCH   1   2
BRANCH   1  15
ATOM     14  C   LIG    1       -2.901   0.404   1.282  0.00  0.00    +0.330 C 
ATOM     15  N   LIG    1       -2.430   0.977   0.019  0.00  0.00    -0.980 NA
BRANCH  15  16
ATOM     16  S   LIG    1       -3.141   0.532  -1.409  0.00  0.00    +2.690 S 
ATOM     17  O   LIG    1       -2.897   1.590  -2.325  0.00  0.00    -0.950 OA
ATOM     18  O   LIG    1       -4.446   0.073  -1.081  0.00  0.00    -0.950 OA
BRANCH  16  19
ATOM     19  C   LIG    1       -2.259  -0.866  -2.017  0.00  0.00    -0.680 A 
ATOM     20  C   LIG    1       -1.175  -0.688  -2.857  0.00  0.00    +0.160 A 
ATOM     21  C   LIG    1       -0.479  -1.784  -3.330  0.00  0.00    -0.030 A 
ATOM     22  C   LIG    1       -0.875  -3.062  -2.973  0.00  0.00    +0.160 A 
ATOM     23  C   LIG    1       -1.965  -3.240  -2.137  0.00  0.00    -0.020 A 
ATOM     24  F   LIG    1       -0.200  -4.134  -3.440  0.00  0.00    -0.130 F 
ATOM     25  C   LIG    1       -2.655  -2.142  -1.660  0.00  0.00    +0.160 A 
ENDBRANCH  16  19
ENDBRANCH  15  16
ENDBRANCH   1  15
TORSDOF 4
