REMARK  Name = ZINCvU00000006JP.0
REMARK                            x       y       z     vdW  Elec       q    Type
REMARK                         _______ _______ _______ _____ _____    ______ ____
ROOT
ATOM      1  N   LIG    1       -0.068   1.112  -4.073  0.00  0.00    -0.410 N 
ATOM      2  C   LIG    1        0.122   0.990  -2.724  0.00  0.00    +0.160 A 
ATOM      3  N   LIG    1        1.196   0.252  -2.547  0.00  0.00    -0.290 NA
ATOM      4  N   LIG    1        1.689  -0.089  -3.683  0.00  0.00    -0.260 NA
ATOM      5  C   LIG    1        0.963   0.409  -4.657  0.00  0.00    +0.230 A 
ENDROOT
BRANCH   5   6
ATOM      6  C   LIG    1        1.202   0.242  -6.106  0.00  0.00    -0.020 A 
ATOM      7  C   LIG    1        0.545   1.064  -7.024  0.00  0.00    +0.050 A 
ATOM      8  C   LIG    1        0.776   0.906  -8.374  0.00  0.00    +0.030 A 
ATOM      9  C   LIG    1        1.650  -0.071  -8.821  0.00  0.00    -0.020 A 
ATOM     10  C   LIG    1        2.300  -0.893  -7.915  0.00  0.00    +0.030 A 
ATOM     11 CL   LIG    1        1.930  -0.268 -10.523  0.00  0.00    -0.060 Cl
ATOM     12  C   LIG    1        2.081  -0.742  -6.562  0.00  0.00    +0.090 A 
ENDBRANCH   5   6
BRANCH   1  16
ATOM     13  C   LIG    1       -3.125   3.185  -6.012  0.00  0.00    +0.150 A 
ATOM     14  C   LIG    1       -2.197   3.875  -5.245  0.00  0.00    +0.010 A 
ATOM     15  C   LIG    1       -1.185   3.189  -4.603  0.00  0.00    +0.080 A 
ATOM     16  C   LIG    1       -1.096   1.809  -4.725  0.00  0.00    +0.050 A 
ATOM     17  C   LIG    1       -2.021   1.120  -5.497  0.00  0.00    +0.090 A 
ATOM     18  C   LIG    1       -3.037   1.806  -6.134  0.00  0.00    -0.060 A 
BRANCH  13  20
ATOM     19  C   LIG    1       -5.041   3.087  -7.416  0.00  0.00    +0.250 C 
ATOM     20  O   LIG    1       -4.121   3.861  -6.644  0.00  0.00    -0.310 OA
ENDBRANCH  13  20
ENDBRANCH   1  16
BRANCH   2  21
ATOM     21  S   LIG    1       -0.888   1.685  -1.458  0.00  0.00    +0.080 S 
BRANCH  21  22
ATOM     22  C   LIG    1       -0.013   1.086   0.008  0.00  0.00    +0.100 C 
BRANCH  22  23
ATOM     23  C   LIG    1       -0.718   1.572   1.248  0.00  0.00    +0.420 C 
ATOM     24  O   LIG    1       -1.714   2.256   1.150  0.00  0.00    -0.430 OA
BRANCH  23  25
ATOM     25  C   LIG    1       -0.198   1.216   2.576  0.00  0.00    -0.180 A 
ATOM     26  C   LIG    1        0.948   0.422   2.693  0.00  0.00    +0.110 A 
ATOM     27  C   LIG    1        1.432   0.096   3.941  0.00  0.00    -0.020 A 
ATOM     28  C   LIG    1        0.780   0.545   5.080  0.00  0.00    +0.140 A 
ATOM     29  C   LIG    1       -0.359   1.329   4.971  0.00  0.00    -0.020 A 
ATOM     30  F   LIG    1        1.258   0.218   6.301  0.00  0.00    -0.130 F 
ATOM     31  C   LIG    1       -0.851   1.666   3.730  0.00  0.00    +0.120 A 
ENDBRANCH  23  25
ENDBRANCH  22  23
ENDBRANCH  21  22
ENDBRANCH   2  21
TORSDOF 7
