REMARK  Name = ZINCrH000004qzSz.0
REMARK                            x       y       z     vdW  Elec       q    Type
REMARK                         _______ _______ _______ _____ _____    ______ ____
ROOT
ATOM      1  N   LIG    1       -3.914   6.724   0.075  0.00  0.00    -0.600 N 
ATOM      2  H   LIG    1       -4.341   5.853   0.074  0.00  0.00    +0.440 HD
ATOM      3  C   LIG    1       -2.570   6.816   0.063  0.00  0.00    +0.620 C 
ATOM      4  O   LIG    1       -2.036   7.908   0.064  0.00  0.00    -0.470 OA
ENDROOT
BRANCH   3   5
ATOM      5  C   LIG    1       -1.743   5.588   0.049  0.00  0.00    +0.240 A 
ATOM      6  N   LIG    1       -0.424   5.556   0.036  0.00  0.00    -0.250 NA
ATOM      7  N   LIG    1       -0.049   4.206   0.025  0.00  0.00    -0.330 N 
ATOM      8  C   LIG    1        1.157   3.573   0.010  0.00  0.00    +0.210 A 
ATOM      9  C   LIG    1        1.188   2.216   0.003  0.00  0.00    -0.030 A 
ATOM     10  C   LIG    1       -0.018   1.503   0.010  0.00  0.00    +0.240 A 
ATOM     11  N   LIG    1       -1.166   2.140   0.019  0.00  0.00    -0.460 NA
ATOM     12  C   LIG    1        0.002  -0.004   0.002  0.00  0.00    +0.170 C 
ATOM     13  C   LIG    1        2.437   4.367   0.002  0.00  0.00    +0.180 C 
ATOM     14  C   LIG    1       -1.209   3.479   0.032  0.00  0.00    +0.460 A 
ATOM     15  N   LIG    1       -2.216   4.340   0.046  0.00  0.00    -0.500 NA
ENDBRANCH   3   5
BRANCH   1  19
ATOM     16  C   LIG    1       -6.559   9.102   0.113  0.00  0.00    +0.130 A 
ATOM     17  C   LIG    1       -5.712  10.148   0.112  0.00  0.00    -0.110 A 
ATOM     18  S   LIG    1       -4.065   9.523   0.100  0.00  0.00    +0.210 S 
ATOM     19  C   LIG    1       -4.689   7.876   0.089  0.00  0.00    +0.270 A 
ATOM     20  N   LIG    1       -5.985   7.907   0.101  0.00  0.00    -0.490 NA
BRANCH  16  25
ATOM     21  C   LIG    1      -12.278   9.773   0.171  0.00  0.00    +0.090 C 
ATOM     22  C   LIG    1      -10.781   9.597   0.156  0.00  0.00    -0.080 A 
ATOM     23  C   LIG    1       -9.959  10.704   0.051  0.00  0.00    +0.010 A 
ATOM     24  C   LIG    1       -8.587  10.550   0.037  0.00  0.00    +0.020 A 
ATOM     25  C   LIG    1       -8.032   9.275   0.129  0.00  0.00    -0.030 A 
ATOM     26  C   LIG    1       -8.866   8.162   0.228  0.00  0.00    +0.050 A 
ATOM     27  C   LIG    1      -10.235   8.329   0.246  0.00  0.00    -0.090 A 
ATOM     28  C   LIG    1      -11.138   7.128   0.360  0.00  0.00    +0.090 C 
ENDBRANCH  16  25
ENDBRANCH   1  19
TORSDOF 3
