REMARK  Name = ZINCrD00000l7swp.0
REMARK                            x       y       z     vdW  Elec       q    Type
REMARK                         _______ _______ _______ _____ _____    ______ ____
ROOT
ATOM      1  C   LIG    1        0.519   0.812  -0.200  0.00  0.00    +0.090 C 
ENDROOT
BRANCH   1  11
ATOM      2  C   LIG    1        1.490  -2.087  -2.528  0.00  0.00    +0.310 C 
ATOM      3  C   LIG    1        0.530  -3.244  -2.641  0.00  0.00    +0.010 A 
ATOM      4  C   LIG    1        0.395  -4.098  -3.667  0.00  0.00    -0.040 A 
ATOM      5  C   LIG    1       -0.620  -5.014  -3.318  0.00  0.00    -0.060 A 
ATOM      6  C   LIG    1       -1.064  -4.678  -2.089  0.00  0.00    +0.150 A 
ATOM      7  N   LIG    1       -0.366  -3.589  -1.666  0.00  0.00    -0.450 N 
ATOM      8  C   LIG    1       -0.525  -2.881  -0.392  0.00  0.00    +0.270 C 
ATOM      9  C   LIG    1        0.727  -2.041  -0.121  0.00  0.00    +0.290 C 
ATOM     10  N   LIG    1        1.093  -1.306  -1.341  0.00  0.00    -0.610 N 
ATOM     11  C   LIG    1        1.060   0.041  -1.376  0.00  0.00    +0.520 C 
ATOM     12  O   LIG    1        1.466   0.632  -2.354  0.00  0.00    -0.520 OA
BRANCH   2  14
ATOM     13  C   LIG    1       -0.027  -0.694  -3.942  0.00  0.00    +0.020 C 
ATOM     14  C   LIG    1        1.403  -1.213  -3.781  0.00  0.00    +0.040 C 
ENDBRANCH   2  14
ENDBRANCH   1  11
BRANCH   1  15
ATOM     15  C   LIG    1        0.595   2.311  -0.494  0.00  0.00    +0.160 C 
BRANCH  15  16
ATOM     16  C   LIG    1        0.054   3.083   0.682  0.00  0.00    +0.440 A 
ATOM     17  N   LIG    1       -0.376   2.421   1.720  0.00  0.00    -0.580 NA
ATOM     18  C   LIG    1       -0.868   3.052   2.798  0.00  0.00    +0.550 A 
ATOM     19  C   LIG    1       -0.920   4.527   2.796  0.00  0.00    -0.220 A 
ATOM     20  C   LIG    1       -0.450   5.177   1.666  0.00  0.00    +0.050 A 
ATOM     21  S   LIG    1       -0.602   6.915   1.874  0.00  0.00    +0.170 S 
ATOM     22  C   LIG    1       -1.294   6.729   3.474  0.00  0.00    -0.200 A 
ATOM     23  C   LIG    1       -1.720   7.874   4.357  0.00  0.00    +0.150 C 
ATOM     24  C   LIG    1       -1.393   5.455   3.805  0.00  0.00    -0.040 A 
ATOM     25  C   LIG    1       -1.954   5.000   5.127  0.00  0.00    +0.130 C 
ATOM     26  O   LIG    1       -1.267   2.417   3.762  0.00  0.00    -0.490 OA
ATOM     27  N   LIG    1        0.039   4.423   0.621  0.00  0.00    -0.590 N 
ATOM     28  H   LIG    1        0.374   4.869  -0.172  0.00  0.00    +0.420 HD
ENDBRANCH  15  16
ENDBRANCH   1  15
TORSDOF 4
