REMARK  Name = ZINCpe000000XMiD.0
REMARK                            x       y       z     vdW  Elec       q    Type
REMARK                         _______ _______ _______ _____ _____    ______ ____
ROOT
ATOM      1  C   LIG    1        0.000   1.080   2.488  0.00  0.00    +0.520 C 
ATOM      2  N   LIG    1       -0.453   1.393   3.718  0.00  0.00    -0.720 N 
ATOM      3  H   LIG    1       -1.248   1.939   3.817  0.00  0.00    +0.410 HD
ATOM      4  O   LIG    1        0.994   0.397   2.363  0.00  0.00    -0.540 OA
ENDROOT
BRANCH   1   5
ATOM      5  C   LIG    1       -0.729   1.579   1.267  0.00  0.00    +0.070 C 
BRANCH   5   6
ATOM      6  C   LIG    1       -0.013   1.086   0.008  0.00  0.00    +0.100 C 
BRANCH   6  11
ATOM      7  C   LIG    1       -2.807   2.999  -4.674  0.00  0.00    +0.090 C 
ATOM      8  C   LIG    1       -2.078   2.501  -3.453  0.00  0.00    -0.090 A 
ATOM      9  C   LIG    1       -1.066   3.259  -2.894  0.00  0.00    +0.000 A 
ATOM     10  C   LIG    1       -0.398   2.801  -1.774  0.00  0.00    +0.010 A 
ATOM     11  C   LIG    1       -0.742   1.585  -1.213  0.00  0.00    -0.090 A 
ATOM     12  C   LIG    1       -1.750   0.825  -1.775  0.00  0.00    +0.010 A 
ATOM     13  C   LIG    1       -2.422   1.285  -2.892  0.00  0.00    +0.000 A 
ENDBRANCH   6  11
ENDBRANCH   5   6
ENDBRANCH   1   5
BRANCH   2  14
ATOM     14  C   LIG    1        0.256   0.907   4.905  0.00  0.00    +0.300 C 
BRANCH  14  15
ATOM     15  C   LIG    1       -0.450   1.393   6.145  0.00  0.00    +0.510 C 
ATOM     16  N   LIG    1        0.027   1.068   7.362  0.00  0.00    -0.610 N 
ATOM     17  C   LIG    1        1.229   0.234   7.485  0.00  0.00    +0.280 C 
ATOM     18  C   LIG    1        2.282   1.023   8.282  0.00  0.00    +0.290 C 
ATOM     19  N   LIG    1        1.628   1.586   9.474  0.00  0.00    -0.620 N 
ATOM     20  C   LIG    1        2.124   1.512  10.725  0.00  0.00    +0.520 C 
ATOM     21  C   LIG    1        1.171   2.157  11.706  0.00  0.00    +0.070 C 
ATOM     22  C   LIG    1       -0.167   2.277  10.924  0.00  0.00    +0.070 C 
ATOM     23  O   LIG    1        3.182   0.999  11.022  0.00  0.00    -0.530 OA
ATOM     24  C   LIG    1        0.333   2.275   9.467  0.00  0.00    +0.210 C 
ATOM     25  C   LIG    1       -0.657   1.538   8.571  0.00  0.00    +0.290 C 
ATOM     26  O   LIG    1       -1.446   2.078   6.046  0.00  0.00    -0.530 OA
ENDBRANCH  14  15
ENDBRANCH   2  14
TORSDOF 5
