REMARK  Name = ZINCqH0000032xOA.0
REMARK                            x       y       z     vdW  Elec       q    Type
REMARK                         _______ _______ _______ _____ _____    ______ ____
ROOT
ATOM      1  C   LIG    1       -7.131   3.452   1.334  0.00  0.00    +0.580 C 
ATOM      2  N   LIG    1       -7.273   4.793   1.342  0.00  0.00    -0.620 N 
ATOM      3  H   LIG    1       -6.489   5.364   1.338  0.00  0.00    +0.420 HD
ATOM      4  O   LIG    1       -8.114   2.737   1.339  0.00  0.00    -0.500 OA
ENDROOT
BRANCH   1  10
ATOM      5  N   LIG    1       -2.103   1.072   1.277  0.00  0.00    -0.380 N 
ATOM      6  N   LIG    1       -2.467  -0.278   1.267  0.00  0.00    -0.230 NA
ATOM      7  C   LIG    1       -3.764  -0.392   1.284  0.00  0.00    +0.310 A 
ATOM      8  C   LIG    1       -4.326   0.955   1.297  0.00  0.00    -0.240 A 
ATOM      9  C   LIG    1       -5.625   1.466   1.311  0.00  0.00    +0.250 A 
ATOM     10  C   LIG    1       -5.782   2.853   1.320  0.00  0.00    -0.240 A 
ATOM     11  C   LIG    1       -4.643   3.670   1.314  0.00  0.00    +0.380 A 
ATOM     12  N   LIG    1       -3.435   3.157   1.301  0.00  0.00    -0.500 NA
ATOM     13  C   LIG    1       -3.231   1.844   1.292  0.00  0.00    +0.340 A 
BRANCH   5  15
ATOM     14  C   LIG    1       -0.013   1.086   0.008  0.00  0.00    +0.050 C 
ATOM     15  C   LIG    1       -0.729   1.579   1.267  0.00  0.00    +0.270 C 
ATOM     16  C   LIG    1        0.011   1.072   2.506  0.00  0.00    +0.050 C 
ENDBRANCH   5  15
ENDBRANCH   1  10
BRANCH   2  17
ATOM     17  C   LIG    1       -8.542   5.356   1.355  0.00  0.00    +0.280 A 
ATOM     18  N   LIG    1       -8.797   6.628   1.364  0.00  0.00    -0.500 NA
ATOM     19  C   LIG    1      -10.074   6.985   1.375  0.00  0.00    +0.130 A 
ATOM     20  C   LIG    1      -10.957   5.970   1.377  0.00  0.00    -0.110 A 
ATOM     21  S   LIG    1      -10.056   4.456   1.356  0.00  0.00    +0.220 S 
BRANCH  19  22
ATOM     22  C   LIG    1      -10.499   8.406   1.385  0.00  0.00    -0.070 A 
ATOM     23  C   LIG    1       -9.550   9.431   1.383  0.00  0.00    +0.090 A 
ATOM     24  C   LIG    1       -9.998  10.741   1.393  0.00  0.00    -0.030 A 
ATOM     25  C   LIG    1      -11.358  10.991   1.405  0.00  0.00    +0.260 A 
ATOM     26  N   LIG    1      -12.231  10.002   1.406  0.00  0.00    -0.480 NA
ATOM     27  C   LIG    1      -11.853   8.740   1.391  0.00  0.00    +0.280 A 
ENDBRANCH  19  22
ENDBRANCH   2  17
TORSDOF 4
