REMARK  Name = ZINCrH000004jZuO.2
REMARK                            x       y       z     vdW  Elec       q    Type
REMARK                         _______ _______ _______ _____ _____    ______ ____
ROOT
ATOM      1  C   LIG    1       -1.231   3.074   0.181  0.00  0.00    -0.080 A 
ATOM      2  C   LIG    1       -1.197   1.710  -0.052  0.00  0.00    +0.040 A 
ATOM      3  C   LIG    1        0.011   1.068  -0.261  0.00  0.00    +0.010 A 
ATOM      4  C   LIG    1        1.189   1.785  -0.247  0.00  0.00    +0.040 A 
ATOM      5  C   LIG    1        1.161   3.162  -0.017  0.00  0.00    -0.130 A 
ATOM      6  C   LIG    1       -0.060   3.803   0.198  0.00  0.00    +0.090 A 
ENDROOT
BRANCH   5   7
ATOM      7  C   LIG    1        2.420   3.937  -0.001  0.00  0.00    +0.570 C 
ATOM      8  N   LIG    1        3.496   3.462   0.656  0.00  0.00    -0.620 N 
ATOM      9  C   LIG    1        4.735   4.248   0.748  0.00  0.00    +0.300 C 
ATOM     10  C   LIG    1        4.996   4.600   2.222  0.00  0.00    +0.270 C 
ATOM     11  N   LIG    1        4.813   3.399   3.045  0.00  0.00    -0.440 N 
ATOM     12  C   LIG    1        5.278   3.195   4.308  0.00  0.00    +0.150 A 
ATOM     13  C   LIG    1        4.883   1.969   4.710  0.00  0.00    -0.060 A 
ATOM     14  C   LIG    1        4.147   1.392   3.653  0.00  0.00    -0.040 A 
ATOM     15  C   LIG    1        4.125   2.284   2.651  0.00  0.00    -0.010 A 
ATOM     16  C   LIG    1        3.469   2.134   1.298  0.00  0.00    +0.370 C 
ATOM     17  O   LIG    1        2.484   5.004  -0.580  0.00  0.00    -0.520 OA
ENDBRANCH   5   7
BRANCH   1  18
ATOM     18  C   LIG    1       -2.550   3.764   0.412  0.00  0.00    +0.230 C 
BRANCH  18  20
ATOM     19  C   LIG    1       -3.449   3.069  -1.726  0.00  0.00    +0.190 C 
ATOM     20  N   LIG    1       -3.100   4.213  -0.874  0.00  0.00    -0.530 NA
BRANCH  20  21
ATOM     21  C   LIG    1       -4.259   5.093  -0.672  0.00  0.00    +0.220 C 
BRANCH  21  22
ATOM     22  C   LIG    1       -4.643   5.727  -1.985  0.00  0.00    -0.080 A 
ATOM     23  C   LIG    1       -4.088   6.937  -2.356  0.00  0.00    +0.020 A 
ATOM     24  C   LIG    1       -4.436   7.516  -3.562  0.00  0.00    +0.000 A 
ATOM     25  C   LIG    1       -5.347   6.890  -4.392  0.00  0.00    +0.000 A 
ATOM     26  C   LIG    1       -5.906   5.682  -4.018  0.00  0.00    +0.000 A 
ATOM     27  C   LIG    1       -5.554   5.100  -2.814  0.00  0.00    +0.010 A 
ENDBRANCH  21  22
ENDBRANCH  20  21
ENDBRANCH  18  20
ENDBRANCH   1  18
TORSDOF 5
