REMARK  Name = ZINCqH0000038KV2.0
REMARK                            x       y       z     vdW  Elec       q    Type
REMARK                         _______ _______ _______ _____ _____    ______ ____
ROOT
ATOM      1  N   LIG    1        9.463   1.099   0.382  0.00  0.00    -0.730 N 
ATOM      2  H   LIG    1        9.439   0.133   0.302  0.00  0.00    +0.400 HD
ATOM      3  C   LIG    1        8.321   1.811   0.302  0.00  0.00    +0.720 C 
ATOM      4  N   LIG    1        7.146   1.179   0.110  0.00  0.00    -0.660 N 
ATOM      5  H   LIG    1        7.128   0.219  -0.025  0.00  0.00    +0.410 HD
ATOM      6  O   LIG    1        8.351   3.022   0.403  0.00  0.00    -0.560 OA
ENDROOT
BRANCH   4   7
ATOM      7  C   LIG    1        5.956   1.906   0.106  0.00  0.00    +0.410 A 
ATOM      8  C   LIG    1        5.999   3.294   0.082  0.00  0.00    -0.060 A 
ATOM      9  C   LIG    1        4.812   4.009   0.079  0.00  0.00    +0.120 A 
ATOM     10  C   LIG    1        3.617   3.309   0.099  0.00  0.00    -0.120 A 
ATOM     11  C   LIG    1        3.645   1.919   0.122  0.00  0.00    +0.410 A 
ATOM     12  N   LIG    1        4.797   1.266   0.130  0.00  0.00    -0.560 NA
BRANCH  11  13
ATOM     13  N   LIG    1        2.450   1.207   0.142  0.00  0.00    -0.660 N 
ATOM     14  H   LIG    1        1.603   1.681   0.154  0.00  0.00    +0.420 HD
BRANCH  13  15
ATOM     15  C   LIG    1        2.469  -0.190   0.146  0.00  0.00    +0.170 A 
ATOM     16  C   LIG    1        1.474  -0.898   0.807  0.00  0.00    -0.040 A 
ATOM     17  C   LIG    1        1.498  -2.279   0.814  0.00  0.00    +0.020 A 
ATOM     18  C   LIG    1        2.507  -2.957   0.154  0.00  0.00    -0.030 A 
ATOM     19  C   LIG    1        3.500  -2.255  -0.505  0.00  0.00    +0.020 A 
ATOM     20  C   LIG    1        3.484  -0.874  -0.511  0.00  0.00    +0.020 A 
ENDBRANCH  13  15
ENDBRANCH  11  13
ENDBRANCH   4   7
BRANCH   1  21
ATOM     21  C   LIG    1       10.740   1.786   0.591  0.00  0.00    +0.340 C 
ATOM     22  C   LIG    1       10.954   2.021   2.088  0.00  0.00    +0.040 C 
BRANCH  21  29
ATOM     23  C   LIG    1       13.639   2.802  -0.189  0.00  0.00    +0.160 C 
ATOM     24  C   LIG    1       13.141   1.383  -0.293  0.00  0.00    +0.090 A 
ATOM     25  N   LIG    1       13.831   0.358  -0.722  0.00  0.00    -0.290 NA
ATOM     26  N   LIG    1       13.011  -0.776  -0.663  0.00  0.00    -0.370 N 
ATOM     27  C   LIG    1       11.810  -0.396  -0.181  0.00  0.00    +0.230 A 
ATOM     28  C   LIG    1       13.393  -2.136  -1.052  0.00  0.00    +0.360 C 
ATOM     29  C   LIG    1       11.861   0.936   0.051  0.00  0.00    -0.250 A 
ENDBRANCH  21  29
ENDBRANCH   1  21
TORSDOF 5
