REMARK  Name = ZINCrg000000pKVW.0
REMARK                            x       y       z     vdW  Elec       q    Type
REMARK                         _______ _______ _______ _____ _____    ______ ____
ROOT
ATOM      1  C   LIG    1       -0.898   3.118  -1.144  0.00  0.00    +0.010 C 
ATOM      2  C   LIG    1       -0.759   1.596  -1.228  0.00  0.00    +0.060 C 
ATOM      3  C   LIG    1       -0.013   1.086   0.008  0.00  0.00    +0.290 C 
ATOM      4  N   LIG    1       -0.706   1.562   1.213  0.00  0.00    -0.990 NA
ATOM      5  C   LIG    1       -0.975   3.001   1.350  0.00  0.00    +0.300 C 
ATOM      6  C   LIG    1       -1.711   3.490   0.099  0.00  0.00    +0.050 C 
ENDROOT
BRANCH   1   9
ATOM      7  N   LIG    1       -1.836   4.946  -2.520  0.00  0.00    -0.710 N 
ATOM      8  H   LIG    1       -1.552   5.568  -1.832  0.00  0.00    +0.410 HD
ATOM      9  C   LIG    1       -1.602   3.627  -2.375  0.00  0.00    +0.530 C 
ATOM     10  O   LIG    1       -1.958   2.850  -3.235  0.00  0.00    -0.530 OA
BRANCH   7  11
ATOM     11  CA  LIG    1       -2.521   5.441  -3.717  0.00  0.00    +0.300 C 
BRANCH  11  12
ATOM     12  C   LIG    1       -2.137   6.879  -3.957  0.00  0.00    +0.470 C 
ATOM     13  O   LIG    1       -1.371   7.433  -3.205  0.00  0.00    -0.500 OA
BRANCH  12  15
ATOM     14  C   LIG    1       -2.233   8.925  -5.174  0.00  0.00    +0.290 C 
ATOM     15  O   LIG    1       -2.647   7.544  -5.005  0.00  0.00    -0.350 OA
ENDBRANCH  12  15
ENDBRANCH  11  12
BRANCH  11  16
ATOM     16  C   LIG    1       -4.034   5.344  -3.516  0.00  0.00    +0.210 C 
BRANCH  16  17
ATOM     17  O   LIG    1       -4.432   6.223  -2.462  0.00  0.00    -0.570 OA
ATOM     18  H   LIG    1       -5.382   6.213  -2.280  0.00  0.00    +0.390 HD
ENDBRANCH  16  17
ENDBRANCH  11  16
ENDBRANCH   7  11
ENDBRANCH   1   9
BRANCH   4  19
ATOM     19  S   LIG    1       -1.179   0.499   2.390  0.00  0.00    +2.690 S 
ATOM     20  O   LIG    1       -1.299  -0.770   1.761  0.00  0.00    -0.930 OA
ATOM     21  O   LIG    1       -2.247   1.123   3.090  0.00  0.00    -0.940 OA
BRANCH  19  22
ATOM     22  C   LIG    1        0.153   0.362   3.535  0.00  0.00    -0.660 A 
ATOM     23  C   LIG    1       -0.005   0.802   4.836  0.00  0.00    +0.160 A 
ATOM     24  C   LIG    1        1.041   0.694   5.735  0.00  0.00    -0.050 A 
ATOM     25  C   LIG    1        2.246   0.146   5.332  0.00  0.00    +0.110 A 
ATOM     26  C   LIG    1        2.404  -0.293   4.031  0.00  0.00    +0.050 A 
ATOM     27 CL   LIG    1        0.842   1.246   7.369  0.00  0.00    -0.040 Cl
ATOM     28  C   LIG    1        1.357  -0.191   3.134  0.00  0.00    +0.050 A 
ATOM     29 CL   LIG    1        1.554  -0.750   1.502  0.00  0.00    -0.030 Cl
ENDBRANCH  19  22
ENDBRANCH   4  19
TORSDOF 8
