REMARK  Name = ZINCqH0000008w80.0
REMARK                            x       y       z     vdW  Elec       q    Type
REMARK                         _______ _______ _______ _____ _____    ______ ____
ROOT
ATOM      1  C   LIG    1       -0.732   2.015  -1.918  0.00  0.00    +0.090 C 
ATOM      2  C   LIG    1       -0.193   1.685  -0.524  0.00  0.00    -0.010 C 
ENDROOT
BRANCH   2   3
ATOM      3  C   LIG    1       -0.992   2.431   0.513  0.00  0.00    +0.540 C 
ATOM      4  N   LIG    1       -2.145   1.913   0.978  0.00  0.00    -0.600 N 
ATOM      5  C   LIG    1       -2.624   0.623   0.474  0.00  0.00    +0.300 C 
ATOM      6  O   LIG    1       -0.596   3.499   0.930  0.00  0.00    -0.520 OA
BRANCH   4   7
ATOM      7  C   LIG    1       -2.921   2.639   1.986  0.00  0.00    +0.350 C 
BRANCH   7   8
ATOM      8  C   LIG    1       -3.902   3.555   1.301  0.00  0.00    -0.080 A 
ATOM      9  C   LIG    1       -3.537   4.851   0.992  0.00  0.00    +0.030 A 
ATOM     10  C   LIG    1       -4.434   5.692   0.359  0.00  0.00    +0.040 A 
ATOM     11  C   LIG    1       -5.701   5.239   0.045  0.00  0.00    -0.010 A 
ATOM     12  C   LIG    1       -6.071   3.942   0.360  0.00  0.00    +0.100 A 
ATOM     13  F   LIG    1       -7.309   3.499   0.053  0.00  0.00    -0.140 F 
ATOM     14  C   LIG    1       -5.170   3.100   0.988  0.00  0.00    -0.010 A 
ENDBRANCH   7   8
ENDBRANCH   4   7
ENDBRANCH   2   3
BRANCH   2  15
ATOM     15  S   LIG    1        1.545   2.177  -0.418  0.00  0.00    +0.080 S 
BRANCH  15  16
ATOM     16  C   LIG    1        2.248   1.074  -1.598  0.00  0.00    +0.140 A 
ATOM     17  N   LIG    1        1.606   0.173  -2.305  0.00  0.00    -0.290 NA
ATOM     18  N   LIG    1        2.429  -0.452  -3.068  0.00  0.00    -0.280 NA
ATOM     19  C   LIG    1        3.638   0.002  -2.890  0.00  0.00    +0.230 A 
ATOM     20  N   LIG    1        3.566   0.990  -1.947  0.00  0.00    -0.430 N 
BRANCH  19  21
ATOM     21  C   LIG    1        4.883  -0.474  -3.592  0.00  0.00    +0.040 C 
ATOM     22  C   LIG    1        4.708  -1.452  -4.756  0.00  0.00    +0.070 C 
ATOM     23  C   LIG    1        5.272  -1.944  -3.421  0.00  0.00    +0.050 C 
ENDBRANCH  19  21
BRANCH  20  24
ATOM     24  C   LIG    1        4.673   1.792  -1.421  0.00  0.00    +0.200 C 
ATOM     25  C   LIG    1        4.436   2.553  -0.114  0.00  0.00    +0.070 C 
ATOM     26  C   LIG    1        4.514   3.314  -1.439  0.00  0.00    +0.060 C 
ENDBRANCH  20  24
ENDBRANCH  15  16
ENDBRANCH   2  15
TORSDOF 7
