REMARK  Name = ZINCqH0000033K3k.0
REMARK                            x       y       z     vdW  Elec       q    Type
REMARK                         _______ _______ _______ _____ _____    ______ ____
ROOT
ATOM      1  N   LIG    1       -0.921   1.701  -5.935  0.00  0.00    -0.650 N 
ATOM      2  H   LIG    1       -0.802   1.200  -6.757  0.00  0.00    +0.420 HD
ATOM      3  C   LIG    1       -1.681   2.814  -5.928  0.00  0.00    +0.560 C 
ATOM      4  O   LIG    1       -1.749   3.498  -4.925  0.00  0.00    -0.510 OA
ENDROOT
BRANCH   3   5
ATOM      5  C   LIG    1       -2.428   3.204  -7.138  0.00  0.00    -0.100 A 
ATOM      6  C   LIG    1       -2.345   2.421  -8.293  0.00  0.00    +0.050 A 
ATOM      7  C   LIG    1       -3.049   2.785  -9.419  0.00  0.00    +0.090 A 
ATOM      8  C   LIG    1       -3.833   3.932  -9.411  0.00  0.00    -0.110 A 
ATOM      9  S   LIG    1       -4.733   4.398 -10.856  0.00  0.00    -0.060 S 
ATOM     10  C   LIG    1       -6.179   5.234 -10.139  0.00  0.00    +0.150 C 
ATOM     11  C   LIG    1       -5.718   6.157  -9.045  0.00  0.00    +0.520 C 
ATOM     12  N   LIG    1       -4.695   5.885  -8.238  0.00  0.00    -0.660 N 
ATOM     13  H   LIG    1       -4.469   6.553  -7.572  0.00  0.00    +0.420 HD
ATOM     14  O   LIG    1       -6.309   7.205  -8.891  0.00  0.00    -0.510 OA
ATOM     15  C   LIG    1       -3.920   4.728  -8.264  0.00  0.00    +0.150 A 
ATOM     16  C   LIG    1       -3.215   4.358  -7.130  0.00  0.00    +0.080 A 
ENDBRANCH   3   5
BRANCH   1  21
ATOM     17  C   LIG    1       -0.219   1.191  -2.357  0.00  0.00    +0.120 A 
ATOM     18  C   LIG    1        0.921   0.405  -2.422  0.00  0.00    -0.060 A 
ATOM     19  C   LIG    1        1.450   0.048  -3.649  0.00  0.00    -0.010 A 
ATOM     20  C   LIG    1        0.842   0.476  -4.817  0.00  0.00    +0.070 A 
ATOM     21  C   LIG    1       -0.304   1.267  -4.755  0.00  0.00    +0.160 A 
ATOM     22  C   LIG    1       -0.835   1.619  -3.524  0.00  0.00    +0.030 A 
BRANCH  17  23
ATOM     23  O   LIG    1       -0.737   1.540  -1.149  0.00  0.00    -0.310 OA
BRANCH  23  25
ATOM     24  C   LIG    1       -0.778   1.550   1.267  0.00  0.00    +0.070 C 
ATOM     25  C   LIG    1       -0.055   1.060   0.012  0.00  0.00    +0.170 C 
ENDBRANCH  23  25
ENDBRANCH  17  23
BRANCH  20  26
ATOM     26  O   LIG    1        1.362   0.125  -6.024  0.00  0.00    -0.320 OA
BRANCH  26  27
ATOM     27  C   LIG    1        2.538  -0.688  -6.011  0.00  0.00    +0.180 C 
ATOM     28  C   LIG    1        2.972  -0.978  -7.449  0.00  0.00    +0.070 C 
ENDBRANCH  26  27
ENDBRANCH  20  26
ENDBRANCH   1  21
TORSDOF 6
