REMARK  Name = ZINCrD000006QxcI.0
REMARK                            x       y       z     vdW  Elec       q    Type
REMARK                         _______ _______ _______ _____ _____    ______ ____
ROOT
ATOM      1  N   LIG    1        0.499  12.251  -0.624  0.00  0.00    -0.480 N 
ATOM      2  C   LIG    1       -0.959  12.134  -0.759  0.00  0.00    +0.190 C 
ATOM      3  C   LIG    1       -1.489  11.154   0.292  0.00  0.00    +0.300 C 
ATOM      4  N   LIG    1       -0.749   9.889   0.166  0.00  0.00    -0.600 N 
ATOM      5  C   LIG    1        0.721   9.939   0.161  0.00  0.00    +0.290 C 
ATOM      6  C   LIG    1       -1.401   8.713   0.063  0.00  0.00    +0.600 C 
ATOM      7  O   LIG    1       -2.611   8.698  -0.047  0.00  0.00    -0.520 OA
ATOM      8  C   LIG    1        1.164  10.969  -0.891  0.00  0.00    +0.190 C 
ENDROOT
BRANCH   1  12
ATOM      9  C   LIG    1        1.994  15.252  -3.101  0.00  0.00    +0.100 A 
ATOM     10  C   LIG    1        2.858  14.523  -2.296  0.00  0.00    +0.000 A 
ATOM     11  C   LIG    1        2.363  13.529  -1.475  0.00  0.00    +0.030 A 
ATOM     12  C   LIG    1        1.001  13.258  -1.455  0.00  0.00    +0.070 A 
ATOM     13  C   LIG    1        0.138  13.985  -2.265  0.00  0.00    +0.000 A 
ATOM     14  C   LIG    1        0.634  14.982  -3.082  0.00  0.00    -0.050 A 
BRANCH   9  16
ATOM     15  C   LIG    1        1.536  16.941  -4.711  0.00  0.00    +0.240 C 
ATOM     16  O   LIG    1        2.482  16.231  -3.909  0.00  0.00    -0.320 OA
ENDBRANCH   9  16
ENDBRANCH   1  12
BRANCH   6  17
ATOM     17  C   LIG    1       -0.642   7.439   0.084  0.00  0.00    -0.020 A 
ATOM     18  N   LIG    1        0.640   7.293   0.315  0.00  0.00    -0.330 NA
ATOM     19  O   LIG    1        0.975   6.132   0.266  0.00  0.00    +0.120 OA
ATOM     20  C   LIG    1       -0.065   5.326  -0.011  0.00  0.00    +0.030 A 
ATOM     21  C   LIG    1       -1.157   6.138  -0.147  0.00  0.00    +0.010 A 
BRANCH  20  22
ATOM     22  C   LIG    1       -0.033   3.854  -0.149  0.00  0.00    -0.030 A 
ATOM     23  C   LIG    1        1.167   3.161   0.014  0.00  0.00    +0.040 A 
ATOM     24  C   LIG    1        1.190   1.788  -0.115  0.00  0.00    +0.010 A 
ATOM     25  C   LIG    1        0.027   1.097  -0.405  0.00  0.00    +0.030 A 
ATOM     26  C   LIG    1       -1.166   1.779  -0.572  0.00  0.00    +0.010 A 
ATOM     27  C   LIG    1       -1.203   3.152  -0.441  0.00  0.00    +0.040 A 
ENDBRANCH  20  22
ENDBRANCH   6  17
TORSDOF 4
