REMARK  Name = ZINCpe000000TvMN.0
REMARK                            x       y       z     vdW  Elec       q    Type
REMARK                         _______ _______ _______ _____ _____    ______ ____
ROOT
ATOM      1  N   LIG    1        0.015  -0.144  -0.111  0.00  0.00    -0.570 N 
ATOM      2  C   LIG    1       -0.145  -0.571  -1.379  0.00  0.00    +0.590 C 
ATOM      3  O   LIG    1       -0.166   0.232  -2.293  0.00  0.00    -0.510 OA
ENDROOT
BRANCH   2   4
ATOM      4  C   LIG    1       -0.293  -2.004  -1.657  0.00  0.00    +0.100 C 
ATOM      5  N   LIG    1       -0.181  -2.859  -0.688  0.00  0.00    -0.230 NA
ATOM      6  N   LIG    1       -0.319  -4.232  -0.915  0.00  0.00    -0.460 N 
ATOM      7  C   LIG    1       -0.177  -4.734  -2.158  0.00  0.00    +0.500 C 
ATOM      8  C   LIG    1        0.121  -3.807  -3.309  0.00  0.00    +0.090 C 
ATOM      9  O   LIG    1       -0.287  -5.926  -2.349  0.00  0.00    -0.510 OA
ATOM     10  C   LIG    1       -0.614  -5.130   0.204  0.00  0.00    +0.330 C 
ATOM     11  C   LIG    1       -0.566  -2.463  -3.065  0.00  0.00    +0.110 C 
ENDBRANCH   2   4
BRANCH   1  13
ATOM     12  C   LIG    1        1.484   1.783   0.220  0.00  0.00    +0.020 C 
ATOM     13  C   LIG    1        0.036   1.292   0.182  0.00  0.00    +0.280 C 
ENDBRANCH   1  13
BRANCH   1  14
ATOM     14  C   LIG    1        0.167  -1.115   0.976  0.00  0.00    +0.400 C 
BRANCH  14  15
ATOM     15  C   LIG    1       -1.193  -1.586   1.423  0.00  0.00    +0.440 A 
ATOM     16  N   LIG    1       -2.244  -1.095   0.826  0.00  0.00    -0.590 NA
ATOM     17  C   LIG    1       -3.491  -1.471   1.166  0.00  0.00    +0.530 A 
ATOM     18  C   LIG    1       -3.648  -2.457   2.251  0.00  0.00    -0.210 A 
ATOM     19  C   LIG    1       -4.899  -2.900   2.672  0.00  0.00    +0.110 A 
ATOM     20  C   LIG    1       -4.982  -3.824   3.692  0.00  0.00    -0.020 A 
ATOM     21  C   LIG    1       -3.832  -4.310   4.296  0.00  0.00    +0.080 A 
ATOM     22  C   LIG    1       -2.586  -3.880   3.889  0.00  0.00    -0.020 A 
ATOM     23  C   LIG    1       -2.482  -2.950   2.864  0.00  0.00    +0.180 A 
ATOM     24  O   LIG    1       -4.463  -1.007   0.595  0.00  0.00    -0.480 OA
ATOM     25  N   LIG    1       -1.259  -2.487   2.418  0.00  0.00    -0.620 N 
ATOM     26  H   LIG    1       -0.443  -2.814   2.827  0.00  0.00    +0.420 HD
ENDBRANCH  14  15
ENDBRANCH   1  14
TORSDOF 4
