REMARK  Name = ZINCrH000004jn88.0
REMARK                            x       y       z     vdW  Elec       q    Type
REMARK                         _______ _______ _______ _____ _____    ______ ____
ROOT
ATOM      1  C   LIG    1       -0.019   1.526   0.010  0.00  0.00    +0.040 C 
ENDROOT
BRANCH   1   2
ATOM      2  C   LIG    1        1.395   2.047  -0.000  0.00  0.00    +0.520 C 
ATOM      3  N   LIG    1        1.623   3.376   0.005  0.00  0.00    -0.730 N 
ATOM      4  H   LIG    1        0.878   3.996   0.015  0.00  0.00    +0.400 HD
ATOM      5  O   LIG    1        2.328   1.272  -0.013  0.00  0.00    -0.530 OA
BRANCH   3   6
ATOM      6  C   LIG    1        2.998   3.883  -0.006  0.00  0.00    +0.300 C 
BRANCH   6   7
ATOM      7  C   LIG    1        2.977   5.413   0.003  0.00  0.00    +0.070 C 
BRANCH   7   8
ATOM      8  S   LIG    1        4.679   6.040  -0.010  0.00  0.00    -0.070 S 
BRANCH   8   9
ATOM      9  C   LIG    1        4.457   7.788   0.001  0.00  0.00    -0.080 A 
ATOM     10  C   LIG    1        3.176   8.327   0.011  0.00  0.00    +0.010 A 
ATOM     11  C   LIG    1        3.005   9.697   0.024  0.00  0.00    +0.050 A 
ATOM     12  C   LIG    1        4.107  10.534   0.018  0.00  0.00    -0.040 A 
ATOM     13  C   LIG    1        5.384  10.000   0.004  0.00  0.00    +0.050 A 
ATOM     14 CL   LIG    1        3.888  12.256   0.028  0.00  0.00    -0.060 Cl
ATOM     15  C   LIG    1        5.562   8.631  -0.005  0.00  0.00    +0.050 A 
ENDBRANCH   8   9
ENDBRANCH   7   8
ENDBRANCH   6   7
ENDBRANCH   3   6
ENDBRANCH   1   2
BRANCH   1  16
ATOM     16  C   LIG    1        0.002  -0.004   0.002  0.00  0.00    +0.350 C 
BRANCH  16  19
ATOM     17  N   LIG    1       -3.332  -1.228  -0.690  0.00  0.00    -0.540 N 
ATOM     18  C   LIG    1       -2.122  -0.778  -1.074  0.00  0.00    +0.680 A 
ATOM     19  N   LIG    1       -1.372  -0.511   0.012  0.00  0.00    -0.540 N 
ATOM     20  C   LIG    1       -2.124  -0.805   1.147  0.00  0.00    +0.090 A 
ATOM     21  C   LIG    1       -1.864  -0.728   2.507  0.00  0.00    +0.030 A 
ATOM     22  C   LIG    1       -2.837  -1.099   3.415  0.00  0.00    +0.020 A 
ATOM     23  C   LIG    1       -4.069  -1.548   2.973  0.00  0.00    +0.020 A 
ATOM     24  C   LIG    1       -4.341  -1.620   1.621  0.00  0.00    +0.020 A 
ATOM     25  O   LIG    1       -1.761  -0.635  -2.227  0.00  0.00    -0.550 OA
ATOM     26  C   LIG    1       -3.369  -1.254   0.702  0.00  0.00    +0.090 A 
BRANCH  17  28
ATOM     27  C   LIG    1       -4.302  -3.114  -1.908  0.00  0.00    +0.030 C 
ATOM     28  C   LIG    1       -4.422  -1.623  -1.585  0.00  0.00    +0.310 C 
ENDBRANCH  17  28
ENDBRANCH  16  19
ENDBRANCH   1  16
TORSDOF 8
