REMARK  Name = ZINCrg000000smOE.0
REMARK                            x       y       z     vdW  Elec       q    Type
REMARK                         _______ _______ _______ _____ _____    ______ ____
ROOT
ATOM      1  C   LIG    1       -0.746   1.691  -1.204  0.00  0.00    +0.270 C 
ATOM      2  C   LIG    1       -0.105   1.022   0.040  0.00  0.00    +0.030 C 
ATOM      3  C   LIG    1       -0.983   1.585   1.185  0.00  0.00    +0.270 C 
ATOM      4  N   LIG    1       -1.277   2.974   0.786  0.00  0.00    -0.680 N 
ATOM      5  C   LIG    1       -1.159   3.081  -0.675  0.00  0.00    +0.260 C 
ENDROOT
BRANCH   4   6
ATOM      6  C   LIG    1       -1.607   3.997   1.638  0.00  0.00    +0.470 A 
ATOM      7  C   LIG    1       -2.909   4.198   2.004  0.00  0.00    -0.120 A 
ATOM      8  C   LIG    1       -3.216   5.250   2.882  0.00  0.00    +0.550 A 
ATOM      9  N   LIG    1       -2.229   6.045   3.338  0.00  0.00    -0.560 N 
ATOM     10  C   LIG    1       -0.953   5.837   2.964  0.00  0.00    +0.700 A 
ATOM     11  O   LIG    1       -0.078   6.567   3.387  0.00  0.00    -0.540 OA
ATOM     12  C   LIG    1       -2.547   7.147   4.250  0.00  0.00    +0.330 C 
ATOM     13  O   LIG    1       -4.369   5.445   3.225  0.00  0.00    -0.520 OA
ATOM     14  N   LIG    1       -0.632   4.833   2.128  0.00  0.00    -0.550 N 
ATOM     15  C   LIG    1        0.765   4.629   1.738  0.00  0.00    +0.330 C 
ENDBRANCH   4   6
BRANCH   1  16
ATOM     16  N   LIG    1        0.231   1.815  -2.288  0.00  0.00    -0.690 N 
ATOM     17  H   LIG    1        0.744   2.632  -2.388  0.00  0.00    +0.410 HD
BRANCH  16  21
ATOM     18  C   LIG    1        2.563   0.123  -6.113  0.00  0.00    +0.160 C 
ATOM     19  C   LIG    1        1.545  -0.055  -5.016  0.00  0.00    +0.270 A 
ATOM     20  N   LIG    1        1.318   0.906  -4.146  0.00  0.00    -0.570 NA
ATOM     21  C   LIG    1        0.422   0.766  -3.170  0.00  0.00    +0.580 A 
ATOM     22  N   LIG    1       -0.285  -0.335  -3.007  0.00  0.00    -0.570 NA
ATOM     23  C   LIG    1       -0.129  -1.367  -3.845  0.00  0.00    +0.210 A 
ATOM     24  C   LIG    1       -0.865  -2.552  -3.709  0.00  0.00    +0.020 A 
ATOM     25  C   LIG    1       -0.662  -3.575  -4.587  0.00  0.00    +0.060 A 
ATOM     26  C   LIG    1        0.266  -3.463  -5.619  0.00  0.00    -0.010 A 
ATOM     27  C   LIG    1        0.999  -2.326  -5.782  0.00  0.00    +0.070 A 
ATOM     28  C   LIG    1        0.817  -1.254  -4.897  0.00  0.00    -0.210 A 
ENDBRANCH  16  21
ENDBRANCH   1  16
TORSDOF 3
