REMARK  Name = ZINCpe00000VVH3j.0
REMARK                            x       y       z     vdW  Elec       q    Type
REMARK                         _______ _______ _______ _____ _____    ______ ____
ROOT
ATOM      1  N   LIG    1       -4.875   0.445  -0.050  0.00  0.00    -0.520 NA
ATOM      2  C   LIG    1       -4.763  -0.371  -1.268  0.00  0.00    +0.160 C 
ATOM      3  C   LIG    1       -3.416  -1.100  -1.265  0.00  0.00    +0.230 C 
ATOM      4  O   LIG    1       -2.361  -0.141  -1.158  0.00  0.00    -0.380 OA
ATOM      5  C   LIG    1       -2.439   0.671   0.017  0.00  0.00    +0.160 C 
ATOM      6  C   LIG    1       -3.776   1.418   0.028  0.00  0.00    +0.170 C 
ENDROOT
BRANCH   1   7
ATOM      7  C   LIG    1       -6.179   1.118   0.014  0.00  0.00    +0.210 C 
BRANCH   7   9
ATOM      8  O   LIG    1       -6.985  -1.089   0.237  0.00  0.00    -0.510 OA
ATOM      9  C   LIG    1       -7.268   0.089   0.179  0.00  0.00    +0.520 C 
ATOM     10  N   LIG    1       -8.556   0.478   0.262  0.00  0.00    -0.720 N 
ATOM     11  H   LIG    1       -8.782   1.420   0.215  0.00  0.00    +0.400 HD
BRANCH  10  12
ATOM     12  C   LIG    1       -9.614  -0.522   0.422  0.00  0.00    +0.300 C 
BRANCH  12  13
ATOM     13  C   LIG    1      -10.931   0.038  -0.118  0.00  0.00    -0.060 C 
ATOM     14  C   LIG    1      -11.706  -0.820  -1.119  0.00  0.00    +0.030 C 
ATOM     15  C   LIG    1      -10.976   0.439  -1.594  0.00  0.00    +0.020 C 
ENDBRANCH  12  13
BRANCH  12  16
ATOM     16  C   LIG    1       -9.774  -0.862   1.905  0.00  0.00    -0.060 C 
ATOM     17  C   LIG    1       -9.009  -0.003   2.914  0.00  0.00    +0.000 C 
ATOM     18  C   LIG    1       -8.558  -1.438   2.633  0.00  0.00    +0.030 C 
ENDBRANCH  12  16
ENDBRANCH  10  12
ENDBRANCH   7   9
ENDBRANCH   1   7
BRANCH   5  19
ATOM     19  C   LIG    1       -1.290   1.681   0.017  0.00  0.00    +0.290 C 
BRANCH  19  20
ATOM     20  N   LIG    1       -0.011   0.966   0.007  0.00  0.00    -0.710 N 
ATOM     21  H   LIG    1        0.002  -0.004   0.002  0.00  0.00    +0.410 HD
BRANCH  20  22
ATOM     22  C   LIG    1        1.184   1.677  -0.000  0.00  0.00    +0.340 A 
ATOM     23  C   LIG    1        1.169   3.072   0.007  0.00  0.00    -0.050 A 
ATOM     24  C   LIG    1        2.386   3.734  -0.001  0.00  0.00    +0.070 A 
ATOM     25  C   LIG    1        3.544   2.969  -0.016  0.00  0.00    +0.150 A 
ATOM     26  N   LIG    1        3.466   1.653  -0.022  0.00  0.00    -0.200 NA
ATOM     27  N   LIG    1        2.342   1.034  -0.009  0.00  0.00    -0.310 NA
ENDBRANCH  20  22
ENDBRANCH  19  20
ENDBRANCH   5  19
TORSDOF 8
