REMARK  Name = ZINCqH0000007pgm.0
REMARK                            x       y       z     vdW  Elec       q    Type
REMARK                         _______ _______ _______ _____ _____    ______ ____
ROOT
ATOM      1  N   LIG    1       -0.016   1.344   0.009  0.00  0.00    -0.720 N 
ATOM      2  H   LIG    1        0.817   1.840   0.004  0.00  0.00    +0.400 HD
ATOM      3  C   LIG    1        0.002  -0.004   0.002  0.00  0.00    +0.520 C 
ATOM      4  O   LIG    1       -1.040  -0.625   0.009  0.00  0.00    -0.500 OA
ENDROOT
BRANCH   1   5
ATOM      5  C   LIG    1       -1.295   2.059   0.019  0.00  0.00    +0.300 C 
BRANCH   5   9
ATOM      6  C   LIG    1       -0.763   5.950  -1.665  0.00  0.00    +0.130 A 
ATOM      7  C   LIG    1       -1.904   5.217  -1.956  0.00  0.00    -0.020 A 
ATOM      8  C   LIG    1       -2.074   3.959  -1.411  0.00  0.00    +0.070 A 
ATOM      9  C   LIG    1       -1.107   3.431  -0.575  0.00  0.00    -0.130 A 
ATOM     10  C   LIG    1        0.028   4.162  -0.278  0.00  0.00    +0.050 A 
ATOM     11  C   LIG    1        0.205   5.418  -0.825  0.00  0.00    -0.070 A 
BRANCH   6  13
ATOM     12  C   LIG    1        0.605   7.885  -1.857  0.00  0.00    +0.250 C 
ATOM     13  O   LIG    1       -0.594   7.188  -2.201  0.00  0.00    -0.320 OA
ENDBRANCH   6  13
ENDBRANCH   5   9
BRANCH   5  14
ATOM     14  C   LIG    1       -1.794   2.190   1.460  0.00  0.00    -0.030 C 
ATOM     15  C   LIG    1       -1.985   0.797   2.062  0.00  0.00    +0.030 C 
ATOM     16  C   LIG    1       -3.130   2.937   1.470  0.00  0.00    +0.030 C 
ENDBRANCH   5  14
ENDBRANCH   1   5
BRANCH   3  17
ATOM     17  C   LIG    1        1.317  -0.740  -0.015  0.00  0.00    +0.240 C 
BRANCH  17  18
ATOM     18  O   LIG    1        1.075  -2.148  -0.020  0.00  0.00    -0.280 OA
BRANCH  18  19
ATOM     19  C   LIG    1        2.162  -2.960  -0.035  0.00  0.00    +0.160 A 
ATOM     20  C   LIG    1        3.439  -2.408  -0.049  0.00  0.00    -0.100 A 
ATOM     21  C   LIG    1        4.541  -3.224  -0.059  0.00  0.00    +0.110 A 
ATOM     22  C   LIG    1        4.379  -4.615  -0.065  0.00  0.00    -0.210 A 
ATOM     23  C   LIG    1        3.091  -5.165  -0.056  0.00  0.00    +0.120 A 
ATOM     24  C   LIG    1        1.996  -4.340  -0.040  0.00  0.00    -0.020 A 
BRANCH  22  25
ATOM     25  C   LIG    1        5.555  -5.494  -0.082  0.00  0.00    +0.400 C 
ATOM     26  O   LIG    1        5.413  -6.698  -0.088  0.00  0.00    -0.460 OA
ATOM     27  C   LIG    1        6.940  -4.899  -0.092  0.00  0.00    +0.080 C 
ENDBRANCH  22  25
ENDBRANCH  18  19
ENDBRANCH  17  18
ENDBRANCH   3  17
TORSDOF 8
