REMARK  Name = ZINCpk00000xDwnA.0
REMARK                            x       y       z     vdW  Elec       q    Type
REMARK                         _______ _______ _______ _____ _____    ______ ____
ROOT
ATOM      1  C   LIG    1       -6.663   4.717  -0.699  0.00  0.00    -0.010 C 
ATOM      2  C   LIG    1       -7.099   5.138  -2.105  0.00  0.00    +0.040 C 
ATOM      3  C   LIG    1       -5.988   5.977  -2.744  0.00  0.00    +0.070 C 
ATOM      4  C   LIG    1       -4.690   5.167  -2.758  0.00  0.00    +0.080 C 
ATOM      5  N   LIG    1       -4.312   4.817  -1.383  0.00  0.00    -0.350 N 
ATOM      6  H   LIG    1       -4.225   5.660  -0.835  0.00  0.00    +0.420 HD
ATOM      7  C   LIG    1       -5.340   3.953  -0.791  0.00  0.00    +0.270 C 
ENDROOT
BRANCH   1  10
ATOM      8  C   LIG    1       -9.994   3.424   0.674  0.00  0.00    +0.310 C 
ATOM      9  N   LIG    1       -8.970   4.289   0.083  0.00  0.00    -0.610 N 
ATOM     10  C   LIG    1       -7.716   3.827  -0.091  0.00  0.00    +0.520 C 
ATOM     11  O   LIG    1       -7.435   2.695   0.242  0.00  0.00    -0.530 OA
ATOM     12  C   LIG    1       -9.309   5.656  -0.319  0.00  0.00    +0.300 C 
ENDBRANCH   1  10
BRANCH   4  13
ATOM     13  C   LIG    1       -3.594   5.989  -3.386  0.00  0.00    +0.500 C 
ATOM     14  O   LIG    1       -2.679   6.412  -2.700  0.00  0.00    -0.670 OA
ATOM     15  O   LIG    1       -3.621   6.230  -4.581  0.00  0.00    -0.630 OA
ENDBRANCH   4  13
BRANCH   5  16
ATOM     16  C   LIG    1       -3.026   4.108  -1.396  0.00  0.00    +0.260 C 
BRANCH  16  17
ATOM     17  C   LIG    1       -2.568   3.856   0.042  0.00  0.00    +0.090 C 
BRANCH  17  18
ATOM     18  C   LIG    1       -1.248   3.129   0.029  0.00  0.00    -0.120 A 
ATOM     19  C   LIG    1       -1.218   1.747   0.017  0.00  0.00    +0.050 A 
ATOM     20  C   LIG    1       -0.013   1.076   0.008  0.00  0.00    -0.010 A 
ATOM     21  C   LIG    1        1.185   1.786   0.000  0.00  0.00    +0.110 A 
ATOM     22  O   LIG    1        2.469   1.333  -0.025  0.00  0.00    -0.300 OA
ATOM     23  C   LIG    1        3.351   2.383   0.407  0.00  0.00    +0.240 C 
ATOM     24  C   LIG    1        2.577   3.663   0.013  0.00  0.00    +0.070 C 
ATOM     25  C   LIG    1        1.142   3.174   0.012  0.00  0.00    -0.170 A 
ATOM     26  C   LIG    1       -0.062   3.842   0.022  0.00  0.00    +0.080 A 
ENDBRANCH  17  18
ENDBRANCH  16  17
ENDBRANCH   5  16
TORSDOF 5
