REMARK  Name = ZINCpk00000xDwnA.1
REMARK                            x       y       z     vdW  Elec       q    Type
REMARK                         _______ _______ _______ _____ _____    ______ ____
ROOT
ATOM      1  C   LIG    1        1.261   3.046   0.042  0.00  0.00    -0.010 C 
ATOM      2  C   LIG    1        0.380   3.568   1.181  0.00  0.00    +0.040 C 
ATOM      3  C   LIG    1       -0.985   2.876   1.116  0.00  0.00    +0.080 C 
ATOM      4  C   LIG    1       -0.785   1.360   1.184  0.00  0.00    +0.080 C 
ATOM      5  N   LIG    1        0.043   0.920   0.055  0.00  0.00    -0.350 N 
ATOM      6  H   LIG    1        0.128  -0.085   0.073  0.00  0.00    +0.430 HD
ATOM      7  C   LIG    1        1.377   1.524   0.150  0.00  0.00    +0.270 C 
ENDROOT
BRANCH   1  10
ATOM      8  C   LIG    1        4.107   5.603   0.170  0.00  0.00    +0.310 C 
ATOM      9  N   LIG    1        2.775   5.002   0.072  0.00  0.00    -0.610 N 
ATOM     10  C   LIG    1        2.632   3.664   0.143  0.00  0.00    +0.530 C 
ATOM     11  O   LIG    1        3.607   2.957   0.287  0.00  0.00    -0.530 OA
ATOM     12  C   LIG    1        1.597   5.856  -0.102  0.00  0.00    +0.300 C 
ENDBRANCH   1  10
BRANCH   4  13
ATOM     13  C   LIG    1       -2.126   0.674   1.121  0.00  0.00    +0.490 C 
ATOM     14  O   LIG    1       -2.971   0.909   1.967  0.00  0.00    -0.630 OA
ATOM     15  O   LIG    1       -2.364  -0.116   0.223  0.00  0.00    -0.670 OA
ENDBRANCH   4  13
BRANCH   5  16
ATOM     16  C   LIG    1       -0.591   1.334  -1.204  0.00  0.00    +0.260 C 
BRANCH  16  17
ATOM     17  C   LIG    1        0.189   0.750  -2.384  0.00  0.00    +0.090 C 
BRANCH  17  18
ATOM     18  C   LIG    1       -0.462   1.174  -3.675  0.00  0.00    -0.120 A 
ATOM     19  C   LIG    1       -1.448   0.390  -4.245  0.00  0.00    +0.080 A 
ATOM     20  C   LIG    1       -2.052   0.778  -5.423  0.00  0.00    +0.000 A 
ATOM     21  C   LIG    1       -1.667   1.959  -6.054  0.00  0.00    +0.110 A 
ATOM     22  O   LIG    1       -2.128   2.526  -7.202  0.00  0.00    -0.300 OA
ATOM     23  C   LIG    1       -1.160   3.474  -7.684  0.00  0.00    +0.240 C 
ATOM     24  C   LIG    1       -0.449   3.926  -6.386  0.00  0.00    +0.070 C 
ATOM     25  C   LIG    1       -0.667   2.732  -5.477  0.00  0.00    -0.180 A 
ATOM     26  C   LIG    1       -0.071   2.347  -4.297  0.00  0.00    +0.060 A 
ENDBRANCH  17  18
ENDBRANCH  16  17
ENDBRANCH   5  16
TORSDOF 5
