REMARK  Name = ZINCvU00000009gq.0
REMARK                            x       y       z     vdW  Elec       q    Type
REMARK                         _______ _______ _______ _____ _____    ______ ____
ROOT
ATOM      1  C   LIG    1       -0.004   1.413  -0.034  0.00  0.00    -0.120 A 
ATOM      2  C   LIG    1        0.008   0.038  -0.270  0.00  0.00    +0.040 A 
ATOM      3  C   LIG    1        1.202  -0.654  -0.240  0.00  0.00    +0.010 A 
ATOM      4  C   LIG    1        2.385   0.014   0.023  0.00  0.00    +0.040 A 
ATOM      5  C   LIG    1        2.380   1.377   0.258  0.00  0.00    +0.030 A 
ATOM      6  C   LIG    1        1.193   2.080   0.231  0.00  0.00    -0.030 A 
ENDROOT
BRANCH   1   8
ATOM      7  O   LIG    1       -1.275   3.373   0.025  0.00  0.00    -0.510 OA
ATOM      8  C   LIG    1       -1.278   2.162  -0.071  0.00  0.00    +0.550 C 
ATOM      9  N   LIG    1       -2.445   1.500  -0.211  0.00  0.00    -0.730 N 
ATOM     10  H   LIG    1       -2.447   0.533  -0.287  0.00  0.00    +0.400 HD
BRANCH   9  11
ATOM     11  C   LIG    1       -3.708   2.242  -0.247  0.00  0.00    +0.290 C 
BRANCH  11  12
ATOM     12  C   LIG    1       -4.870   1.261  -0.412  0.00  0.00    -0.050 C 
ATOM     13  C   LIG    1       -4.976   0.370   0.833  0.00  0.00    +0.250 C 
ATOM     14  O   LIG    1       -5.999  -0.600   0.607  0.00  0.00    -0.310 OA
ATOM     15  C   LIG    1       -7.200  -0.161   0.148  0.00  0.00    +0.130 A 
ATOM     16  C   LIG    1       -8.302  -1.001   0.262  0.00  0.00    -0.020 A 
ATOM     17  C   LIG    1       -9.538  -0.593  -0.197  0.00  0.00    +0.040 A 
ATOM     18  C   LIG    1       -9.682   0.655  -0.773  0.00  0.00    -0.020 A 
ATOM     19  C   LIG    1       -8.590   1.493  -0.888  0.00  0.00    +0.050 A 
ATOM     20  C   LIG    1       -7.348   1.090  -0.427  0.00  0.00    -0.160 A 
ATOM     21  C   LIG    1       -6.182   2.036  -0.561  0.00  0.00    +0.100 C 
ENDBRANCH  11  12
ENDBRANCH   9  11
ENDBRANCH   1   8
BRANCH   6  22
ATOM     22  C   LIG    1        1.190   3.566   0.486  0.00  0.00    +0.160 C 
BRANCH  22  23
ATOM     23  S   LIG    1        1.191   4.449  -1.094  0.00  0.00    +0.080 S 
BRANCH  23  24
ATOM     24  C   LIG    1        1.187   6.113  -0.514  0.00  0.00    +0.220 A 
ATOM     25  N   LIG    1        1.177   6.468   0.746  0.00  0.00    -0.480 NA
ATOM     26  C   LIG    1        1.179   7.828   0.816  0.00  0.00    +0.030 A 
ATOM     27  C   LIG    1        1.175   8.738   1.874  0.00  0.00    +0.070 A 
ATOM     28  C   LIG    1        1.173  10.091   1.611  0.00  0.00    +0.020 A 
ATOM     29  C   LIG    1        1.175  10.551   0.304  0.00  0.00    +0.040 A 
ATOM     30  C   LIG    1        1.179   9.661  -0.751  0.00  0.00    +0.050 A 
ATOM     31  C   LIG    1        1.181   8.299  -0.506  0.00  0.00    +0.010 A 
ATOM     32  O   LIG    1        1.186   7.204  -1.301  0.00  0.00    -0.200 OA
ENDBRANCH  23  24
ENDBRANCH  22  23
ENDBRANCH   6  22
TORSDOF 6
