REMARK  Name = ZINCpe000000WIa0.0
REMARK                            x       y       z     vdW  Elec       q    Type
REMARK                         _______ _______ _______ _____ _____    ______ ____
ROOT
ATOM      1  N   LIG    1       -0.288   1.272  -2.443  0.00  0.00    -0.720 N 
ATOM      2  H   LIG    1        0.507   0.726  -2.543  0.00  0.00    +0.400 HD
ATOM      3  C   LIG    1       -0.742   1.585  -1.213  0.00  0.00    +0.500 C 
ATOM      4  O   LIG    1       -1.736   2.268  -1.088  0.00  0.00    -0.520 OA
ENDROOT
BRANCH   1   8
ATOM      5  C   LIG    1       -0.603  -0.523  -5.427  0.00  0.00    -0.430 C 
ATOM      6  C   LIG    1       -1.574  -0.594  -4.247  0.00  0.00    +0.050 C 
ATOM      7  C   LIG    1       -2.141   0.800  -3.968  0.00  0.00    +0.040 C 
ATOM      8  C   LIG    1       -0.997   1.758  -3.630  0.00  0.00    +0.240 C 
ATOM      9  C   LIG    1       -0.026   1.829  -4.810  0.00  0.00    +0.050 C 
ATOM     10  C   LIG    1        0.541   0.435  -5.089  0.00  0.00    +0.060 C 
BRANCH   5  12
ATOM     11  C   LIG    1       -1.433  -3.123  -6.127  0.00  0.00    -0.270 C 
ATOM     12  S   LIG    1        0.069  -2.175  -5.757  0.00  0.00    +2.420 S 
ATOM     13  O   LIG    1        0.639  -2.680  -4.558  0.00  0.00    -0.940 OA
ATOM     14  O   LIG    1        0.866  -2.113  -6.932  0.00  0.00    -0.940 OA
ENDBRANCH   5  12
ENDBRANCH   1   8
BRANCH   3  15
ATOM     15  C   LIG    1       -0.013   1.086   0.008  0.00  0.00    +0.370 C 
BRANCH  15  16
ATOM     16  N   LIG    1       -0.698   1.558   1.213  0.00  0.00    -0.330 N 
ATOM     17  N   LIG    1       -0.352   2.683   1.720  0.00  0.00    -0.180 NA
ATOM     18  C   LIG    1       -0.884   3.208   2.785  0.00  0.00    +0.170 A 
ATOM     19  C   LIG    1       -1.926   2.530   3.475  0.00  0.00    +0.390 A 
ATOM     20  C   LIG    1       -2.349   1.234   2.918  0.00  0.00    -0.200 A 
ATOM     21  C   LIG    1       -3.359   0.468   3.496  0.00  0.00    +0.120 A 
ATOM     22  C   LIG    1       -3.704  -0.728   2.930  0.00  0.00    -0.020 A 
ATOM     23  C   LIG    1       -3.058  -1.181   1.787  0.00  0.00    +0.090 A 
ATOM     24  C   LIG    1       -2.057  -0.440   1.200  0.00  0.00    -0.040 A 
ATOM     25  O   LIG    1       -2.443   2.999   4.475  0.00  0.00    -0.470 OA
ATOM     26  C   LIG    1       -1.692   0.783   1.756  0.00  0.00    +0.160 A 
ENDBRANCH  15  16
ENDBRANCH   3  15
TORSDOF 4
