REMARK  Name = ZINCrD000000A1yK.1
REMARK                            x       y       z     vdW  Elec       q    Type
REMARK                         _______ _______ _______ _____ _____    ______ ____
ROOT
ATOM      1  C   LIG    1        6.108   1.365  -0.049  0.00  0.00    +0.370 C 
ENDROOT
BRANCH   1   2
ATOM      2  C   LIG    1        4.696   0.837  -0.039  0.00  0.00    +0.050 A 
ATOM      3  C   LIG    1        4.428  -0.473  -0.043  0.00  0.00    -0.030 A 
ATOM      4  S   LIG    1        2.677  -0.676  -0.021  0.00  0.00    +0.120 S 
ATOM      5  C   LIG    1        2.478   1.074  -0.016  0.00  0.00    +0.100 A 
ATOM      6  N   LIG    1        3.654   1.635  -0.025  0.00  0.00    -0.440 NA
BRANCH   5   7
ATOM      7  C   LIG    1        1.185   1.791   0.000  0.00  0.00    +0.010 A 
ATOM      8  C   LIG    1       -0.013   1.076   0.008  0.00  0.00    +0.040 A 
ATOM      9  C   LIG    1       -1.216   1.751   0.017  0.00  0.00    +0.080 A 
ATOM     10  C   LIG    1       -1.236   3.134   0.031  0.00  0.00    -0.170 A 
ATOM     11  C   LIG    1       -0.052   3.850   0.023  0.00  0.00    +0.080 A 
ATOM     12  C   LIG    1        1.158   3.187   0.008  0.00  0.00    +0.080 A 
BRANCH  10  13
ATOM     13  C   LIG    1       -2.554   3.865   0.047  0.00  0.00    +0.510 C 
ATOM     14  F   LIG    1       -2.402   5.087   0.712  0.00  0.00    -0.170 F 
ATOM     15  F   LIG    1       -3.510   3.088   0.712  0.00  0.00    -0.170 F 
ATOM     16  F   LIG    1       -2.974   4.098  -1.266  0.00  0.00    -0.170 F 
ENDBRANCH  10  13
ENDBRANCH   5   7
ENDBRANCH   1   2
BRANCH   1  18
ATOM     17  C   LIG    1        7.742   2.141  -1.681  0.00  0.00    +0.490 C 
ATOM     18  N   LIG    1        6.511   1.656  -1.427  0.00  0.00    -0.710 N 
ATOM     19  H   LIG    1        5.891   1.499  -2.157  0.00  0.00    +0.410 HD
ATOM     20  O   LIG    1        8.517   2.337  -0.769  0.00  0.00    -0.550 OA
BRANCH  17  21
ATOM     21  C   LIG    1        8.156   2.440  -3.099  0.00  0.00    +0.190 C 
BRANCH  21  22
ATOM     22  C   LIG    1        8.566   1.141  -3.796  0.00  0.00    +0.170 C 
ATOM     23  C   LIG    1        8.986   1.445  -5.236  0.00  0.00    +0.020 C 
ATOM     24  C   LIG    1        9.337   0.133  -5.945  0.00  0.00    +0.000 C 
ATOM     25  C   LIG    1        8.131  -0.809  -5.878  0.00  0.00    -0.020 C 
ATOM     26  C   LIG    1        7.744  -1.026  -4.412  0.00  0.00    +0.220 C 
ATOM     27  O   LIG    1        7.460   0.236  -3.804  0.00  0.00    -0.380 OA
ENDBRANCH  21  22
BRANCH  21  28
ATOM     28  N   LIG    1        9.293   3.371  -3.091  0.00  0.00    -0.810 NA
ATOM     29  H   LIG    1       10.081   2.975  -2.601  0.00  0.00    +0.350 HD
ATOM     30  H   LIG    1        9.029   4.260  -2.694  0.00  0.00    +0.350 HD
ENDBRANCH  21  28
ENDBRANCH  17  21
ENDBRANCH   1  18
TORSDOF 7
