REMARK  Name = ZINCqH0000051jSx.0
REMARK                            x       y       z     vdW  Elec       q    Type
REMARK                         _______ _______ _______ _____ _____    ______ ____
ROOT
ATOM      1  C   LIG    1        3.793  -0.970  -0.021  0.00  0.00    +0.290 C 
ENDROOT
BRANCH   1   2
ATOM      2  C   LIG    1        3.544  -2.479  -0.040  0.00  0.00    +0.000 C 
ATOM      3  C   LIG    1        2.883  -2.947   1.277  0.00  0.00    +0.080 C 
ATOM      4  C   LIG    1        3.512  -4.297   1.548  0.00  0.00    +0.520 C 
ATOM      5  N   LIG    1        4.622  -4.447   0.805  0.00  0.00    -0.560 N 
ATOM      6  O   LIG    1        3.077  -5.122   2.323  0.00  0.00    -0.500 OA
ATOM      7  C   LIG    1        4.877  -3.260  -0.019  0.00  0.00    +0.290 C 
BRANCH   5   8
ATOM      8  C   LIG    1        5.431  -5.589   0.817  0.00  0.00    +0.170 A 
ATOM      9  C   LIG    1        5.179  -6.611   1.722  0.00  0.00    +0.020 A 
ATOM     10  C   LIG    1        5.976  -7.739   1.728  0.00  0.00    +0.060 A 
ATOM     11  C   LIG    1        7.032  -7.846   0.841  0.00  0.00    -0.060 A 
ATOM     12  C   LIG    1        7.289  -6.826  -0.059  0.00  0.00    +0.060 A 
ATOM     13 CL   LIG    1        8.036  -9.262   0.855  0.00  0.00    -0.070 Cl
ATOM     14  C   LIG    1        6.492  -5.699  -0.073  0.00  0.00    -0.010 A 
ENDBRANCH   5   8
ENDBRANCH   1   2
BRANCH   1  17
ATOM     15  O   LIG    1        3.523   1.714   0.012  0.00  0.00    -0.520 OA
ATOM     16  C   LIG    1        2.483   1.085   0.003  0.00  0.00    +0.560 C 
ATOM     17  N   LIG    1        2.510  -0.263  -0.014  0.00  0.00    -0.730 N 
ATOM     18  H   LIG    1        1.680  -0.765  -0.021  0.00  0.00    +0.400 HD
BRANCH  16  19
ATOM     19  C   LIG    1        1.191   1.796   0.011  0.00  0.00    -0.100 A 
ATOM     20  C   LIG    1        1.156   3.197   0.028  0.00  0.00    -0.100 A 
ATOM     21  S   LIG    1        2.405   4.444   0.046  0.00  0.00    +0.260 S 
ATOM     22  N   LIG    1        1.343   5.763   0.062  0.00  0.00    -0.450 NA
ATOM     23  C   LIG    1        0.132   5.326   0.055  0.00  0.00    +0.320 A 
ATOM     24  C   LIG    1       -0.069   3.889   0.036  0.00  0.00    -0.150 A 
ATOM     25  C   LIG    1       -1.259   3.131   0.026  0.00  0.00    +0.120 A 
ATOM     26  C   LIG    1       -1.212   1.759   0.003  0.00  0.00    +0.000 A 
ATOM     27  C   LIG    1       -0.005   1.081   0.001  0.00  0.00    +0.100 A 
ENDBRANCH  16  19
ENDBRANCH   1  17
TORSDOF 4
