REMARK  Name = ZINCqH0000034IoB.0
REMARK                            x       y       z     vdW  Elec       q    Type
REMARK                         _______ _______ _______ _____ _____    ______ ____
ROOT
ATOM      1  C   LIG    1       -0.421   0.331   1.769  0.00  0.00    +0.200 C 
ATOM      2  N   LIG    1       -1.786  -0.115   2.078  0.00  0.00    -0.540 NA
ATOM      3  C   LIG    1       -1.994  -0.207   3.530  0.00  0.00    +0.170 C 
ATOM      4  C   LIG    1       -3.360  -0.844   3.808  0.00  0.00    +0.280 C 
ATOM      5  N   LIG    1       -4.387  -0.083   3.080  0.00  0.00    -0.630 N 
ATOM      6  C   LIG    1       -4.180   0.169   1.646  0.00  0.00    +0.310 C 
ATOM      7  C   LIG    1       -5.488   0.371   3.711  0.00  0.00    +0.710 C 
ATOM      8  N   LIG    1       -5.709   0.045   5.000  0.00  0.00    -0.750 N 
ATOM      9  H   LIG    1       -5.041  -0.455   5.495  0.00  0.00    +0.390 HD
ATOM     10  O   LIG    1       -6.282   1.074   3.117  0.00  0.00    -0.590 OA
ATOM     11  C   LIG    1       -2.782   0.766   1.453  0.00  0.00    +0.130 C 
ENDROOT
BRANCH   8  12
ATOM     12  C   LIG    1       -6.957   0.446   5.653  0.00  0.00    +0.280 C 
BRANCH  12  13
ATOM     13  C   LIG    1       -6.955  -0.044   7.102  0.00  0.00    -0.020 C 
ATOM     14  C   LIG    1       -6.960  -1.574   7.123  0.00  0.00    +0.020 C 
ATOM     15  C   LIG    1       -6.958  -2.065   8.572  0.00  0.00    +0.000 C 
ATOM     16  C   LIG    1       -8.203  -1.540   9.290  0.00  0.00    +0.010 C 
ATOM     17  C   LIG    1       -8.197  -0.011   9.270  0.00  0.00    -0.060 C 
ATOM     18  C   LIG    1       -9.443   0.514   9.988  0.00  0.00    +0.030 C 
ATOM     19  C   LIG    1       -6.944   0.504   9.980  0.00  0.00    +0.010 C 
ATOM     20  C   LIG    1       -8.200   0.480   7.820  0.00  0.00    +0.040 C 
ENDBRANCH  12  13
ENDBRANCH   8  12
BRANCH  11  21
ATOM     21  C   LIG    1       -2.483   0.893  -0.042  0.00  0.00    +0.080 C 
BRANCH  21  22
ATOM     22  C   LIG    1       -3.469   1.844  -0.672  0.00  0.00    -0.090 A 
ATOM     23  C   LIG    1       -3.234   3.206  -0.638  0.00  0.00    +0.000 A 
ATOM     24  C   LIG    1       -4.135   4.077  -1.221  0.00  0.00    +0.000 A 
ATOM     25  C   LIG    1       -5.273   3.587  -1.833  0.00  0.00    +0.000 A 
ATOM     26  C   LIG    1       -5.511   2.226  -1.863  0.00  0.00    +0.000 A 
ATOM     27  C   LIG    1       -4.610   1.354  -1.279  0.00  0.00    +0.010 A 
ENDBRANCH  21  22
ENDBRANCH  11  21
TORSDOF 4
