REMARK  Name = ZINCrD000006fity.0
REMARK                            x       y       z     vdW  Elec       q    Type
REMARK                         _______ _______ _______ _____ _____    ______ ____
ROOT
ATOM      1  C   LIG    1       -6.839   2.050   1.440  0.00  0.00    +0.560 C 
ATOM      2  N   LIG    1       -7.539   1.754   0.327  0.00  0.00    -0.600 N 
ATOM      3  C   LIG    1       -6.809   1.294  -0.851  0.00  0.00    +0.290 C 
ATOM      4  C   LIG    1       -7.203  -0.159  -1.164  0.00  0.00    +0.070 C 
ATOM      5  C   LIG    1       -8.515  -0.151  -1.916  0.00  0.00    -0.090 A 
ATOM      6  C   LIG    1       -8.531  -0.485  -3.260  0.00  0.00    +0.030 A 
ATOM      7  C   LIG    1       -9.725  -0.481  -3.955  0.00  0.00    -0.020 A 
ATOM      8  C   LIG    1      -10.903  -0.143  -3.307  0.00  0.00    +0.100 A 
ATOM      9  C   LIG    1      -10.881   0.190  -1.960  0.00  0.00    -0.010 A 
ATOM     10  C   LIG    1       -9.681   0.183  -1.272  0.00  0.00    -0.060 A 
ATOM     11  C   LIG    1       -9.664   0.547   0.196  0.00  0.00    +0.020 C 
ATOM     12  C   LIG    1       -8.877  -0.508   0.977  0.00  0.00    +0.030 C 
ATOM     13  C   LIG    1       -8.989   1.914   0.355  0.00  0.00    +0.290 C 
ATOM     14  O   LIG    1       -7.404   2.526   2.405  0.00  0.00    -0.530 OA
ENDROOT
BRANCH   1  18
ATOM     15  C   LIG    1       -2.657   1.321   1.574  0.00  0.00    +0.170 A 
ATOM     16  C   LIG    1       -3.500   0.414   0.938  0.00  0.00    +0.000 A 
ATOM     17  C   LIG    1       -4.856   0.644   0.898  0.00  0.00    +0.060 A 
ATOM     18  C   LIG    1       -5.386   1.796   1.487  0.00  0.00    -0.130 A 
ATOM     19  C   LIG    1       -4.536   2.707   2.120  0.00  0.00    +0.090 A 
ATOM     20  C   LIG    1       -3.181   2.468   2.162  0.00  0.00    +0.020 A 
BRANCH  15  22
ATOM     21  C   LIG    1       -0.679   0.850   2.799  0.00  0.00    +0.550 C 
ATOM     22  N   LIG    1       -1.285   1.081   1.618  0.00  0.00    -0.580 N 
ATOM     23  C   LIG    1       -0.502   1.082   0.380  0.00  0.00    +0.300 C 
ATOM     24  O   LIG    1       -1.310   0.938   3.834  0.00  0.00    -0.520 OA
BRANCH  21  26
ATOM     25  C   LIG    1        1.345   0.261   4.001  0.00  0.00    +0.160 C 
ATOM     26  C   LIG    1        0.747   0.490   2.835  0.00  0.00    -0.090 C 
ENDBRANCH  21  26
ENDBRANCH  15  22
ENDBRANCH   1  18
BRANCH   8  27
ATOM     27  O   LIG    1      -12.079  -0.140  -3.989  0.00  0.00    -0.500 OA
ATOM     28  H   LIG    1      -12.545  -0.987  -3.974  0.00  0.00    +0.390 HD
ENDBRANCH   8  27
TORSDOF 4
