REMARK  Name = ZINCpk00000KfKLV.0
REMARK                            x       y       z     vdW  Elec       q    Type
REMARK                         _______ _______ _______ _____ _____    ______ ____
ROOT
ATOM      1  N   LIG    1       -2.207   4.122  -0.881  0.00  0.00    -0.610 N 
ATOM      2  C   LIG    1       -1.111   3.607  -0.051  0.00  0.00    +0.300 C 
ATOM      3  C   LIG    1       -1.331   2.079   0.020  0.00  0.00    -0.010 C 
ATOM      4  C   LIG    1       -2.124   1.814  -1.281  0.00  0.00    +0.080 C 
ATOM      5  C   LIG    1       -2.790   3.137  -1.586  0.00  0.00    +0.520 C 
ATOM      6  O   LIG    1       -3.715   3.288  -2.356  0.00  0.00    -0.520 OA
ENDROOT
BRANCH   3   7
ATOM      7  C   LIG    1       -0.016   1.344   0.009  0.00  0.00    +0.530 C 
ATOM      8  N   LIG    1        0.002  -0.004   0.002  0.00  0.00    -0.720 N 
ATOM      9  H   LIG    1       -0.831  -0.500   0.007  0.00  0.00    +0.400 HD
ATOM     10  O   LIG    1        1.026   1.964   0.003  0.00  0.00    -0.530 OA
BRANCH   8  11
ATOM     11  C   LIG    1        1.281  -0.719  -0.014  0.00  0.00    +0.230 C 
ATOM     12  C   LIG    1        1.773  -0.851  -1.456  0.00  0.00    +0.010 C 
ATOM     13  C   LIG    1        3.108  -1.598  -1.473  0.00  0.00    -0.010 C 
ATOM     14  C   LIG    1        2.921  -2.991  -0.869  0.00  0.00    +0.160 C 
ATOM     15  C   LIG    1        2.428  -2.859   0.573  0.00  0.00    +0.040 C 
ATOM     16  C   LIG    1        1.093  -2.112   0.590  0.00  0.00    +0.030 C 
BRANCH  14  17
ATOM     17  O   LIG    1        4.168  -3.688  -0.885  0.00  0.00    -0.570 OA
ATOM     18  H   LIG    1        4.541  -3.808  -1.769  0.00  0.00    +0.380 HD
ENDBRANCH  14  17
ENDBRANCH   8  11
ENDBRANCH   3   7
BRANCH   1  19
ATOM     19  C   LIG    1       -2.613   5.528  -0.933  0.00  0.00    +0.350 C 
BRANCH  19  23
ATOM     20  C   LIG    1       -5.595   6.261   2.039  0.00  0.00    +0.130 A 
ATOM     21  C   LIG    1       -4.252   6.419   2.349  0.00  0.00    -0.030 A 
ATOM     22  C   LIG    1       -3.290   6.182   1.386  0.00  0.00    +0.070 A 
ATOM     23  C   LIG    1       -3.665   5.787   0.115  0.00  0.00    -0.150 A 
ATOM     24  C   LIG    1       -5.003   5.634  -0.198  0.00  0.00    +0.080 A 
ATOM     25  C   LIG    1       -5.969   5.864   0.763  0.00  0.00    -0.080 A 
BRANCH  20  27
ATOM     26  C   LIG    1       -7.906   6.311   2.595  0.00  0.00    +0.250 C 
ATOM     27  O   LIG    1       -6.544   6.493   2.984  0.00  0.00    -0.320 OA
ENDBRANCH  20  27
ENDBRANCH  19  23
ENDBRANCH   1  19
TORSDOF 6
