REMARK  Name = ZINCpk000005Y5Yt.0
REMARK                            x       y       z     vdW  Elec       q    Type
REMARK                         _______ _______ _______ _____ _____    ______ ____
ROOT
ATOM      1  C   LIG    1       -0.789   1.611   1.242  0.00  0.00    +0.250 C 
ATOM      2  C   LIG    1       -2.268   1.485   0.789  0.00  0.00    +0.010 C 
ATOM      3  C   LIG    1       -2.243   1.875  -0.703  0.00  0.00    +0.020 C 
ATOM      4  C   LIG    1       -0.809   1.622  -1.200  0.00  0.00    +0.020 C 
ATOM      5  C   LIG    1       -0.013   1.086   0.008  0.00  0.00    -0.020 C 
ENDROOT
BRANCH   1   8
ATOM      6  O   LIG    1       -1.001   2.445   3.797  0.00  0.00    -0.530 OA
ATOM      7  C   LIG    1       -0.663   1.286   3.653  0.00  0.00    +0.590 C 
ATOM      8  N   LIG    1       -0.528   0.772   2.414  0.00  0.00    -0.720 N 
ATOM      9  H   LIG    1       -0.258  -0.152   2.299  0.00  0.00    +0.400 HD
BRANCH   7  10
ATOM     10  C   LIG    1       -0.400   0.442   4.834  0.00  0.00    -0.170 A 
ATOM     11  C   LIG    1       -0.017  -0.885   4.823  0.00  0.00    +0.160 A 
ATOM     12  N   LIG    1        0.129  -1.305   6.099  0.00  0.00    -0.340 N 
ATOM     13  C   LIG    1        0.492  -2.526   6.616  0.00  0.00    +0.190 A 
ATOM     14  C   LIG    1        0.564  -2.716   7.946  0.00  0.00    +0.020 A 
ATOM     15  C   LIG    1        0.268  -1.667   8.836  0.00  0.00    +0.010 A 
ATOM     16  C   LIG    1       -0.093  -0.452   8.350  0.00  0.00    +0.080 A 
ATOM     17  C   LIG    1       -0.167  -0.261   6.950  0.00  0.00    +0.030 A 
ATOM     18  C   LIG    1       -0.499   0.838   6.185  0.00  0.00    +0.030 A 
ENDBRANCH   7  10
ENDBRANCH   1   8
BRANCH   5  19
ATOM     19  C   LIG    1        1.414   1.639  -0.003  0.00  0.00    +0.280 C 
BRANCH  19  20
ATOM     20  N   LIG    1        2.150   1.071  -1.134  0.00  0.00    -0.730 N 
ATOM     21  H   LIG    1        1.712   0.445  -1.732  0.00  0.00    +0.400 HD
ATOM     22  C   LIG    1        3.435   1.417  -1.345  0.00  0.00    +0.530 C 
ATOM     23  O   LIG    1        3.982   2.200  -0.597  0.00  0.00    -0.520 OA
BRANCH  22  24
ATOM     24  C   LIG    1        4.192   0.832  -2.509  0.00  0.00    +0.010 C 
ATOM     25  C   LIG    1        5.623   0.356  -2.253  0.00  0.00    +0.050 C 
ATOM     26  C   LIG    1        5.374   1.634  -3.057  0.00  0.00    +0.100 C 
BRANCH  24  27
ATOM     27  O   LIG    1        3.407   0.091  -3.445  0.00  0.00    -0.520 OA
ATOM     28  H   LIG    1        2.675  -0.398  -3.044  0.00  0.00    +0.380 HD
ENDBRANCH  24  27
ENDBRANCH  22  24
ENDBRANCH  19  20
ENDBRANCH   5  19
TORSDOF 6
