REMARK  Name = ZINC550000001I4H.0
REMARK                            x       y       z     vdW  Elec       q    Type
REMARK                         _______ _______ _______ _____ _____    ______ ____
ROOT
ATOM      1  C   LIG    1       -1.974   1.174   1.366  0.00  0.00    +0.650 C 
ATOM      2  O   LIG    1       -2.509   0.470   0.532  0.00  0.00    -0.570 OA
ATOM      3  N   LIG    1       -2.662   1.574   2.453  0.00  0.00    -0.830 N 
ATOM      4  H   LIG    1       -3.585   1.300   2.570  0.00  0.00    +0.430 HD
ATOM      5  H   LIG    1       -2.235   2.136   3.118  0.00  0.00    +0.410 HD
ENDROOT
BRANCH   1   7
ATOM      6  C   LIG    1       -0.013   1.086   0.008  0.00  0.00    +0.310 C 
ATOM      7  O   LIG    1       -0.692   1.554   1.203  0.00  0.00    -0.370 OA
ENDBRANCH   1   7
TORSDOF 1
