REMARK  Name = ZINCvU0000000IHW.0
REMARK                            x       y       z     vdW  Elec       q    Type
REMARK                         _______ _______ _______ _____ _____    ______ ____
ROOT
ATOM      1  N   LIG    1       -2.536   8.802  -0.493  0.00  0.00    -0.480 N 
ATOM      2  C   LIG    1       -2.370  10.142  -0.581  0.00  0.00    +0.550 A 
ATOM      3  C   LIG    1       -0.996  10.659  -0.569  0.00  0.00    -0.200 A 
ATOM      4  C   LIG    1       -0.724  12.024  -0.655  0.00  0.00    +0.100 A 
ATOM      5  C   LIG    1        0.584  12.458  -0.639  0.00  0.00    +0.000 A 
ATOM      6  C   LIG    1        1.629  11.549  -0.538  0.00  0.00    +0.070 A 
ATOM      7  C   LIG    1        1.384  10.198  -0.453  0.00  0.00    +0.030 A 
ATOM      8  C   LIG    1        0.066   9.731  -0.467  0.00  0.00    +0.160 A 
ATOM      9  N   LIG    1       -0.218   8.411  -0.379  0.00  0.00    -0.530 NA
ATOM     10  O   LIG    1       -3.326  10.891  -0.667  0.00  0.00    -0.490 OA
ATOM     11  C   LIG    1       -1.453   7.973  -0.397  0.00  0.00    +0.360 A 
ENDROOT
BRANCH   1  17
ATOM     12  C   LIG    1       -6.352   6.987  -3.009  0.00  0.00    +0.100 C 
ATOM     13  C   LIG    1       -5.701   7.371  -1.706  0.00  0.00    -0.080 A 
ATOM     14  C   LIG    1       -6.379   7.188  -0.515  0.00  0.00    +0.040 A 
ATOM     15  C   LIG    1       -5.784   7.539   0.684  0.00  0.00    +0.020 A 
ATOM     16  C   LIG    1       -4.509   8.069   0.695  0.00  0.00    +0.040 A 
ATOM     17  C   LIG    1       -3.828   8.259  -0.501  0.00  0.00    +0.090 A 
ATOM     18  C   LIG    1       -4.427   7.906  -1.702  0.00  0.00    -0.050 A 
ATOM     19  C   LIG    1       -3.689   8.105  -3.001  0.00  0.00    +0.100 C 
ENDBRANCH   1  17
BRANCH  11  20
ATOM     20  S   LIG    1       -1.730   6.236  -0.285  0.00  0.00    +0.100 S 
BRANCH  20  21
ATOM     21  C   LIG    1       -0.021   5.651  -0.184  0.00  0.00    +0.120 C 
BRANCH  21  22
ATOM     22  C   LIG    1       -0.010   4.147  -0.078  0.00  0.00    +0.540 C 
ATOM     23  N   LIG    1        1.161   3.486   0.009  0.00  0.00    -0.660 N 
ATOM     24  H   LIG    1        1.992   3.980   0.085  0.00  0.00    +0.420 HD
ATOM     25  O   LIG    1       -1.056   3.533  -0.072  0.00  0.00    -0.500 OA
BRANCH  23  26
ATOM     26  C   LIG    1        1.177   2.087  -0.009  0.00  0.00    +0.160 A 
ATOM     27  C   LIG    1        0.141   1.386  -0.611  0.00  0.00    +0.030 A 
ATOM     28  C   LIG    1        0.160   0.005  -0.627  0.00  0.00    +0.050 A 
ATOM     29  C   LIG    1        1.210  -0.681  -0.046  0.00  0.00    +0.020 A 
ATOM     30  C   LIG    1        2.245   0.013   0.554  0.00  0.00    +0.050 A 
ATOM     31  C   LIG    1        2.233   1.395   0.574  0.00  0.00    -0.070 A 
ATOM     32 CL   LIG    1        3.532   2.265   1.328  0.00  0.00    -0.060 Cl
ENDBRANCH  23  26
ENDBRANCH  21  22
ENDBRANCH  20  21
ENDBRANCH  11  20
TORSDOF 5
