REMARK  Name = ZINCqH0000005XVu.0
REMARK                            x       y       z     vdW  Elec       q    Type
REMARK                         _______ _______ _______ _____ _____    ______ ____
ROOT
ATOM      1  O   LIG    1       -0.290   1.274  -2.438  0.00  0.00    -0.280 OA
ENDROOT
BRANCH   1   5
ATOM      2  C   LIG    1       -2.602   2.466  -5.649  0.00  0.00    -0.080 A 
ATOM      3  C   LIG    1       -2.814   1.220  -5.055  0.00  0.00    +0.070 A 
ATOM      4  C   LIG    1       -2.037   0.824  -3.988  0.00  0.00    +0.060 A 
ATOM      5  C   LIG    1       -1.050   1.666  -3.494  0.00  0.00    +0.090 A 
ATOM      6  C   LIG    1       -0.833   2.912  -4.082  0.00  0.00    +0.120 A 
ATOM      7  C   LIG    1       -1.604   3.312  -5.155  0.00  0.00    +0.020 A 
BRANCH   2   8
ATOM      8  C   LIG    1       -3.429   2.889  -6.795  0.00  0.00    +0.510 C 
ATOM      9  O   LIG    1       -3.244   3.974  -7.311  0.00  0.00    -0.500 OA
BRANCH   8  11
ATOM     10  C   LIG    1       -5.165   2.554  -8.400  0.00  0.00    +0.290 C 
ATOM     11  O   LIG    1       -4.390   2.073  -7.270  0.00  0.00    -0.350 OA
ENDBRANCH   8  11
ENDBRANCH   2   8
BRANCH   6  12
ATOM     12  O   LIG    1        0.139   3.732  -3.599  0.00  0.00    -0.300 OA
ATOM     13  C   LIG    1        0.306   4.992  -4.250  0.00  0.00    +0.250 C 
ENDBRANCH   6  12
ENDBRANCH   1   5
BRANCH   1  14
ATOM     14  C   LIG    1       -0.695   1.660  -1.218  0.00  0.00    +0.460 C 
ATOM     15  O   LIG    1       -1.642   2.403  -1.103  0.00  0.00    -0.490 OA
BRANCH  14  16
ATOM     16  C   LIG    1        0.030   1.168   0.008  0.00  0.00    +0.110 C 
BRANCH  16  17
ATOM     17  C   LIG    1       -0.628   1.753   1.259  0.00  0.00    +0.120 C 
BRANCH  17  18
ATOM     18  C   LIG    1        0.097   1.262   2.485  0.00  0.00    -0.120 A 
ATOM     19  C   LIG    1       -0.308   0.095   3.105  0.00  0.00    +0.070 A 
ATOM     20  C   LIG    1        0.358  -0.361   4.226  0.00  0.00    -0.060 A 
ATOM     21  C   LIG    1        1.429   0.358   4.736  0.00  0.00    +0.160 A 
ATOM     22  C   LIG    1        1.831   1.532   4.115  0.00  0.00    -0.120 A 
ATOM     23 BR   LIG    1        3.291   2.516   4.806  0.00  0.00    -0.030 Br
ATOM     24  C   LIG    1        1.164   1.981   2.991  0.00  0.00    +0.090 A 
BRANCH  21  25
ATOM     25  O   LIG    1        2.082  -0.086   5.842  0.00  0.00    -0.300 OA
ATOM     26  C   LIG    1        1.613  -1.302   6.428  0.00  0.00    +0.250 C 
ENDBRANCH  21  25
ENDBRANCH  17  18
ENDBRANCH  16  17
ENDBRANCH  14  16
ENDBRANCH   1  14
TORSDOF 9
