REMARK  Name = ZINCqH0000008waI.0
REMARK                            x       y       z     vdW  Elec       q    Type
REMARK                         _______ _______ _______ _____ _____    ______ ____
ROOT
ATOM      1  C   LIG    1       -2.379   1.898   0.126  0.00  0.00    +0.540 C 
ATOM      2  N   LIG    1       -1.174   2.498   0.188  0.00  0.00    -0.500 N 
ATOM      3  O   LIG    1       -3.382   2.565  -0.016  0.00  0.00    -0.490 OA
ENDROOT
BRANCH   2   4
ATOM      4  C   LIG    1        0.045   1.688   0.248  0.00  0.00    +0.240 C 
ATOM      5  C   LIG    1        0.804   2.004   1.538  0.00  0.00    +0.020 C 
ATOM      6  C   LIG    1        2.078   1.159   1.601  0.00  0.00    +0.020 C 
ATOM      7  C   LIG    1        2.964   1.481   0.396  0.00  0.00    +0.010 C 
ATOM      8  C   LIG    1        2.204   1.165  -0.895  0.00  0.00    +0.020 C 
ATOM      9  C   LIG    1        0.931   2.010  -0.957  0.00  0.00    +0.020 C 
ENDBRANCH   2   4
BRANCH   2  10
ATOM     10  C   LIG    1       -1.088   3.885   0.196  0.00  0.00    +0.240 A 
ATOM     11  N   LIG    1        0.007   4.561   0.352  0.00  0.00    -0.500 NA
ATOM     12  C   LIG    1       -0.095   5.876   0.339  0.00  0.00    +0.240 A 
ATOM     13  C   LIG    1       -1.336   6.335   0.163  0.00  0.00    -0.130 A 
ATOM     14  S   LIG    1       -2.413   4.950   0.009  0.00  0.00    +0.230 S 
ENDBRANCH   2  10
BRANCH   1  16
ATOM     15  C   LIG    1       -2.437  -0.013   1.705  0.00  0.00    +0.110 C 
ATOM     16  C   LIG    1       -2.481   0.398   0.232  0.00  0.00    +0.020 C 
BRANCH  16  17
ATOM     17  S   LIG    1       -4.039  -0.155  -0.504  0.00  0.00    +0.120 S 
BRANCH  17  18
ATOM     18  C   LIG    1       -3.831  -1.901  -0.385  0.00  0.00    +0.200 A 
ATOM     19  N   LIG    1       -2.792  -2.531   0.117  0.00  0.00    -0.330 NA
ATOM     20  N   LIG    1       -2.962  -3.803   0.050  0.00  0.00    -0.030 NA
ATOM     21  N   LIG    1       -4.101  -4.075  -0.489  0.00  0.00    -0.070 NA
ATOM     22  N   LIG    1       -4.714  -2.845  -0.788  0.00  0.00    -0.350 N 
BRANCH  22  23
ATOM     23  C   LIG    1       -6.025  -2.632  -1.406  0.00  0.00    +0.170 C 
ATOM     24  C   LIG    1       -6.914  -1.831  -0.453  0.00  0.00    +0.070 C 
ATOM     25  C   LIG    1       -6.678  -3.984  -1.697  0.00  0.00    +0.080 C 
ATOM     26  C   LIG    1       -5.852  -1.857  -2.714  0.00  0.00    +0.070 C 
ENDBRANCH  22  23
ENDBRANCH  17  18
ENDBRANCH  16  17
ENDBRANCH   1  16
TORSDOF 6
