REMARK  Name = ZINCrD000000fTBT.0
REMARK                            x       y       z     vdW  Elec       q    Type
REMARK                         _______ _______ _______ _____ _____    ______ ____
ROOT
ATOM      1  C   LIG    1       -1.463   2.273   2.943  0.00  0.00    +0.530 C 
ATOM      2  N   LIG    1       -0.963   2.640   1.746  0.00  0.00    -0.610 N 
ATOM      3  C   LIG    1        0.486   2.793   1.557  0.00  0.00    +0.280 C 
ATOM      4  C   LIG    1        0.764   4.186   0.983  0.00  0.00    +0.020 C 
ATOM      5  C   LIG    1       -0.061   4.383  -0.291  0.00  0.00    +0.230 C 
ATOM      6  C   LIG    1       -1.551   4.287   0.045  0.00  0.00    +0.000 C 
ATOM      7  C   LIG    1       -1.855   2.895   0.608  0.00  0.00    +0.280 C 
ATOM      8  O   LIG    1       -2.664   2.245   3.115  0.00  0.00    -0.530 OA
ENDROOT
BRANCH   1  14
ATOM      9  C   LIG    1        1.931   3.287   6.180  0.00  0.00    +0.530 C 
ATOM     10  N   LIG    1        0.703   2.768   5.982  0.00  0.00    -0.610 N 
ATOM     11  C   LIG    1        0.139   1.798   6.931  0.00  0.00    +0.260 C 
ATOM     12  C   LIG    1       -0.298   0.549   6.159  0.00  0.00    +0.010 C 
ATOM     13  C   LIG    1       -1.253   0.957   5.035  0.00  0.00    +0.050 C 
ATOM     14  C   LIG    1       -0.532   1.897   4.066  0.00  0.00    -0.020 C 
ATOM     15  C   LIG    1       -0.098   3.161   4.815  0.00  0.00    +0.290 C 
ATOM     16  O   LIG    1        2.350   4.151   5.439  0.00  0.00    -0.540 OA
BRANCH   9  18
ATOM     17  C   LIG    1        4.142   3.495   7.282  0.00  0.00    +0.050 C 
ATOM     18  C   LIG    1        2.783   2.794   7.321  0.00  0.00    -0.090 C 
ATOM     19  C   LIG    1        2.984   1.283   7.192  0.00  0.00    +0.050 C 
ATOM     20  C   LIG    1        2.087   3.105   8.648  0.00  0.00    +0.040 C 
ENDBRANCH   9  18
ENDBRANCH   1  14
BRANCH   5  21
ATOM     21  N   LIG    1        0.227   5.702  -0.860  0.00  0.00    -0.740 N 
ATOM     22  H   LIG    1        0.547   6.417  -0.288  0.00  0.00    +0.400 HD
BRANCH  21  23
ATOM     23  C   LIG    1        0.040   5.929  -2.225  0.00  0.00    +0.220 A 
ATOM     24  C   LIG    1       -0.413   4.904  -3.046  0.00  0.00    -0.080 A 
ATOM     25  C   LIG    1       -0.601   5.133  -4.395  0.00  0.00    +0.050 A 
ATOM     26  C   LIG    1       -0.329   6.379  -4.931  0.00  0.00    -0.060 A 
ATOM     27  C   LIG    1        0.128   7.400  -4.117  0.00  0.00    +0.050 A 
ATOM     28  C   LIG    1        0.313   7.179  -2.767  0.00  0.00    -0.080 A 
ENDBRANCH  21  23
ENDBRANCH   5  21
TORSDOF 4
