REMARK  Name = ZINCpe00000MJJNb.0
REMARK                            x       y       z     vdW  Elec       q    Type
REMARK                         _______ _______ _______ _____ _____    ______ ____
ROOT
ATOM      1  O   LIG    1        4.861   4.982   2.603  0.00  0.00    -0.530 OA
ATOM      2  C   LIG    1        3.903   4.356   3.017  0.00  0.00    +0.610 C 
ATOM      3  N   LIG    1        3.876   3.935   4.297  0.00  0.00    -0.680 N 
ATOM      4  H   LIG    1        3.083   3.499   4.647  0.00  0.00    +0.410 HD
ENDROOT
BRANCH   2   5
ATOM      5  C   LIG    1        2.772   4.059   2.118  0.00  0.00    -0.100 A 
ATOM      6  C   LIG    1        2.676   4.427   0.806  0.00  0.00    +0.300 A 
ATOM      7  N   LIG    1        1.495   3.961   0.355  0.00  0.00    -0.350 N 
ATOM      8  N   LIG    1        0.879   3.307   1.431  0.00  0.00    -0.040 NA
ATOM      9  N   LIG    1        1.661   3.380   2.451  0.00  0.00    -0.200 NA
BRANCH   7  10
ATOM     10  C   LIG    1        0.955   4.115  -0.998  0.00  0.00    +0.260 C 
ATOM     11  C   LIG    1        2.088   4.102  -2.047  0.00  0.00    +0.240 C 
ATOM     12  O   LIG    1        1.782   5.098  -3.029  0.00  0.00    -0.360 OA
ATOM     13  C   LIG    1        0.526   5.722  -2.721  0.00  0.00    +0.200 C 
ATOM     14  C   LIG    1        0.342   5.530  -1.195  0.00  0.00    +0.150 C 
BRANCH  14  15
ATOM     15  O   LIG    1       -1.041   5.548  -0.836  0.00  0.00    -0.540 OA
ATOM     16  H   LIG    1       -1.489   6.380  -1.041  0.00  0.00    +0.390 HD
ENDBRANCH  14  15
ENDBRANCH   7  10
ENDBRANCH   2   5
BRANCH   3  17
ATOM     17  C   LIG    1        5.044   4.134   5.159  0.00  0.00    +0.100 C 
ATOM     18  C   LIG    1        4.802   4.722   6.551  0.00  0.00    +0.040 C 
ATOM     19  C   LIG    1        5.458   5.575   5.464  0.00  0.00    +0.050 C 
BRANCH  17  20
ATOM     20  C   LIG    1        6.157   3.094   5.014  0.00  0.00    +0.130 C 
BRANCH  20  21
ATOM     21  C   LIG    1        5.595   1.719   5.270  0.00  0.00    -0.090 A 
ATOM     22  C   LIG    1        5.650   1.176   6.540  0.00  0.00    +0.050 A 
ATOM     23  C   LIG    1        5.130  -0.083   6.776  0.00  0.00    -0.010 A 
ATOM     24  C   LIG    1        4.566  -0.804   5.738  0.00  0.00    +0.100 A 
ATOM     25  C   LIG    1        4.517  -0.262   4.465  0.00  0.00    -0.020 A 
ATOM     26  F   LIG    1        4.064  -2.038   5.967  0.00  0.00    -0.140 F 
ATOM     27  C   LIG    1        5.032   1.000   4.232  0.00  0.00    +0.050 A 
ENDBRANCH  20  21
ENDBRANCH  17  20
ENDBRANCH   3  17
TORSDOF 6
