REMARK  Name = ZINCtV00001bB3nY.0
REMARK                            x       y       z     vdW  Elec       q    Type
REMARK                         _______ _______ _______ _____ _____    ______ ____
ROOT
ATOM      1  N   LIG    1        4.822  -0.079   0.198  0.00  0.00    -0.230 NA
ATOM      2  C   LIG    1        3.692  -0.682  -0.017  0.00  0.00    +0.140 C 
ATOM      3  C   LIG    1        3.621  -2.176  -0.280  0.00  0.00    +0.060 C 
ATOM      4  C   LIG    1        2.390  -2.708   0.468  0.00  0.00    +0.240 C 
ATOM      5  O   LIG    1        1.223  -2.034  -0.001  0.00  0.00    -0.300 OA
ATOM      6  C   LIG    1        1.210  -0.678  -0.006  0.00  0.00    +0.160 A 
ATOM      7  C   LIG    1        0.002   0.002  -0.002  0.00  0.00    -0.010 A 
ATOM      8  C   LIG    1       -0.014   1.385  -0.012  0.00  0.00    +0.060 A 
ATOM      9  C   LIG    1        1.169   2.104  -0.028  0.00  0.00    -0.020 A 
ATOM     10  C   LIG    1        2.381   1.443  -0.033  0.00  0.00    +0.090 A 
ATOM     11  C   LIG    1        2.407   0.051  -0.020  0.00  0.00    -0.120 A 
ENDROOT
BRANCH   4  12
ATOM     12  C   LIG    1        2.251  -4.188   0.218  0.00  0.00    -0.090 A 
ATOM     13  C   LIG    1        1.684  -4.640  -0.959  0.00  0.00    +0.040 A 
ATOM     14  C   LIG    1        1.560  -5.997  -1.190  0.00  0.00    +0.010 A 
ATOM     15  C   LIG    1        1.995  -6.902  -0.240  0.00  0.00    +0.020 A 
ATOM     16  C   LIG    1        2.558  -6.450   0.939  0.00  0.00    +0.010 A 
ATOM     17  C   LIG    1        2.685  -5.093   1.168  0.00  0.00    +0.020 A 
ENDBRANCH   4  12
BRANCH   1  18
ATOM     18  N   LIG    1        6.007  -0.821   0.286  0.00  0.00    -0.580 N 
ATOM     19  H   LIG    1        5.996  -1.775   0.109  0.00  0.00    +0.400 HD
BRANCH  18  24
ATOM     20  C   LIG    1        8.406   1.799   1.222  0.00  0.00    -0.140 A 
ATOM     21  C   LIG    1        9.575   1.065   1.308  0.00  0.00    +0.040 A 
ATOM     22  C   LIG    1        9.562  -0.295   1.056  0.00  0.00    +0.080 A 
ATOM     23  C   LIG    1        8.380  -0.925   0.717  0.00  0.00    -0.080 A 
ATOM     24  C   LIG    1        7.203  -0.189   0.629  0.00  0.00    +0.230 A 
ATOM     25 CL   LIG    1        8.364  -2.632   0.402  0.00  0.00    -0.060 Cl
ATOM     26  C   LIG    1        7.222   1.178   0.877  0.00  0.00    +0.050 A 
BRANCH  20  28
ATOM     27  F   LIG    1        9.729   3.678   1.816  0.00  0.00    -0.170 F 
ATOM     28  C   LIG    1        8.426   3.281   1.497  0.00  0.00    +0.510 C 
ATOM     29  F   LIG    1        7.575   3.567   2.569  0.00  0.00    -0.170 F 
ATOM     30  F   LIG    1        7.993   3.972   0.360  0.00  0.00    -0.170 F 
ENDBRANCH  20  28
ENDBRANCH  18  24
ENDBRANCH   1  18
TORSDOF 4
