REMARK  Name = ZINCtV00000pEzKO.0
REMARK                            x       y       z     vdW  Elec       q    Type
REMARK                         _______ _______ _______ _____ _____    ______ ____
ROOT
ATOM      1  C   LIG    1        1.154   3.171   0.007  0.00  0.00    +0.150 A 
ATOM      2  C   LIG    1       -0.030   3.873   0.022  0.00  0.00    -0.010 A 
ATOM      3  C   LIG    1       -1.249   3.176   0.031  0.00  0.00    +0.190 A 
ATOM      4  N   LIG    1       -2.414   3.835   0.045  0.00  0.00    -0.490 NA
ATOM      5  C   LIG    1       -3.570   3.199   0.053  0.00  0.00    +0.160 A 
ATOM      6  C   LIG    1       -3.638   1.802   0.047  0.00  0.00    -0.020 A 
ATOM      7  C   LIG    1       -2.469   1.060   0.032  0.00  0.00    +0.050 A 
ATOM      8  C   LIG    1       -1.234   1.761   0.017  0.00  0.00    -0.130 A 
ATOM      9  C   LIG    1       -0.013   1.076   0.008  0.00  0.00    +0.090 A 
ATOM     10  C   LIG    1        1.157   1.774   0.001  0.00  0.00    -0.050 A 
ENDROOT
BRANCH   7  11
ATOM     11  C   LIG    1       -2.505  -0.421   0.026  0.00  0.00    -0.060 A 
ATOM     12  C   LIG    1       -1.760  -1.136  -0.913  0.00  0.00    +0.030 A 
ATOM     13  C   LIG    1       -1.794  -2.515  -0.910  0.00  0.00    +0.010 A 
ATOM     14  C   LIG    1       -2.572  -3.189   0.014  0.00  0.00    +0.020 A 
ATOM     15  C   LIG    1       -3.317  -2.486   0.944  0.00  0.00    +0.010 A 
ATOM     16  C   LIG    1       -3.287  -1.107   0.955  0.00  0.00    +0.030 A 
ENDBRANCH   7  11
BRANCH   1  18
ATOM     17  C   LIG    1        3.529   3.061  -0.016  0.00  0.00    +0.240 C 
ATOM     18  O   LIG    1        2.334   3.845  -0.001  0.00  0.00    -0.310 OA
ENDBRANCH   1  18
BRANCH   5  19
ATOM     19  S   LIG    1       -5.064   4.132   0.073  0.00  0.00    -0.030 S 
BRANCH  19  20
ATOM     20  C   LIG    1       -4.387   5.811   0.075  0.00  0.00    +0.110 C 
BRANCH  20  21
ATOM     21  C   LIG    1       -5.533   6.823   0.091  0.00  0.00    +0.210 C 
BRANCH  21  22
ATOM     22  O   LIG    1       -4.998   8.148   0.093  0.00  0.00    -0.310 OA
BRANCH  22  23
ATOM     23  C   LIG    1       -5.891   9.174   0.106  0.00  0.00    +0.120 A 
ATOM     24  C   LIG    1       -7.252   8.910   0.113  0.00  0.00    -0.040 A 
ATOM     25  C   LIG    1       -8.158   9.953   0.131  0.00  0.00    +0.030 A 
ATOM     26  C   LIG    1       -7.707  11.262   0.134  0.00  0.00    +0.060 A 
ATOM     27  C   LIG    1       -6.348  11.527   0.123  0.00  0.00    +0.030 A 
ATOM     28  F   LIG    1       -8.593  12.281   0.147  0.00  0.00    -0.140 F 
ATOM     29  C   LIG    1       -5.440  10.486   0.109  0.00  0.00    +0.020 A 
ENDBRANCH  22  23
ENDBRANCH  21  22
ENDBRANCH  20  21
ENDBRANCH  19  20
ENDBRANCH   5  19
TORSDOF 7
