REMARK  Name = ZINCpe000000TUrh.0
REMARK                            x       y       z     vdW  Elec       q    Type
REMARK                         _______ _______ _______ _____ _____    ______ ____
ROOT
ATOM      1  N   LIG    1       -3.473   3.309   1.141  0.00  0.00    -0.530 NA
ATOM      2  C   LIG    1       -2.191   4.027   1.154  0.00  0.00    +0.180 C 
ATOM      3  C   LIG    1       -1.326   3.543  -0.015  0.00  0.00    +0.300 C 
ATOM      4  N   LIG    1       -1.219   2.078   0.059  0.00  0.00    -0.600 N 
ATOM      5  C   LIG    1       -2.458   1.295   0.180  0.00  0.00    +0.300 C 
ATOM      6  C   LIG    1       -0.018   1.469   0.010  0.00  0.00    +0.600 C 
ATOM      7  O   LIG    1        0.048   0.255   0.000  0.00  0.00    -0.550 OA
ATOM      8  C   LIG    1       -3.278   1.868   1.347  0.00  0.00    +0.170 C 
ENDROOT
BRANCH   6   9
ATOM      9  C   LIG    1        1.215   2.274  -0.025  0.00  0.00    -0.060 A 
ATOM     10  C   LIG    1        2.491   1.799   0.059  0.00  0.00    +0.230 A 
ATOM     11  N   LIG    1        3.315   2.870  -0.013  0.00  0.00    -0.460 N 
ATOM     12  C   LIG    1        2.541   3.980  -0.139  0.00  0.00    +0.400 A 
ATOM     13  C   LIG    1        4.779   2.839   0.035  0.00  0.00    +0.330 C 
ATOM     14  N   LIG    1        1.289   3.624  -0.152  0.00  0.00    -0.460 NA
ENDBRANCH   6   9
BRANCH   1  15
ATOM     15  C   LIG    1       -4.397   3.864   2.139  0.00  0.00    +0.350 C 
BRANCH  15  19
ATOM     16  C   LIG    1       -6.949   1.443   2.859  0.00  0.00    +0.170 A 
ATOM     17  N   LIG    1       -7.491   2.159   1.920  0.00  0.00    -0.350 NA
ATOM     18  O   LIG    1       -6.732   3.039   1.572  0.00  0.00    +0.100 OA
ATOM     19  C   LIG    1       -5.596   2.960   2.270  0.00  0.00    +0.180 A 
ATOM     20  N   LIG    1       -5.725   1.949   3.095  0.00  0.00    -0.470 NA
BRANCH  16  21
ATOM     21  C   LIG    1       -7.576   0.263   3.555  0.00  0.00    +0.270 C 
ATOM     22  C   LIG    1       -8.633   0.757   4.545  0.00  0.00    +0.040 C 
BRANCH  21  23
ATOM     23  O   LIG    1       -8.190  -0.590   2.587  0.00  0.00    -0.370 OA
BRANCH  23  25
ATOM     24  C   LIG    1       -8.887  -2.784   1.852  0.00  0.00    +0.040 C 
ATOM     25  C   LIG    1       -8.209  -1.970   2.956  0.00  0.00    +0.160 C 
ENDBRANCH  23  25
ENDBRANCH  21  23
ENDBRANCH  16  21
ENDBRANCH  15  19
ENDBRANCH   1  15
TORSDOF 6
