REMARK  Name = ZINCrg00000BCb61.0
REMARK                            x       y       z     vdW  Elec       q    Type
REMARK                         _______ _______ _______ _____ _____    ______ ____
ROOT
ATOM      1  C   LIG    1       -5.883   3.122   0.043  0.00  0.00    +0.040 C 
ENDROOT
BRANCH   1   6
ATOM      2  C   LIG    1      -10.784   3.835   0.523  0.00  0.00    +0.520 C 
ATOM      3  N   LIG    1       -9.547   3.326   0.690  0.00  0.00    -0.620 N 
ATOM      4  C   LIG    1       -9.208   2.146   1.498  0.00  0.00    +0.250 C 
ATOM      5  C   LIG    1       -7.686   1.925   1.371  0.00  0.00    +0.040 C 
ATOM      6  C   LIG    1       -7.339   2.654   0.046  0.00  0.00    -0.010 C 
ATOM      7  C   LIG    1       -8.311   3.860   0.090  0.00  0.00    +0.260 C 
ATOM      8  O   LIG    1      -10.947   4.817  -0.170  0.00  0.00    -0.510 OA
BRANCH   2  13
ATOM      9  O   LIG    1      -15.020   4.791   1.387  0.00  0.00    -0.510 OA
ATOM     10  C   LIG    1      -13.931   4.288   1.583  0.00  0.00    +0.650 C 
ATOM     11  N   LIG    1      -13.225   3.676   0.623  0.00  0.00    -0.710 N 
ATOM     12  H   LIG    1      -13.499   3.575  -0.302  0.00  0.00    +0.440 HD
ATOM     13  C   LIG    1      -11.964   3.185   1.199  0.00  0.00    +0.210 C 
ATOM     14  C   LIG    1      -12.045   3.613   2.677  0.00  0.00    +0.290 C 
ATOM     15  O   LIG    1      -13.329   4.293   2.777  0.00  0.00    -0.320 OA
ENDBRANCH   2  13
ENDBRANCH   1   6
BRANCH   1  16
ATOM     16  C   LIG    1       -4.956   1.905   0.032  0.00  0.00    +0.260 C 
BRANCH  16  17
ATOM     17  N   LIG    1       -3.561   2.354   0.029  0.00  0.00    -0.730 N 
ATOM     18  H   LIG    1       -3.357   3.303   0.034  0.00  0.00    +0.400 HD
ATOM     19  C   LIG    1       -2.562   1.450   0.020  0.00  0.00    +0.590 C 
ATOM     20  O   LIG    1       -2.818   0.261   0.014  0.00  0.00    -0.530 OA
BRANCH  19  21
ATOM     21  C   LIG    1       -1.158   1.901   0.017  0.00  0.00    -0.170 A 
ATOM     22  C   LIG    1       -0.719   3.211   0.026  0.00  0.00    +0.160 A 
ATOM     23  N   LIG    1        0.632   3.216   0.013  0.00  0.00    -0.340 N 
ATOM     24  C   LIG    1        1.535   4.253   0.010  0.00  0.00    +0.190 A 
ATOM     25  C   LIG    1        2.858   4.012  -0.005  0.00  0.00    +0.020 A 
ATOM     26  C   LIG    1        3.346   2.691  -0.016  0.00  0.00    +0.010 A 
ATOM     27  C   LIG    1        2.474   1.651  -0.013  0.00  0.00    +0.080 A 
ATOM     28  C   LIG    1        1.085   1.913   0.002  0.00  0.00    +0.030 A 
ATOM     29  C   LIG    1       -0.013   1.076   0.008  0.00  0.00    +0.030 A 
ENDBRANCH  19  21
ENDBRANCH  16  17
ENDBRANCH   1  16
TORSDOF 5
