REMARK  Name = ZINCrg00000NEB4Q.0
REMARK                            x       y       z     vdW  Elec       q    Type
REMARK                         _______ _______ _______ _____ _____    ______ ____
ROOT
ATOM      1  C   LIG    1       -2.628   0.453   1.300  0.00  0.00    +0.510 C 
ATOM      2  N   LIG    1       -3.421   0.008   2.295  0.00  0.00    -0.610 N 
ATOM      3  C   LIG    1       -3.752   0.875   3.433  0.00  0.00    +0.260 C 
ATOM      4  C   LIG    1       -5.275   0.929   3.586  0.00  0.00    +0.030 C 
ATOM      5  C   LIG    1       -5.823  -0.495   3.701  0.00  0.00    +0.030 C 
ATOM      6  C   LIG    1       -5.493  -1.275   2.427  0.00  0.00    +0.110 C 
ATOM      7  C   LIG    1       -3.977  -1.352   2.258  0.00  0.00    +0.320 C 
ATOM      8  O   LIG    1       -2.363  -0.273   0.365  0.00  0.00    -0.500 OA
ENDROOT
BRANCH   6   9
ATOM      9  C   LIG    1       -6.062  -2.667   2.527  0.00  0.00    +0.500 C 
ATOM     10  N   LIG    1       -6.288  -3.385   1.409  0.00  0.00    -0.610 N 
ATOM     11  C   LIG    1       -5.930  -2.978   0.043  0.00  0.00    +0.260 C 
ATOM     12  C   LIG    1       -6.403  -4.098  -0.908  0.00  0.00    +0.020 C 
ATOM     13  C   LIG    1       -7.511  -4.806  -0.083  0.00  0.00    +0.040 C 
ATOM     14  C   LIG    1       -6.941  -4.705   1.354  0.00  0.00    +0.250 C 
ATOM     15  O   LIG    1       -6.316  -3.141   3.614  0.00  0.00    -0.530 OA
ENDBRANCH   6   9
BRANCH   6  16
ATOM     16  O   LIG    1       -6.062  -0.608   1.298  0.00  0.00    -0.530 OA
ATOM     17  H   LIG    1       -7.029  -0.586   1.301  0.00  0.00    +0.380 HD
ENDBRANCH   6  16
BRANCH   1  18
ATOM     18  C   LIG    1       -2.072   1.852   1.349  0.00  0.00    +0.090 C 
BRANCH  18  29
ATOM     19  O   LIG    1        0.046   0.013   0.134  0.00  0.00    -0.460 OA
ATOM     20  C   LIG    1        0.023   1.226   0.134  0.00  0.00    +0.530 C 
ATOM     21  N   LIG    1        1.089   2.044   0.151  0.00  0.00    -0.670 N 
ATOM     22  H   LIG    1        2.008   1.734   0.166  0.00  0.00    +0.410 HD
ATOM     23  C   LIG    1        0.722   3.390   0.145  0.00  0.00    +0.150 A 
ATOM     24  C   LIG    1        1.500   4.546   0.158  0.00  0.00    -0.010 A 
ATOM     25  C   LIG    1        0.896   5.787   0.149  0.00  0.00    +0.050 A 
ATOM     26  C   LIG    1       -0.482   5.893   0.126  0.00  0.00    -0.010 A 
ATOM     27  C   LIG    1       -1.261   4.749   0.114  0.00  0.00    +0.070 A 
ATOM     28  C   LIG    1       -0.662   3.510   0.123  0.00  0.00    -0.140 A 
ATOM     29  C   LIG    1       -1.211   2.102   0.109  0.00  0.00    +0.070 C 
ENDBRANCH  18  29
ENDBRANCH   1  18
TORSDOF 4
