REMARK  Name = ZINCqH0000001AvZ.0
REMARK                            x       y       z     vdW  Elec       q    Type
REMARK                         _______ _______ _______ _____ _____    ______ ____
ROOT
ATOM      1  C   LIG    1       -2.449   1.117   0.020  0.00  0.00    +0.240 C 
ENDROOT
BRANCH   1   2
ATOM      2  C   LIG    1       -3.537   1.963   0.630  0.00  0.00    +0.520 C 
ATOM      3  N   LIG    1       -4.789   1.476   0.737  0.00  0.00    -0.720 N 
ATOM      4  H   LIG    1       -4.990   0.581   0.422  0.00  0.00    +0.400 HD
ATOM      5  O   LIG    1       -3.285   3.082   1.024  0.00  0.00    -0.530 OA
BRANCH   3   6
ATOM      6  C   LIG    1       -5.846   2.298   1.331  0.00  0.00    +0.240 C 
ATOM      7  C   LIG    1       -5.815   2.149   2.853  0.00  0.00    +0.000 C 
ATOM      8  C   LIG    1       -6.919   3.008   3.473  0.00  0.00    +0.010 C 
ATOM      9  C   LIG    1       -8.280   2.550   2.943  0.00  0.00    +0.000 C 
ATOM     10  C   LIG    1       -8.311   2.699   1.421  0.00  0.00    +0.020 C 
ATOM     11  C   LIG    1       -7.207   1.840   0.801  0.00  0.00    +0.010 C 
ENDBRANCH   3   6
ENDBRANCH   1   2
BRANCH   1  12
ATOM     12  N   LIG    1       -1.191   1.867   0.018  0.00  0.00    -0.710 N 
ATOM     13  H   LIG    1       -1.204   2.837   0.023  0.00  0.00    +0.410 HD
ATOM     14  C   LIG    1       -0.014   1.209   0.009  0.00  0.00    +0.530 C 
ATOM     15  O   LIG    1        0.002  -0.004   0.002  0.00  0.00    -0.530 OA
BRANCH  14  16
ATOM     16  C   LIG    1        1.280   1.980   0.001  0.00  0.00    -0.070 C 
ATOM     17  C   LIG    1        1.361   2.854   1.254  0.00  0.00    +0.040 C 
ATOM     18  C   LIG    1        2.676   3.637   1.245  0.00  0.00    -0.010 C 
ATOM     19  C   LIG    1        2.733   4.524   0.000  0.00  0.00    +0.020 C 
ATOM     20  C   LIG    1        2.652   3.650  -1.253  0.00  0.00    -0.010 C 
ATOM     21  C   LIG    1        3.828   2.672  -1.270  0.00  0.00    +0.010 C 
ATOM     22  C   LIG    1        3.771   1.784  -0.024  0.00  0.00    -0.020 C 
ATOM     23  C   LIG    1        3.852   2.658   1.229  0.00  0.00    +0.010 C 
ATOM     24  C   LIG    1        1.337   2.867  -1.245  0.00  0.00    +0.040 C 
ATOM     25  C   LIG    1        2.457   1.002  -0.016  0.00  0.00    +0.050 C 
ENDBRANCH  14  16
ENDBRANCH   1  12
BRANCH   1  27
ATOM     26  C   LIG    1       -2.878   2.027  -2.267  0.00  0.00    +0.020 C 
ATOM     27  C   LIG    1       -2.830   0.756  -1.417  0.00  0.00    -0.020 C 
ATOM     28  C   LIG    1       -1.788  -0.204  -1.995  0.00  0.00    +0.030 C 
ENDBRANCH   1  27
TORSDOF 5
