REMARK  Name = ZINCvU0000000Fxg.0
REMARK                            x       y       z     vdW  Elec       q    Type
REMARK                         _______ _______ _______ _____ _____    ______ ____
ROOT
ATOM      1  C   LIG    1       -3.150   3.583  -1.379  0.00  0.00    +0.210 A 
ATOM      2  C   LIG    1       -3.897   4.120  -2.460  0.00  0.00    -0.150 A 
ATOM      3  C   LIG    1       -5.004   4.914  -2.148  0.00  0.00    +0.100 A 
ATOM      4  S   LIG    1       -5.771   5.466  -3.631  0.00  0.00    +0.190 S 
ATOM      5  C   LIG    1       -4.598   4.627  -4.628  0.00  0.00    -0.170 A 
ATOM      6  C   LIG    1       -4.605   4.634  -6.135  0.00  0.00    +0.160 C 
ATOM      7  N   LIG    1       -5.310   5.130  -0.862  0.00  0.00    -0.470 NA
ATOM      8  C   LIG    1       -4.587   4.609   0.102  0.00  0.00    +0.360 A 
ATOM      9  C   LIG    1       -3.709   3.988  -3.892  0.00  0.00    -0.080 A 
ATOM     10  C   LIG    1       -2.586   3.183  -4.492  0.00  0.00    +0.130 C 
ATOM     11  N   LIG    1       -3.534   3.850  -0.139  0.00  0.00    -0.520 NA
ENDROOT
BRANCH   1  12
ATOM     12  S   LIG    1       -1.740   2.571  -1.682  0.00  0.00    +0.040 S 
BRANCH  12  13
ATOM     13  C   LIG    1       -1.240   2.211   0.020  0.00  0.00    +0.230 C 
BRANCH  13  17
ATOM     14  C   LIG    1        1.976   0.607  -0.013  0.00  0.00    +0.220 A 
ATOM     15  N   LIG    1        1.147  -0.404  -0.011  0.00  0.00    -0.360 NA
ATOM     16  O   LIG    1        0.002  -0.004   0.002  0.00  0.00    +0.090 OA
ATOM     17  C   LIG    1       -0.016   1.333   0.009  0.00  0.00    +0.190 A 
ATOM     18  N   LIG    1        1.230   1.735  -0.000  0.00  0.00    -0.450 NA
BRANCH  14  25
ATOM     19  C   LIG    1        3.280  -1.976  -0.037  0.00  0.00    +0.110 C 
ATOM     20  C   LIG    1        4.095  -0.708  -0.039  0.00  0.00    -0.050 A 
ATOM     21  C   LIG    1        5.473  -0.773  -0.052  0.00  0.00    +0.000 A 
ATOM     22  C   LIG    1        6.223   0.390  -0.054  0.00  0.00    +0.040 A 
ATOM     23  C   LIG    1        5.596   1.623  -0.043  0.00  0.00    +0.000 A 
ATOM     24  C   LIG    1        4.218   1.699  -0.035  0.00  0.00    +0.070 A 
ATOM     25  C   LIG    1        3.458   0.531  -0.028  0.00  0.00    -0.040 A 
ENDBRANCH  14  25
ENDBRANCH  13  17
ENDBRANCH  12  13
ENDBRANCH   1  12
BRANCH   8  26
ATOM     26  C   LIG    1       -4.975   4.884   1.532  0.00  0.00    +0.300 C 
BRANCH  26  27
ATOM     27  N   LIG    1       -5.908   3.848   1.994  0.00  0.00    -0.510 NA
ATOM     28  C   LIG    1       -5.356   2.490   1.755  0.00  0.00    +0.160 C 
ATOM     29  C   LIG    1       -6.164   1.601   2.734  0.00  0.00    +0.020 C 
ATOM     30  C   LIG    1       -6.318   2.508   3.977  0.00  0.00    +0.010 C 
ATOM     31  C   LIG    1       -6.125   3.943   3.454  0.00  0.00    +0.170 C 
ENDBRANCH  26  27
ENDBRANCH   8  26
TORSDOF 6
