REMARK  Name = ZINCah0000006ldd.0
REMARK                            x       y       z     vdW  Elec       q    Type
REMARK                         _______ _______ _______ _____ _____    ______ ____
ROOT
ATOM      1  C   LIG    1       -0.753   1.593  -1.232  0.00  0.00    -0.130 C 
ATOM      2  C   LIG    1       -0.996   3.134  -1.386  0.00  0.00    +0.240 C 
ATOM      3  O   LIG    1       -1.673   3.135  -2.674  0.00  0.00    -0.340 OA
ATOM      4  C   LIG    1       -1.707   1.714  -3.008  0.00  0.00    -0.010 C 
ATOM      5  C   LIG    1       -2.072   0.905  -1.702  0.00  0.00    +0.060 C 
ATOM      6  C   LIG    1       -0.283   1.215  -2.662  0.00  0.00    +0.030 C 
ENDROOT
BRANCH   1   8
ATOM      7  C   LIG    1       -0.729   1.579   1.267  0.00  0.00    +0.030 C 
ATOM      8  C   LIG    1       -0.013   1.086   0.008  0.00  0.00    +0.050 C 
ENDBRANCH   1   8
BRANCH   4   9
ATOM      9  C   LIG    1       -2.332   1.329  -4.324  0.00  0.00    +0.510 C 
ATOM     10  O   LIG    1       -1.704   0.676  -5.123  0.00  0.00    -0.440 OA
ENDBRANCH   4   9
TORSDOF 2
