REMARK  Name = ZINCrD000000D5Zv.0
REMARK                            x       y       z     vdW  Elec       q    Type
REMARK                         _______ _______ _______ _____ _____    ______ ____
ROOT
ATOM      1  O   LIG    1       -2.691   0.254   0.365  0.00  0.00    -0.900 OA
ATOM      2  S   LIG    1       -2.398  -1.123   0.168  0.00  0.00    +2.670 S 
ATOM      3  O   LIG    1       -1.271  -1.768   0.745  0.00  0.00    -0.930 OA
ENDROOT
BRANCH   2   4
ATOM      4  C   LIG    1       -3.816  -2.016   0.712  0.00  0.00    -0.730 A 
ATOM      5  C   LIG    1       -3.729  -3.379   0.940  0.00  0.00    +0.220 A 
ATOM      6  C   LIG    1       -4.844  -4.082   1.369  0.00  0.00    +0.040 A 
ATOM      7  C   LIG    1       -6.045  -3.421   1.569  0.00  0.00    +0.150 A 
ATOM      8  C   LIG    1       -6.131  -2.057   1.341  0.00  0.00    +0.030 A 
ATOM      9  F   LIG    1       -7.301  -1.412   1.537  0.00  0.00    -0.090 F 
ATOM     10  F   LIG    1       -7.131  -4.106   1.988  0.00  0.00    -0.080 F 
ATOM     11  F   LIG    1       -4.759  -5.412   1.591  0.00  0.00    -0.090 F 
ATOM     12  F   LIG    1       -2.559  -4.024   0.739  0.00  0.00    -0.080 F 
ATOM     13  C   LIG    1       -5.015  -1.355   0.912  0.00  0.00    +0.230 A 
ATOM     14  F   LIG    1       -5.098  -0.025   0.690  0.00  0.00    -0.060 F 
ENDBRANCH   2   4
BRANCH   2  15
ATOM     15  N   LIG    1       -2.277  -1.345  -1.469  0.00  0.00    -0.980 NA
ATOM     16  C   LIG    1       -1.870  -2.644  -2.026  0.00  0.00    +0.280 C 
ATOM     17  C   LIG    1       -0.725  -2.412  -3.017  0.00  0.00    +0.180 C 
ATOM     18  N   LIG    1       -1.136  -1.411  -4.010  0.00  0.00    -0.690 NA
ATOM     19  H   LIG    1       -0.448  -1.325  -4.743  0.00  0.00    +0.350 HD
ATOM     20  C   LIG    1       -1.401  -0.111  -3.380  0.00  0.00    +0.200 C 
ATOM     21  C   LIG    1       -2.580  -0.251  -2.404  0.00  0.00    +0.290 C 
BRANCH  21  22
ATOM     22  C   LIG    1       -2.761   1.034  -1.638  0.00  0.00    -0.070 A 
ATOM     23  C   LIG    1       -1.661   1.801  -1.306  0.00  0.00    +0.040 A 
ATOM     24  C   LIG    1       -1.827   2.981  -0.603  0.00  0.00    +0.030 A 
ATOM     25  C   LIG    1       -3.093   3.392  -0.232  0.00  0.00    +0.030 A 
ATOM     26  C   LIG    1       -4.194   2.625  -0.563  0.00  0.00    +0.040 A 
ATOM     27  C   LIG    1       -4.029   1.448  -1.272  0.00  0.00    +0.000 A 
ATOM     28 CL   LIG    1       -5.412   0.488  -1.695  0.00  0.00    -0.080 Cl
ENDBRANCH  21  22
ENDBRANCH   2  15
TORSDOF 3
