REMARK  Name = ZINCrg00000yV57F.0
REMARK                            x       y       z     vdW  Elec       q    Type
REMARK                         _______ _______ _______ _____ _____    ______ ____
ROOT
ATOM      1  C   LIG    1       -2.450  -2.731   0.011  0.00  0.00    +0.570 C 
ATOM      2  N   LIG    1       -3.611  -2.052  -0.076  0.00  0.00    -0.590 N 
ATOM      3  C   LIG    1       -3.615  -0.586  -0.173  0.00  0.00    +0.300 C 
ATOM      4  C   LIG    1       -4.514  -0.017   0.923  0.00  0.00    +0.000 C 
ATOM      5  C   LIG    1       -5.900  -0.658   0.824  0.00  0.00    +0.130 C 
ATOM      6  C   LIG    1       -6.813  -0.065   1.900  0.00  0.00    +0.050 C 
ATOM      7  C   LIG    1       -6.794   1.468   1.800  0.00  0.00    +0.270 C 
ATOM      8  C   LIG    1       -6.984   1.829   0.345  0.00  0.00    -0.010 A 
ATOM      9  N   LIG    1       -7.319   2.972  -0.175  0.00  0.00    -0.260 NA
ATOM     10  N   LIG    1       -7.374   2.819  -1.570  0.00  0.00    -0.370 N 
ATOM     11  C   LIG    1       -7.055   1.528  -1.863  0.00  0.00    +0.210 A 
ATOM     12  C   LIG    1       -7.715   3.864  -2.538  0.00  0.00    +0.370 C 
ATOM     13  C   LIG    1       -6.809   0.899  -0.699  0.00  0.00    -0.020 A 
ATOM     14  C   LIG    1       -5.783  -2.170   1.030  0.00  0.00    +0.060 C 
ATOM     15  O   LIG    1       -6.448  -0.399  -0.476  0.00  0.00    -0.280 OA
ATOM     16  C   LIG    1       -4.897  -2.763  -0.069  0.00  0.00    +0.290 C 
ATOM     17  O   LIG    1       -1.403  -2.130   0.141  0.00  0.00    -0.520 OA
ENDROOT
BRANCH   1  20
ATOM     18  C   LIG    1       -3.566  -6.198  -0.427  0.00  0.00    +0.560 A 
ATOM     19  N   LIG    1       -3.560  -4.876  -0.375  0.00  0.00    -0.550 NA
ATOM     20  C   LIG    1       -2.452  -4.215  -0.052  0.00  0.00    +0.180 A 
ATOM     21  C   LIG    1       -1.289  -4.936   0.221  0.00  0.00    -0.070 A 
ATOM     22  C   LIG    1       -1.339  -6.321   0.149  0.00  0.00    +0.230 A 
ATOM     23  C   LIG    1       -0.110  -7.144   0.436  0.00  0.00    +0.160 C 
ATOM     24  N   LIG    1       -2.477  -6.910  -0.173  0.00  0.00    -0.550 NA
BRANCH  18  26
ATOM     25  C   LIG    1       -4.765  -8.317  -0.829  0.00  0.00    +0.300 C 
ATOM     26  N   LIG    1       -4.739  -6.854  -0.760  0.00  0.00    -0.700 N 
ATOM     27  H   LIG    1       -5.544  -6.345  -0.945  0.00  0.00    +0.420 HD
ENDBRANCH  18  26
ENDBRANCH   1  20
BRANCH   7  28
ATOM     28  O   LIG    1       -7.858   2.019   2.579  0.00  0.00    -0.550 OA
ATOM     29  H   LIG    1       -7.920   2.983   2.534  0.00  0.00    +0.390 HD
ENDBRANCH   7  28
TORSDOF 3
