REMARK  Name = ZINCvU0000000Hkq.0
REMARK                            x       y       z     vdW  Elec       q    Type
REMARK                         _______ _______ _______ _____ _____    ______ ____
ROOT
ATOM      1  C   LIG    1       -2.454   0.984   0.029  0.00  0.00    -0.080 A 
ATOM      2  C   LIG    1       -2.438  -0.415   0.021  0.00  0.00    +0.040 A 
ATOM      3  C   LIG    1       -3.623  -1.118   0.033  0.00  0.00    -0.040 A 
ATOM      4  C   LIG    1       -4.835  -0.441   0.042  0.00  0.00    +0.120 A 
ATOM      5  C   LIG    1       -4.859   0.954   0.045  0.00  0.00    +0.100 A 
ATOM      6  C   LIG    1       -3.676   1.665   0.038  0.00  0.00    -0.010 A 
ENDROOT
BRANCH   1   8
ATOM      7  C   LIG    1       -0.013   1.076   0.013  0.00  0.00    -0.090 C 
ATOM      8  C   LIG    1       -1.191   1.736   0.022  0.00  0.00    +0.130 C 
BRANCH   7  14
ATOM      9  C   LIG    1        4.631   1.424  -0.910  0.00  0.00    -0.070 C 
ATOM     10  C   LIG    1        4.784  -0.095  -0.811  0.00  0.00    +0.020 C 
ATOM     11  C   LIG    1        3.422  -0.761  -1.018  0.00  0.00    +0.010 C 
ATOM     12  C   LIG    1        2.459  -0.299   0.086  0.00  0.00    +0.260 C 
ATOM     13  N   LIG    1        2.419   1.170   0.087  0.00  0.00    -0.610 N 
ATOM     14  C   LIG    1        1.244   1.824   0.000  0.00  0.00    +0.550 C 
ATOM     15  O   LIG    1        1.229   3.038  -0.089  0.00  0.00    -0.540 OA
ATOM     16  C   LIG    1        4.056   1.792  -2.279  0.00  0.00    +0.030 C 
ATOM     17  C   LIG    1        3.683   1.911   0.190  0.00  0.00    +0.290 C 
BRANCH   9  18
ATOM     18  C   LIG    1        5.999   2.088  -0.736  0.00  0.00    +0.020 C 
BRANCH  18  20
ATOM     19  C   LIG    1        7.212   4.271  -0.657  0.00  0.00    +0.000 C 
ATOM     20  C   LIG    1        5.844   3.607  -0.831  0.00  0.00    +0.000 C 
ENDBRANCH  18  20
ENDBRANCH   9  18
ENDBRANCH   7  14
ENDBRANCH   1   8
BRANCH   5  21
ATOM     21  O   LIG    1       -6.049   1.613   0.053  0.00  0.00    -0.300 OA
ATOM     22  C   LIG    1       -6.000   3.041   0.055  0.00  0.00    +0.240 C 
ENDBRANCH   5  21
BRANCH   4  23
ATOM     23  O   LIG    1       -6.000  -1.139   0.049  0.00  0.00    -0.290 OA
BRANCH  23  24
ATOM     24  C   LIG    1       -5.903  -2.564   0.046  0.00  0.00    +0.300 C 
BRANCH  24  25
ATOM     25  C   LIG    1       -7.286  -3.162   0.055  0.00  0.00    -0.220 A 
ATOM     26  C   LIG    1       -8.059  -3.492  -1.007  0.00  0.00    +0.010 A 
ATOM     27  O   LIG    1       -9.199  -3.988  -0.507  0.00  0.00    +0.100 OA
ATOM     28  N   LIG    1       -9.191  -3.990   0.702  0.00  0.00    -0.360 NA
ATOM     29  C   LIG    1       -7.706  -3.332  -2.464  0.00  0.00    +0.190 C 
ATOM     30  C   LIG    1       -8.075  -3.515   1.174  0.00  0.00    +0.040 A 
ATOM     31  C   LIG    1       -7.699  -3.368   2.626  0.00  0.00    +0.160 C 
ENDBRANCH  24  25
ENDBRANCH  23  24
ENDBRANCH   4  23
TORSDOF 8
