REMARK  Name = ZINCrg000000qkcp.0
REMARK                            x       y       z     vdW  Elec       q    Type
REMARK                         _______ _______ _______ _____ _____    ______ ____
ROOT
ATOM      1  C   LIG    1       -1.270  -0.758   0.010  0.00  0.00    +0.590 C 
ATOM      2  N   LIG    1       -1.254  -2.106   0.003  0.00  0.00    -0.710 N 
ATOM      3  H   LIG    1       -0.408  -2.581  -0.008  0.00  0.00    +0.410 HD
ATOM      4  O   LIG    1       -2.329  -0.163   0.023  0.00  0.00    -0.520 OA
ENDROOT
BRANCH   1   7
ATOM      5  N   LIG    1        2.277  -0.041  -0.020  0.00  0.00    -0.330 N 
ATOM      6  N   LIG    1        1.146  -0.650  -0.013  0.00  0.00    -0.160 NA
ATOM      7  C   LIG    1        0.002  -0.004   0.002  0.00  0.00    +0.010 A 
ATOM      8  C   LIG    1       -0.017   1.412   0.010  0.00  0.00    +0.130 A 
ATOM      9  C   LIG    1        1.175   2.073   0.002  0.00  0.00    -0.020 A 
ATOM     10  C   LIG    1        2.359   1.302  -0.014  0.00  0.00    +0.480 A 
ATOM     11  O   LIG    1        3.449   1.851  -0.022  0.00  0.00    -0.520 OA
BRANCH   5  12
ATOM     12  C   LIG    1        3.511  -0.830  -0.037  0.00  0.00    +0.350 C 
BRANCH  12  13
ATOM     13  C   LIG    1        3.955  -1.113   1.400  0.00  0.00    +0.180 C 
BRANCH  13  15
ATOM     14  C   LIG    1        3.305  -2.268   3.397  0.00  0.00    +0.200 C 
ATOM     15  O   LIG    1        2.985  -1.942   2.043  0.00  0.00    -0.380 OA
ENDBRANCH  13  15
ENDBRANCH  12  13
ENDBRANCH   5  12
ENDBRANCH   1   7
BRANCH   2  16
ATOM     16  C   LIG    1       -2.514  -2.853   0.011  0.00  0.00    +0.340 C 
BRANCH  16  17
ATOM     17  C   LIG    1       -2.221  -4.332   0.000  0.00  0.00    -0.070 A 
ATOM     18  C   LIG    1       -2.308  -5.045  -1.181  0.00  0.00    +0.030 A 
ATOM     19  C   LIG    1       -2.034  -6.400  -1.192  0.00  0.00    +0.020 A 
ATOM     20  C   LIG    1       -1.685  -7.044  -0.020  0.00  0.00    +0.020 A 
ATOM     21  C   LIG    1       -1.604  -6.332   1.163  0.00  0.00    +0.020 A 
ATOM     22  C   LIG    1       -1.872  -4.976   1.172  0.00  0.00    -0.090 A 
BRANCH  22  23
ATOM     23  C   LIG    1       -1.784  -4.199   2.461  0.00  0.00    +0.360 C 
BRANCH  23  24
ATOM     24  N   LIG    1       -3.113  -4.112   3.070  0.00  0.00    -0.370 N 
ATOM     25  C   LIG    1       -3.440  -4.500   4.321  0.00  0.00    +0.220 A 
ATOM     26  C   LIG    1       -4.758  -4.250   4.498  0.00  0.00    -0.120 A 
ATOM     27  C   LIG    1       -5.256  -3.700   3.312  0.00  0.00    +0.230 A 
ATOM     28  N   LIG    1       -4.271  -3.617   2.456  0.00  0.00    -0.290 NA
ENDBRANCH  23  24
ENDBRANCH  22  23
ENDBRANCH  16  17
ENDBRANCH   2  16
TORSDOF 8
