REMARK  Name = ZINCrD000000C66D.1
REMARK                            x       y       z     vdW  Elec       q    Type
REMARK                         _______ _______ _______ _____ _____    ______ ____
ROOT
ATOM      1  O   LIG    1       -3.058   1.249   0.740  0.00  0.00    -0.570 OA
ATOM      2  C   LIG    1       -2.871   0.057   0.591  0.00  0.00    +0.710 C 
ATOM      3  N   LIG    1       -3.918  -0.791   0.568  0.00  0.00    -0.630 N 
ATOM      4  C   LIG    1       -5.299  -0.287   0.612  0.00  0.00    +0.310 C 
ATOM      5  C   LIG    1       -6.083  -0.928  -0.545  0.00  0.00    +0.170 C 
ATOM      6  N   LIG    1       -5.953  -2.389  -0.467  0.00  0.00    -0.540 NA
ATOM      7  C   LIG    1       -4.556  -2.810  -0.640  0.00  0.00    +0.170 C 
ATOM      8  C   LIG    1       -3.710  -2.246   0.506  0.00  0.00    +0.280 C 
ATOM      9  N   LIG    1       -1.617  -0.416   0.448  0.00  0.00    -0.690 N 
ATOM     10  H   LIG    1       -1.473  -1.356   0.255  0.00  0.00    +0.410 HD
ENDROOT
BRANCH   9  11
ATOM     11  C   LIG    1       -0.524   0.448   0.578  0.00  0.00    +0.170 A 
ATOM     12  C   LIG    1        0.598   0.274  -0.221  0.00  0.00    -0.030 A 
ATOM     13  C   LIG    1        1.673   1.132  -0.094  0.00  0.00    +0.030 A 
ATOM     14  C   LIG    1        1.635   2.160   0.830  0.00  0.00    +0.000 A 
ATOM     15  C   LIG    1        0.520   2.332   1.630  0.00  0.00    -0.070 A 
ATOM     16  C   LIG    1       -0.558   1.478   1.509  0.00  0.00    +0.020 A 
BRANCH  15  17
ATOM     17  C   LIG    1        0.482   3.454   2.636  0.00  0.00    +0.100 C 
BRANCH  17  18
ATOM     18  C   LIG    1       -0.110   4.704   1.983  0.00  0.00    +0.060 C 
BRANCH  18  19
ATOM     19  C   LIG    1       -0.149   5.843   3.004  0.00  0.00    +0.450 C 
ATOM     20  F   LIG    1       -0.942   5.466   4.094  0.00  0.00    -0.180 F 
ATOM     21  F   LIG    1       -0.691   6.986   2.408  0.00  0.00    -0.180 F 
ATOM     22  F   LIG    1        1.149   6.118   3.446  0.00  0.00    -0.180 F 
ENDBRANCH  18  19
ENDBRANCH  17  18
ENDBRANCH  15  17
ENDBRANCH   9  11
BRANCH   6  23
ATOM     23  C   LIG    1       -6.827  -3.048  -1.446  0.00  0.00    +0.190 C 
BRANCH  23  24
ATOM     24  C   LIG    1       -6.854  -4.553  -1.175  0.00  0.00    -0.030 C 
ATOM     25  C   LIG    1       -7.701  -5.292  -2.239  0.00  0.00    +0.010 C 
ATOM     26  C   LIG    1       -8.490  -6.341  -1.433  0.00  0.00    +0.190 C 
ATOM     27  O   LIG    1       -8.077  -6.225  -0.061  0.00  0.00    -0.380 OA
ATOM     28  C   LIG    1       -7.629  -4.866   0.131  0.00  0.00    +0.220 C 
ENDBRANCH  23  24
ENDBRANCH   6  23
TORSDOF 6
