REMARK  Name = ZINCrg000000qKlZ.0
REMARK                            x       y       z     vdW  Elec       q    Type
REMARK                         _______ _______ _______ _____ _____    ______ ____
ROOT
ATOM      1  N   LIG    1       -0.133   7.938  -2.943  0.00  0.00    -0.520 N 
ATOM      2  H   LIG    1       -0.131   7.312  -3.684  0.00  0.00    +0.430 HD
ATOM      3  C   LIG    1       -0.153   9.264  -3.182  0.00  0.00    +0.520 C 
ATOM      4  O   LIG    1       -0.155  10.047  -2.256  0.00  0.00    -0.530 OA
ENDROOT
BRANCH   3   5
ATOM      5  C   LIG    1       -0.173   9.774  -4.600  0.00  0.00    +0.020 C 
ATOM      6  C   LIG    1       -0.199  11.305  -4.593  0.00  0.00    +0.050 C 
ATOM      7  C   LIG    1       -0.279  11.813  -6.035  0.00  0.00    +0.050 C 
ATOM      8  C   LIG    1       -1.525  11.232  -6.707  0.00  0.00    +0.190 C 
ATOM      9  N   LIG    1       -1.452   9.765  -6.689  0.00  0.00    -0.470 N 
ATOM     10  C   LIG    1       -1.422   9.251  -5.314  0.00  0.00    +0.220 C 
BRANCH   9  11
ATOM     11  C   LIG    1       -2.503   9.206  -7.407  0.00  0.00    +0.260 A 
ATOM     12  C   LIG    1       -2.708   9.562  -8.737  0.00  0.00    +0.210 A 
ATOM     13  N   LIG    1       -3.707   9.028  -9.415  0.00  0.00    -0.420 NA
ATOM     14  C   LIG    1       -4.512   8.156  -8.832  0.00  0.00    +0.190 A 
ATOM     15  C   LIG    1       -4.311   7.799  -7.512  0.00  0.00    +0.250 A 
ATOM     16  N   LIG    1       -3.310   8.326  -6.827  0.00  0.00    -0.480 NA
ENDBRANCH   9  11
ENDBRANCH   3   5
BRANCH   1  18
ATOM     17  C   LIG    1       -0.094   6.138  -1.386  0.00  0.00    +0.510 C 
ATOM     18  N   LIG    1       -0.114   7.464  -1.625  0.00  0.00    -0.530 N 
ATOM     19  H   LIG    1       -0.116   8.090  -0.884  0.00  0.00    +0.430 HD
ATOM     20  O   LIG    1       -0.092   5.355  -2.312  0.00  0.00    -0.530 OA
BRANCH  17  21
ATOM     21  C   LIG    1       -0.074   5.628   0.032  0.00  0.00    +0.140 C 
BRANCH  21  25
ATOM     22  C   LIG    1       -0.016   1.355   0.009  0.00  0.00    +0.130 A 
ATOM     23  C   LIG    1       -1.226   2.033   0.019  0.00  0.00    -0.080 A 
ATOM     24  C   LIG    1       -1.242   3.414   0.031  0.00  0.00    +0.060 A 
ATOM     25  C   LIG    1       -0.054   4.121   0.024  0.00  0.00    -0.110 A 
ATOM     26  C   LIG    1        1.153   3.447   0.009  0.00  0.00    +0.070 A 
ATOM     27  C   LIG    1        1.175   2.066   0.002  0.00  0.00    -0.020 A 
BRANCH  22  29
ATOM     28  C   LIG    1       -1.262  -0.670   0.011  0.00  0.00    +0.250 C 
ATOM     29  O   LIG    1        0.002  -0.004   0.002  0.00  0.00    -0.320 OA
ENDBRANCH  22  29
ENDBRANCH  21  25
ENDBRANCH  17  21
ENDBRANCH   1  18
TORSDOF 6
