REMARK  Name = ZINCqH0000004S7B.0
REMARK                            x       y       z     vdW  Elec       q    Type
REMARK                         _______ _______ _______ _____ _____    ______ ____
ROOT
ATOM      1  C   LIG    1       -0.696   1.549   1.262  0.00  0.00    +0.530 C 
ATOM      2  N   LIG    1       -0.229   1.222   2.483  0.00  0.00    -0.660 N 
ATOM      3  H   LIG    1        0.520   0.612   2.569  0.00  0.00    +0.420 HD
ATOM      4  O   LIG    1       -1.684   2.245   1.157  0.00  0.00    -0.510 OA
ENDROOT
BRANCH   2   5
ATOM      5  C   LIG    1       -0.825   1.765   3.629  0.00  0.00    +0.130 A 
ATOM      6  C   LIG    1       -0.046   2.067   4.739  0.00  0.00    +0.010 A 
ATOM      7  C   LIG    1       -0.633   2.606   5.867  0.00  0.00    +0.040 A 
ATOM      8  C   LIG    1       -2.002   2.836   5.895  0.00  0.00    +0.130 A 
ATOM      9  C   LIG    1       -2.781   2.529   4.787  0.00  0.00    +0.000 A 
ATOM     10  C   LIG    1       -2.194   1.995   3.658  0.00  0.00    +0.040 A 
BRANCH   8  11
ATOM     11  N   LIG    1       -2.598   3.378   7.041  0.00  0.00    -0.670 N 
ATOM     12  H   LIG    1       -3.489   3.098   7.303  0.00  0.00    +0.410 HD
ATOM     13  C   LIG    1       -1.933   4.288   7.781  0.00  0.00    +0.510 C 
ATOM     14  O   LIG    1       -0.788   4.575   7.502  0.00  0.00    -0.530 OA
ATOM     15  C   LIG    1       -2.611   4.947   8.953  0.00  0.00    +0.110 C 
ENDBRANCH   8  11
ENDBRANCH   2   5
BRANCH   1  16
ATOM     16  C   LIG    1        0.008   1.049   0.027  0.00  0.00    +0.110 C 
BRANCH  16  17
ATOM     17  S   LIG    1       -0.854   1.653  -1.445  0.00  0.00    +0.080 S 
BRANCH  17  26
ATOM     18  N   LIG    1       -0.055   1.077  -4.047  0.00  0.00    -0.470 N 
ATOM     19  C   LIG    1        0.949   0.373  -4.691  0.00  0.00    +0.060 A 
ATOM     20  C   LIG    1        1.262   0.147  -6.022  0.00  0.00    +0.010 A 
ATOM     21  C   LIG    1        2.358  -0.626  -6.349  0.00  0.00    +0.030 A 
ATOM     22  C   LIG    1        3.148  -1.181  -5.354  0.00  0.00    +0.010 A 
ATOM     23  C   LIG    1        2.851  -0.968  -4.026  0.00  0.00    +0.060 A 
ATOM     24  C   LIG    1        1.746  -0.187  -3.679  0.00  0.00    +0.060 A 
ATOM     25  N   LIG    1        1.209   0.195  -2.490  0.00  0.00    -0.500 NA
ATOM     26  C   LIG    1        0.153   0.940  -2.703  0.00  0.00    +0.240 A 
BRANCH  18  28
ATOM     27  C   LIG    1       -0.685   3.273  -4.918  0.00  0.00    +0.040 C 
ATOM     28  C   LIG    1       -1.137   1.830  -4.687  0.00  0.00    +0.300 C 
ENDBRANCH  18  28
ENDBRANCH  17  26
ENDBRANCH  16  17
ENDBRANCH   1  16
TORSDOF 6
