REMARK  Name = ZINCqH0000007nLV.1
REMARK                            x       y       z     vdW  Elec       q    Type
REMARK                         _______ _______ _______ _____ _____    ______ ____
ROOT
ATOM      1  C   LIG    1       -4.990   2.544   0.394  0.00  0.00    +0.540 C 
ATOM      2  N   LIG    1       -6.209   1.983   0.517  0.00  0.00    -0.720 N 
ATOM      3  H   LIG    1       -6.294   1.020   0.598  0.00  0.00    +0.410 HD
ATOM      4  O   LIG    1       -4.883   3.747   0.293  0.00  0.00    -0.520 OA
ENDROOT
BRANCH   1   5
ATOM      5  C   LIG    1       -3.759   1.675   0.383  0.00  0.00    +0.000 C 
ATOM      6  C   LIG    1       -3.506   1.166  -1.038  0.00  0.00    +0.080 C 
BRANCH   5   7
ATOM      7  S   LIG    1       -2.330   2.643   0.942  0.00  0.00    -0.070 S 
BRANCH   7  11
ATOM      8  C   LIG    1        0.872  -0.509   1.527  0.00  0.00    +0.160 A 
ATOM      9  C   LIG    1        0.681   0.061   0.277  0.00  0.00    -0.020 A 
ATOM     10  C   LIG    1       -0.291   1.026   0.099  0.00  0.00    +0.110 A 
ATOM     11  C   LIG    1       -1.085   1.418   1.169  0.00  0.00    -0.170 A 
ATOM     12  C   LIG    1       -0.893   0.846   2.421  0.00  0.00    +0.100 A 
ATOM     13  C   LIG    1        0.083  -0.115   2.598  0.00  0.00    -0.090 A 
BRANCH   8  15
ATOM     14  C   LIG    1        1.974  -2.000   3.017  0.00  0.00    +0.240 C 
ATOM     15  O   LIG    1        1.832  -1.456   1.703  0.00  0.00    -0.310 OA
ENDBRANCH   8  15
ENDBRANCH   7  11
ENDBRANCH   5   7
ENDBRANCH   1   5
BRANCH   2  16
ATOM     16  C   LIG    1       -7.406   2.827   0.527  0.00  0.00    +0.280 C 
BRANCH  16  17
ATOM     17  C   LIG    1       -8.654   1.943   0.556  0.00  0.00    +0.210 C 
BRANCH  17  18
ATOM     18  C   LIG    1       -9.883   2.811   0.641  0.00  0.00    -0.080 A 
ATOM     19  C   LIG    1       -9.998   3.749   1.649  0.00  0.00    +0.000 A 
ATOM     20  C   LIG    1      -11.123   4.550   1.726  0.00  0.00    +0.050 A 
ATOM     21  C   LIG    1      -12.139   4.405   0.800  0.00  0.00    -0.010 A 
ATOM     22  C   LIG    1      -12.027   3.462  -0.207  0.00  0.00    +0.100 A 
ATOM     23  F   LIG    1      -13.020   3.320  -1.113  0.00  0.00    -0.140 F 
ATOM     24  C   LIG    1      -10.898   2.664  -0.286  0.00  0.00    +0.000 A 
ENDBRANCH  17  18
BRANCH  17  25
ATOM     25  N   LIG    1       -8.600   1.056   1.725  0.00  0.00    -0.530 NA
ATOM     26  C   LIG    1       -9.943   0.593   2.099  0.00  0.00    +0.200 C 
ATOM     27  C   LIG    1       -7.937   1.717   2.857  0.00  0.00    +0.180 C 
ENDBRANCH  17  25
ENDBRANCH  16  17
ENDBRANCH   2  16
TORSDOF 8
