REMARK  Name = ZINCvU00000008CW.0
REMARK                            x       y       z     vdW  Elec       q    Type
REMARK                         _______ _______ _______ _____ _____    ______ ____
ROOT
ATOM      1  C   LIG    1        6.995  -2.286  -2.883  0.00  0.00    -0.060 A 
ATOM      2  C   LIG    1        7.065  -3.037  -4.050  0.00  0.00    -0.020 A 
ATOM      3  C   LIG    1        6.095  -2.899  -5.021  0.00  0.00    +0.070 A 
ATOM      4  C   LIG    1        5.041  -2.016  -4.839  0.00  0.00    +0.000 A 
ATOM      5  C   LIG    1        4.950  -1.268  -3.687  0.00  0.00    +0.100 A 
ATOM      6  C   LIG    1        5.925  -1.396  -2.693  0.00  0.00    -0.120 A 
ENDROOT
BRANCH   6   7
ATOM      7  C   LIG    1        5.833  -0.599  -1.459  0.00  0.00    +0.500 C 
ATOM      8  O   LIG    1        6.683  -0.713  -0.597  0.00  0.00    -0.480 OA
BRANCH   7   9
ATOM      9  O   LIG    1        4.808   0.258  -1.284  0.00  0.00    -0.340 OA
BRANCH   9  10
ATOM     10  C   LIG    1        4.782   1.011  -0.043  0.00  0.00    +0.260 C 
BRANCH  10  11
ATOM     11  C   LIG    1        3.554   1.924  -0.025  0.00  0.00    +0.230 C 
BRANCH  11  12
ATOM     12  O   LIG    1        2.369   1.126  -0.008  0.00  0.00    -0.310 OA
BRANCH  12  13
ATOM     13  C   LIG    1        1.181   1.787   0.009  0.00  0.00    +0.120 A 
ATOM     14  C   LIG    1       -0.010   1.075   0.026  0.00  0.00    -0.020 A 
ATOM     15  C   LIG    1       -1.216   1.749   0.037  0.00  0.00    +0.050 A 
ATOM     16  C   LIG    1       -1.236   3.132   0.043  0.00  0.00    -0.120 A 
ATOM     17  C   LIG    1       -0.051   3.843   0.026  0.00  0.00    +0.040 A 
ATOM     18  C   LIG    1       -2.553   3.864   0.060  0.00  0.00    +0.090 C 
ATOM     19  C   LIG    1        1.157   3.174   0.009  0.00  0.00    -0.080 A 
ENDBRANCH  12  13
ENDBRANCH  11  12
ENDBRANCH  10  11
ENDBRANCH   9  10
ENDBRANCH   7   9
ENDBRANCH   6   7
BRANCH   1  20
ATOM     20  S   LIG    1        8.237  -2.455  -1.644  0.00  0.00    +0.090 S 
BRANCH  20  21
ATOM     21  C   LIG    1        9.299  -3.692  -2.430  0.00  0.00    +0.030 C 
BRANCH  21  24
ATOM     22  N   LIG    1       11.391  -4.903  -1.907  0.00  0.00    -0.670 N 
ATOM     23  H   LIG    1       11.275  -5.400  -2.732  0.00  0.00    +0.410 HD
ATOM     24  C   LIG    1       10.463  -4.003  -1.526  0.00  0.00    +0.530 C 
ATOM     25  O   LIG    1       10.566  -3.442  -0.455  0.00  0.00    -0.500 OA
BRANCH  22  30
ATOM     26  C   LIG    1       15.977  -5.787   1.314  0.00  0.00    +0.090 C 
ATOM     27  C   LIG    1       14.759  -5.552   0.458  0.00  0.00    -0.100 A 
ATOM     28  C   LIG    1       13.543  -5.268   1.052  0.00  0.00    +0.030 A 
ATOM     29  C   LIG    1       12.425  -5.052   0.271  0.00  0.00    +0.030 A 
ATOM     30  C   LIG    1       12.522  -5.120  -1.112  0.00  0.00    +0.130 A 
ATOM     31  C   LIG    1       13.744  -5.411  -1.706  0.00  0.00    -0.010 A 
ATOM     32  C   LIG    1       14.860  -5.620  -0.919  0.00  0.00    +0.030 A 
ENDBRANCH  22  30
ENDBRANCH  21  24
ENDBRANCH  20  21
ENDBRANCH   1  20
TORSDOF 10
