REMARK  Name = ZINCrH000004lsgt.0
REMARK                            x       y       z     vdW  Elec       q    Type
REMARK                         _______ _______ _______ _____ _____    ______ ____
ROOT
ATOM      1  N   LIG    1       -0.817  -3.045  -1.584  0.00  0.00    -0.660 N 
ATOM      2  H   LIG    1       -0.463  -2.964  -0.684  0.00  0.00    +0.400 HD
ATOM      3  C   LIG    1       -1.551  -2.045  -2.111  0.00  0.00    +0.720 C 
ATOM      4  N   LIG    1       -1.792  -0.933  -1.389  0.00  0.00    -0.610 N 
ATOM      5  O   LIG    1       -1.996  -2.147  -3.238  0.00  0.00    -0.570 OA
ENDROOT
BRANCH   1   8
ATOM      6  N   LIG    1        0.158  -6.183  -2.950  0.00  0.00    -0.370 N 
ATOM      7  C   LIG    1        0.159  -5.282  -1.933  0.00  0.00    +0.200 A 
ATOM      8  C   LIG    1       -0.565  -4.207  -2.338  0.00  0.00    +0.020 A 
ATOM      9  C   LIG    1       -1.013  -4.458  -3.643  0.00  0.00    +0.270 A 
ATOM     10  N   LIG    1       -0.581  -5.638  -4.008  0.00  0.00    -0.280 NA
BRANCH   6  11
ATOM     11  C   LIG    1        0.818  -7.491  -2.943  0.00  0.00    +0.330 C 
BRANCH  11  12
ATOM     12  C   LIG    1       -0.204  -8.579  -3.279  0.00  0.00    +0.170 C 
BRANCH  12  14
ATOM     13  C   LIG    1       -0.430 -10.947  -3.575  0.00  0.00    +0.210 C 
ATOM     14  O   LIG    1        0.440  -9.855  -3.272  0.00  0.00    -0.390 OA
ENDBRANCH  12  14
ENDBRANCH  11  12
ENDBRANCH   6  11
ENDBRANCH   1   8
BRANCH   4  15
ATOM     15  C   LIG    1       -2.591   0.153  -1.962  0.00  0.00    +0.360 C 
BRANCH  15  16
ATOM     16  C   LIG    1       -4.036  -0.027  -1.576  0.00  0.00    -0.110 A 
ATOM     17  C   LIG    1       -4.899  -0.695  -2.424  0.00  0.00    +0.040 A 
ATOM     18  C   LIG    1       -6.224  -0.865  -2.067  0.00  0.00    +0.000 A 
ATOM     19  C   LIG    1       -6.688  -0.358  -0.868  0.00  0.00    +0.000 A 
ATOM     20  C   LIG    1       -5.826   0.315  -0.023  0.00  0.00    +0.000 A 
ATOM     21  C   LIG    1       -4.500   0.480  -0.377  0.00  0.00    +0.010 A 
ENDBRANCH  15  16
ENDBRANCH   4  15
BRANCH   4  22
ATOM     22  C   LIG    1       -1.257  -0.811  -0.031  0.00  0.00    +0.330 C 
BRANCH  22  23
ATOM     23  C   LIG    1        0.106  -0.169  -0.084  0.00  0.00    -0.110 A 
ATOM     24  C   LIG    1        0.220   1.208  -0.120  0.00  0.00    +0.020 A 
ATOM     25  C   LIG    1        1.469   1.797  -0.169  0.00  0.00    +0.000 A 
ATOM     26  C   LIG    1        2.605   1.009  -0.183  0.00  0.00    +0.010 A 
ATOM     27  C   LIG    1        2.491  -0.368  -0.146  0.00  0.00    +0.000 A 
ATOM     28  C   LIG    1        1.241  -0.957  -0.097  0.00  0.00    +0.010 A 
ENDBRANCH  22  23
ENDBRANCH   4  22
TORSDOF 8
