REMARK  Name = ZINCpk00000xI85A.0
REMARK                            x       y       z     vdW  Elec       q    Type
REMARK                         _______ _______ _______ _____ _____    ______ ____
ROOT
ATOM      1  C   LIG    1       -1.145   2.289   0.060  0.00  0.00    +0.340 C 
ENDROOT
BRANCH   1  11
ATOM      2  N   LIG    1       -0.115  -0.019  -0.227  0.00  0.00    -0.480 N 
ATOM      3  C   LIG    1        1.154  -0.562  -0.165  0.00  0.00    +0.040 A 
ATOM      4  C   LIG    1        1.665  -1.842  -0.329  0.00  0.00    +0.050 A 
ATOM      5  C   LIG    1        3.019  -2.063  -0.198  0.00  0.00    +0.010 A 
ATOM      6  C   LIG    1        3.878  -1.011   0.096  0.00  0.00    +0.090 A 
ATOM      7  C   LIG    1        3.389   0.266   0.261  0.00  0.00    +0.040 A 
ATOM      8  F   LIG    1        5.204  -1.243   0.220  0.00  0.00    -0.130 F 
ATOM      9  C   LIG    1        2.018   0.506   0.132  0.00  0.00    +0.070 A 
ATOM     10  N   LIG    1        1.249   1.620   0.234  0.00  0.00    -0.480 NA
ATOM     11  C   LIG    1        0.003   1.313   0.024  0.00  0.00    +0.260 A 
BRANCH   2  13
ATOM     12  C   LIG    1       -1.546  -0.859  -2.024  0.00  0.00    +0.040 C 
ATOM     13  C   LIG    1       -1.356  -0.743  -0.510  0.00  0.00    +0.290 C 
ENDBRANCH   2  13
ENDBRANCH   1  11
BRANCH   1  14
ATOM     14  N   LIG    1       -1.587   2.475   1.448  0.00  0.00    -0.490 NA
ATOM     15  C   LIG    1       -0.548   3.160   2.248  0.00  0.00    +0.190 C 
ATOM     16  C   LIG    1       -0.624   2.586   3.675  0.00  0.00    +0.030 C 
ATOM     17  C   LIG    1       -1.741   1.520   3.622  0.00  0.00    +0.120 C 
ATOM     18  C   LIG    1       -1.813   1.167   2.115  0.00  0.00    +0.210 C 
BRANCH  17  19
ATOM     19  O   LIG    1       -2.982   2.064   4.077  0.00  0.00    -0.530 OA
ATOM     20  H   LIG    1       -2.964   2.370   4.994  0.00  0.00    +0.380 HD
ENDBRANCH  17  19
BRANCH  17  21
ATOM     21  C   LIG    1       -1.356   0.291   4.448  0.00  0.00    +0.320 C 
BRANCH  21  22
ATOM     22  N   LIG    1       -1.179   0.680   5.849  0.00  0.00    -0.300 N 
ATOM     23  C   LIG    1       -1.815   0.133   6.911  0.00  0.00    +0.140 A 
ATOM     24  C   LIG    1       -1.355   0.785   8.004  0.00  0.00    +0.140 A 
ATOM     25  N   LIG    1       -0.478   1.694   7.562  0.00  0.00    -0.270 NA
ATOM     26  N   LIG    1       -0.397   1.606   6.282  0.00  0.00    -0.080 NA
ENDBRANCH  21  22
ENDBRANCH  17  21
ENDBRANCH   1  14
TORSDOF 6
