REMARK  Name = ZINCpe00000gLNc6.0
REMARK                            x       y       z     vdW  Elec       q    Type
REMARK                         _______ _______ _______ _____ _____    ______ ____
ROOT
ATOM      1  C   LIG    1        3.509   3.600  -0.463  0.00  0.00    +0.350 C 
ATOM      2  C   LIG    1        5.010   3.960  -0.469  0.00  0.00    +0.070 C 
ATOM      3  C   LIG    1        5.658   2.760   0.272  0.00  0.00    +0.060 C 
ATOM      4  C   LIG    1        4.771   1.585  -0.201  0.00  0.00    +0.270 C 
ATOM      5  N   LIG    1        3.410   2.144  -0.285  0.00  0.00    -0.620 N 
ENDROOT
BRANCH   5   6
ATOM      6  C   LIG    1        2.250   1.431  -0.204  0.00  0.00    +0.550 A 
ATOM      7  C   LIG    1        1.181   1.899   0.567  0.00  0.00    -0.280 A 
ATOM      8  C   LIG    1       -0.007   1.121   0.620  0.00  0.00    +0.580 A 
ATOM      9  N   LIG    1       -0.069  -0.036  -0.068  0.00  0.00    -0.560 N 
ATOM     10  C   LIG    1        0.975  -0.460  -0.801  0.00  0.00    +0.710 A 
ATOM     11  O   LIG    1        0.885  -1.508  -1.409  0.00  0.00    -0.520 OA
ATOM     12  C   LIG    1       -1.291  -0.842  -0.017  0.00  0.00    +0.350 C 
ATOM     13  O   LIG    1       -0.960   1.499   1.277  0.00  0.00    -0.500 OA
ATOM     14  N   LIG    1        2.116   0.246  -0.877  0.00  0.00    -0.530 N 
ATOM     15  C   LIG    1        3.227  -0.257  -1.689  0.00  0.00    +0.350 C 
BRANCH   7  16
ATOM     16  C   LIG    1        1.282   3.133   1.285  0.00  0.00    +0.290 C 
ATOM     17  N   LIG    1        1.362   4.112   1.856  0.00  0.00    -0.410 NA
ENDBRANCH   7  16
ENDBRANCH   5   6
BRANCH   1  20
ATOM     18  C   LIG    1        1.788   5.038  -3.259  0.00  0.00    +0.200 A 
ATOM     19  N   LIG    1        2.114   5.084  -1.990  0.00  0.00    -0.470 NA
ATOM     20  C   LIG    1        2.881   4.001  -1.773  0.00  0.00    +0.150 A 
ATOM     21  N   LIG    1        2.985   3.365  -2.902  0.00  0.00    -0.370 NA
ATOM     22  O   LIG    1        2.360   3.942  -3.767  0.00  0.00    +0.080 OA
BRANCH  18  24
ATOM     23  C   LIG    1        1.742   6.647  -5.145  0.00  0.00    +0.060 C 
ATOM     24  C   LIG    1        0.932   6.030  -4.003  0.00  0.00    +0.120 C 
ATOM     25  C   LIG    1       -0.295   5.318  -4.574  0.00  0.00    +0.060 C 
ENDBRANCH  18  24
ENDBRANCH   1  20
TORSDOF 4
