REMARK  Name = ZINCrD000000Altc.1
REMARK                            x       y       z     vdW  Elec       q    Type
REMARK                         _______ _______ _______ _____ _____    ______ ____
ROOT
ATOM      1  C   LIG    1       -0.010   1.397   0.019  0.00  0.00    +0.170 A 
ATOM      2  C   LIG    1        1.183   2.103   0.014  0.00  0.00    +0.090 A 
ATOM      3  C   LIG    1        1.169   3.486   0.031  0.00  0.00    -0.160 A 
ATOM      4  C   LIG    1       -0.033   4.168   0.053  0.00  0.00    +0.060 A 
ATOM      5  C   LIG    1       -1.228   3.473   0.058  0.00  0.00    +0.010 A 
ATOM      6  C   LIG    1       -1.223   2.086   0.035  0.00  0.00    +0.090 A 
ENDROOT
BRANCH   6   7
ATOM      7  N   LIG    1       -2.431   1.380   0.035  0.00  0.00    -0.500 N 
ATOM      8  C   LIG    1       -3.201   1.655  -1.187  0.00  0.00    +0.160 C 
ATOM      9  C   LIG    1       -4.484   0.819  -1.174  0.00  0.00    +0.220 C 
ATOM     10  O   LIG    1       -5.227   1.113   0.012  0.00  0.00    -0.380 OA
ATOM     11  C   LIG    1       -4.507   0.856   1.221  0.00  0.00    +0.220 C 
ATOM     12  C   LIG    1       -3.224   1.692   1.232  0.00  0.00    +0.160 C 
ENDBRANCH   6   7
BRANCH   1  15
ATOM     13  O   LIG    1        1.859  -0.043  -1.212  0.00  0.00    -0.500 OA
ATOM     14  C   LIG    1        0.961  -0.661  -0.680  0.00  0.00    +0.510 C 
ATOM     15  N   LIG    1        0.002  -0.004   0.002  0.00  0.00    -0.660 N 
ATOM     16  H   LIG    1       -0.679  -0.501   0.481  0.00  0.00    +0.420 HD
BRANCH  14  17
ATOM     17  C   LIG    1        0.917  -2.164  -0.782  0.00  0.00    +0.220 C 
BRANCH  17  18
ATOM     18  N   LIG    1        2.064  -2.635  -1.571  0.00  0.00    -0.530 NA
ATOM     19  C   LIG    1        2.021  -2.090  -2.946  0.00  0.00    +0.180 C 
ATOM     20  C   LIG    1        3.011  -2.750  -3.866  0.00  0.00    +0.030 C 
ATOM     21  C   LIG    1        2.301  -3.906  -4.602  0.00  0.00    +0.000 C 
ATOM     22  C   LIG    1        2.168  -5.092  -3.764  0.00  0.00    +0.000 C 
ATOM     23  C   LIG    1        1.327  -4.821  -2.499  0.00  0.00    -0.020 C 
ATOM     24  C   LIG    1        2.191  -4.107  -1.495  0.00  0.00    +0.210 C 
ENDBRANCH  17  18
ENDBRANCH  14  17
ENDBRANCH   1  15
BRANCH   3  25
ATOM     25  C   LIG    1        2.467   4.251   0.025  0.00  0.00    +0.510 C 
ATOM     26  F   LIG    1        3.456   3.495   0.665  0.00  0.00    -0.170 F 
ATOM     27  F   LIG    1        2.296   5.464   0.701  0.00  0.00    -0.180 F 
ATOM     28  F   LIG    1        2.854   4.503  -1.295  0.00  0.00    -0.170 F 
ENDBRANCH   3  25
TORSDOF 5
