REMARK  Name = ZINCtV00000L6jKI.0
REMARK                            x       y       z     vdW  Elec       q    Type
REMARK                         _______ _______ _______ _____ _____    ______ ____
ROOT
ATOM      1  C   LIG    1        3.818   1.890  -0.346  0.00  0.00    -0.010 A 
ATOM      2  C   LIG    1        4.880   1.520   0.367  0.00  0.00    -0.030 A 
ATOM      3  S   LIG    1        6.238   2.595   0.094  0.00  0.00    +0.200 S 
ATOM      4  C   LIG    1        5.322   3.583  -1.034  0.00  0.00    +0.110 A 
ATOM      5  N   LIG    1        5.667   4.674  -1.730  0.00  0.00    -0.510 NA
ATOM      6  C   LIG    1        4.810   5.266  -2.530  0.00  0.00    +0.380 A 
ATOM      7  N   LIG    1        3.576   4.822  -2.689  0.00  0.00    -0.560 NA
ATOM      8  C   LIG    1        3.145   3.750  -2.043  0.00  0.00    +0.420 A 
ATOM      9  C   LIG    1        5.248   6.490  -3.291  0.00  0.00    +0.180 C 
ATOM     10  C   LIG    1        4.030   3.071  -1.173  0.00  0.00    -0.190 A 
ENDROOT
BRANCH   1  14
ATOM     11  C   LIG    1        0.117  -0.209  -0.231  0.00  0.00    +0.110 A 
ATOM     12  C   LIG    1        0.140   1.166  -0.060  0.00  0.00    -0.030 A 
ATOM     13  C   LIG    1        1.339   1.850  -0.097  0.00  0.00    +0.050 A 
ATOM     14  C   LIG    1        2.530   1.157  -0.306  0.00  0.00    -0.040 A 
ATOM     15  C   LIG    1        2.508  -0.227  -0.478  0.00  0.00    -0.010 A 
ATOM     16  C   LIG    1        1.304  -0.907  -0.441  0.00  0.00    +0.100 A 
BRANCH  11  18
ATOM     17  C   LIG    1       -2.245  -0.100   0.025  0.00  0.00    +0.250 C 
ATOM     18  O   LIG    1       -1.066  -0.878  -0.194  0.00  0.00    -0.300 OA
ENDBRANCH  11  18
BRANCH  16  19
ATOM     19  O   LIG    1        1.280  -2.256  -0.608  0.00  0.00    -0.300 OA
ATOM     20  C   LIG    1        2.534  -2.907  -0.818  0.00  0.00    +0.240 C 
ENDBRANCH  16  19
ENDBRANCH   1  14
BRANCH   8  21
ATOM     21  O   LIG    1        1.877   3.307  -2.217  0.00  0.00    -0.220 OA
BRANCH  21  22
ATOM     22  C   LIG    1        1.103   3.932  -3.143  0.00  0.00    +0.100 A 
ATOM     23  C   LIG    1        0.259   4.964  -2.761  0.00  0.00    +0.040 A 
ATOM     24  C   LIG    1       -0.522   5.602  -3.706  0.00  0.00    -0.070 A 
ATOM     25  C   LIG    1       -0.471   5.205  -5.030  0.00  0.00    +0.040 A 
ATOM     26  C   LIG    1        0.365   4.173  -5.413  0.00  0.00    +0.040 A 
ATOM     27  C   LIG    1       -1.434   6.728  -3.293  0.00  0.00    +0.100 C 
ATOM     28  C   LIG    1        1.153   3.535  -4.473  0.00  0.00    -0.040 A 
ATOM     29 CL   LIG    1        2.204   2.240  -4.955  0.00  0.00    -0.050 Cl
ENDBRANCH  21  22
ENDBRANCH   8  21
TORSDOF 5
