REMARK  Name = ZINCqH0000038VoO.0
REMARK                            x       y       z     vdW  Elec       q    Type
REMARK                         _______ _______ _______ _____ _____    ______ ____
ROOT
ATOM      1  C   LIG    1        4.870  -1.141  -0.122  0.00  0.00    +0.130 A 
ATOM      2  C   LIG    1        3.969  -2.194  -0.205  0.00  0.00    +0.000 A 
ATOM      3  C   LIG    1        4.430  -3.490  -0.316  0.00  0.00    +0.040 A 
ATOM      4  C   LIG    1        5.796  -3.742  -0.334  0.00  0.00    +0.150 A 
ATOM      5  C   LIG    1        6.697  -2.689  -0.246  0.00  0.00    +0.000 A 
ATOM      6  C   LIG    1        6.236  -1.393  -0.140  0.00  0.00    +0.040 A 
ENDROOT
BRANCH   4   7
ATOM      7  N   LIG    1        6.264  -5.058  -0.442  0.00  0.00    -0.680 N 
ATOM      8  H   LIG    1        7.073  -5.324   0.022  0.00  0.00    +0.410 HD
ATOM      9  C   LIG    1        5.591  -5.954  -1.190  0.00  0.00    +0.710 C 
ATOM     10  N   LIG    1        6.090  -7.193  -1.369  0.00  0.00    -0.710 N 
ATOM     11  H   LIG    1        6.933  -7.440  -0.960  0.00  0.00    +0.400 HD
ATOM     12  O   LIG    1        4.533  -5.644  -1.704  0.00  0.00    -0.570 OA
BRANCH  10  13
ATOM     13  C   LIG    1        5.357  -8.167  -2.183  0.00  0.00    +0.240 C 
ATOM     14  C   LIG    1        5.249  -9.596  -1.647  0.00  0.00    +0.010 C 
ATOM     15  C   LIG    1        6.165  -9.291  -2.836  0.00  0.00    +0.020 C 
ENDBRANCH  10  13
ENDBRANCH   4   7
BRANCH   1  17
ATOM     16  C   LIG    1        5.078   1.181  -0.603  0.00  0.00    +0.560 C 
ATOM     17  N   LIG    1        4.402   0.174  -0.014  0.00  0.00    -0.670 N 
ATOM     18  H   LIG    1        3.591   0.361   0.484  0.00  0.00    +0.410 HD
ATOM     19  O   LIG    1        6.139   0.959  -1.156  0.00  0.00    -0.510 OA
BRANCH  16  25
ATOM     20  C   LIG    1        5.421   7.167  -2.027  0.00  0.00    +0.320 C 
ATOM     21  N   LIG    1        5.590   5.725  -1.827  0.00  0.00    -0.490 N 
ATOM     22  C   LIG    1        6.654   4.991  -2.268  0.00  0.00    +0.220 A 
ATOM     23  C   LIG    1        6.495   3.701  -1.920  0.00  0.00    -0.030 A 
ATOM     24  C   LIG    1        5.234   3.607  -1.190  0.00  0.00    -0.050 A 
ATOM     25  C   LIG    1        4.533   2.549  -0.577  0.00  0.00    -0.100 A 
ATOM     26  C   LIG    1        3.319   2.811   0.054  0.00  0.00    +0.030 A 
ATOM     27  C   LIG    1        2.809   4.096   0.076  0.00  0.00    +0.020 A 
ATOM     28  C   LIG    1        3.489   5.139  -0.522  0.00  0.00    +0.020 A 
ATOM     29  C   LIG    1        4.703   4.909  -1.159  0.00  0.00    +0.090 A 
ENDBRANCH  16  25
ENDBRANCH   1  17
TORSDOF 4
