REMARK  Name = ZINCwl0000000hPL.0
REMARK                            x       y       z     vdW  Elec       q    Type
REMARK                         _______ _______ _______ _____ _____    ______ ____
ROOT
ATOM      1  C   LIG    1       -0.038   3.827   0.022  0.00  0.00    -0.160 A 
ATOM      2  C   LIG    1        1.166   3.148   0.006  0.00  0.00    +0.050 A 
ATOM      3  C   LIG    1        1.180   1.765  -0.003  0.00  0.00    +0.030 A 
ATOM      4  C   LIG    1       -0.011   1.062   0.005  0.00  0.00    +0.070 A 
ATOM      5  C   LIG    1       -1.215   1.742   0.016  0.00  0.00    -0.100 A 
ATOM      6  C   LIG    1       -1.228   3.124   0.031  0.00  0.00    +0.050 A 
ENDROOT
BRANCH   1   7
ATOM      7  C   LIG    1       -0.052   5.334   0.032  0.00  0.00    +0.320 C 
BRANCH   7  12
ATOM      8  C   LIG    1        0.106   7.814  -2.780  0.00  0.00    -0.010 C 
ATOM      9  C   LIG    1       -1.171   7.404  -3.520  0.00  0.00    +0.060 C 
ATOM     10  C   LIG    1       -1.320   5.881  -3.458  0.00  0.00    +0.070 C 
ATOM     11  C   LIG    1       -1.329   5.435  -1.994  0.00  0.00    +0.240 C 
ATOM     12  N   LIG    1       -0.072   5.832  -1.349  0.00  0.00    -0.380 N 
ATOM     13  H   LIG    1        0.705   5.438  -1.859  0.00  0.00    +0.420 HD
ATOM     14  C   LIG    1        0.044   7.296  -1.342  0.00  0.00    +0.290 C 
BRANCH   8  18
ATOM     15  N   LIG    1        0.287   9.995  -3.932  0.00  0.00    -0.840 N 
ATOM     16  H   LIG    1        0.362  10.962  -3.925  0.00  0.00    +0.420 HD
ATOM     17  H   LIG    1        0.260   9.517  -4.775  0.00  0.00    +0.410 HD
ATOM     18  C   LIG    1        0.222   9.316  -2.770  0.00  0.00    +0.530 C 
ATOM     19  O   LIG    1        0.256   9.914  -1.715  0.00  0.00    -0.530 OA
ENDBRANCH   8  18
ENDBRANCH   7  12
ENDBRANCH   1   7
BRANCH   5  20
ATOM     20  C   LIG    1       -2.512   0.976   0.019  0.00  0.00    +0.330 C 
BRANCH  20  21
ATOM     21  N   LIG    1       -2.925   0.718   1.401  0.00  0.00    -0.750 N 
ATOM     22  H   LIG    1       -2.378   1.034   2.137  0.00  0.00    +0.400 HD
ATOM     23  C   LIG    1       -4.064   0.043   1.649  0.00  0.00    +0.710 C 
ATOM     24  N   LIG    1       -4.393  -0.282   2.915  0.00  0.00    -0.630 N 
ATOM     25  C   LIG    1       -5.574  -1.110   3.193  0.00  0.00    +0.300 C 
ATOM     26  C   LIG    1       -6.463  -0.387   4.203  0.00  0.00    +0.030 C 
ATOM     27  C   LIG    1       -5.638  -0.031   5.442  0.00  0.00    -0.010 C 
ATOM     28  C   LIG    1       -4.494   0.905   5.045  0.00  0.00    +0.060 C 
ATOM     29  C   LIG    1       -3.580   0.191   4.044  0.00  0.00    +0.270 C 
ATOM     30  O   LIG    1       -4.796  -0.274   0.731  0.00  0.00    -0.580 OA
BRANCH  27  31
ATOM     31  C   LIG    1       -6.521   0.655   6.452  0.00  0.00    +0.520 C 
ATOM     32  N   LIG    1       -7.599   0.017   6.949  0.00  0.00    -0.700 N 
ATOM     33  H   LIG    1       -7.807  -0.884   6.656  0.00  0.00    +0.400 HD
ATOM     34  O   LIG    1       -6.261   1.782   6.819  0.00  0.00    -0.540 OA
BRANCH  32  35
ATOM     35  C   LIG    1       -8.457   0.685   7.931  0.00  0.00    +0.210 C 
ATOM     36  C   LIG    1       -8.919  -0.135   9.138  0.00  0.00    +0.010 C 
ATOM     37  C   LIG    1       -9.912   0.222   8.029  0.00  0.00    +0.020 C 
ENDBRANCH  32  35
ENDBRANCH  27  31
ENDBRANCH  20  21
ENDBRANCH   5  20
TORSDOF 7
