REMARK  Name = ZINCwl0000000hPL.1
REMARK                            x       y       z     vdW  Elec       q    Type
REMARK                         _______ _______ _______ _____ _____    ______ ____
ROOT
ATOM      1  C   LIG    1        5.115   3.530   1.228  0.00  0.00    -0.160 A 
ATOM      2  C   LIG    1        5.686   3.891   0.022  0.00  0.00    +0.050 A 
ATOM      3  C   LIG    1        5.200   3.362  -1.159  0.00  0.00    +0.030 A 
ATOM      4  C   LIG    1        4.146   2.469  -1.134  0.00  0.00    +0.070 A 
ATOM      5  C   LIG    1        3.572   2.111   0.072  0.00  0.00    -0.100 A 
ATOM      6  C   LIG    1        4.058   2.639   1.253  0.00  0.00    +0.050 A 
ENDROOT
BRANCH   1   7
ATOM      7  C   LIG    1        5.646   4.106   2.515  0.00  0.00    +0.320 C 
BRANCH   7  12
ATOM      8  C   LIG    1        8.468   3.002   4.729  0.00  0.00    +0.010 C 
ATOM      9  C   LIG    1        7.946   1.608   5.089  0.00  0.00    +0.070 C 
ATOM     10  C   LIG    1        7.260   0.998   3.863  0.00  0.00    +0.050 C 
ATOM     11  C   LIG    1        6.142   1.932   3.393  0.00  0.00    +0.240 C 
ATOM     12  N   LIG    1        6.709   3.239   3.039  0.00  0.00    -0.380 N 
ATOM     13  H   LIG    1        7.419   3.115   2.333  0.00  0.00    +0.430 HD
ATOM     14  C   LIG    1        7.306   3.861   4.227  0.00  0.00    +0.290 C 
BRANCH   8  18
ATOM     15  N   LIG    1       10.631   2.168   3.867  0.00  0.00    -0.830 N 
ATOM     16  H   LIG    1       11.303   2.093   3.171  0.00  0.00    +0.420 HD
ATOM     17  H   LIG    1       10.766   1.728   4.721  0.00  0.00    +0.410 HD
ATOM     18  C   LIG    1        9.511   2.884   3.648  0.00  0.00    +0.520 C 
ATOM     19  O   LIG    1        9.342   3.434   2.580  0.00  0.00    -0.560 OA
ENDBRANCH   8  18
ENDBRANCH   7  12
ENDBRANCH   1   7
BRANCH   5  20
ATOM     20  C   LIG    1        2.420   1.140   0.099  0.00  0.00    +0.340 C 
BRANCH  20  21
ATOM     21  N   LIG    1        1.157   1.878   0.004  0.00  0.00    -0.750 N 
ATOM     22  H   LIG    1        1.165   2.845  -0.064  0.00  0.00    +0.400 HD
ATOM     23  C   LIG    1       -0.014   1.212   0.009  0.00  0.00    +0.710 C 
ATOM     24  N   LIG    1       -1.177   1.893   0.018  0.00  0.00    -0.630 N 
ATOM     25  C   LIG    1       -1.186   3.360  -0.075  0.00  0.00    +0.270 C 
ATOM     26  C   LIG    1       -1.992   3.928   1.091  0.00  0.00    +0.020 C 
ATOM     27  C   LIG    1       -3.383   3.290   1.105  0.00  0.00    -0.010 C 
ATOM     28  C   LIG    1       -3.251   1.778   1.298  0.00  0.00    +0.060 C 
ATOM     29  C   LIG    1       -2.459   1.185   0.129  0.00  0.00    +0.300 C 
ATOM     30  O   LIG    1       -0.023  -0.004  -0.000  0.00  0.00    -0.580 OA
BRANCH  27  31
ATOM     31  C   LIG    1       -4.191   3.872   2.237  0.00  0.00    +0.520 C 
ATOM     32  N   LIG    1       -4.438   5.196   2.277  0.00  0.00    -0.700 N 
ATOM     33  H   LIG    1       -4.096   5.775   1.578  0.00  0.00    +0.400 HD
ATOM     34  O   LIG    1       -4.618   3.149   3.111  0.00  0.00    -0.530 OA
BRANCH  32  35
ATOM     35  C   LIG    1       -5.223   5.762   3.377  0.00  0.00    +0.210 C 
ATOM     36  C   LIG    1       -6.292   6.797   3.022  0.00  0.00    +0.020 C 
ATOM     37  C   LIG    1       -5.001   7.237   3.717  0.00  0.00    +0.020 C 
ENDBRANCH  32  35
ENDBRANCH  27  31
ENDBRANCH  20  21
ENDBRANCH   5  20
TORSDOF 7
