REMARK  Name = ZINCtV00000L6kpq.0
REMARK                            x       y       z     vdW  Elec       q    Type
REMARK                         _______ _______ _______ _____ _____    ______ ____
ROOT
ATOM      1  N   LIG    1       -1.275  -0.983  -0.803  0.00  0.00    -0.640 N 
ATOM      2  H   LIG    1       -2.124  -0.555  -0.608  0.00  0.00    +0.420 HD
ENDROOT
BRANCH   1   3
ATOM      3  C   LIG    1       -1.187  -2.363  -0.839  0.00  0.00    +0.480 A 
ATOM      4  C   LIG    1       -2.296  -3.165  -0.468  0.00  0.00    -0.220 A 
ATOM      5  C   LIG    1       -3.627  -2.782  -0.015  0.00  0.00    -0.030 A 
ATOM      6  C   LIG    1       -4.433  -3.807   0.253  0.00  0.00    -0.020 A 
ATOM      7  S   LIG    1       -3.629  -5.340  -0.028  0.00  0.00    +0.190 S 
ATOM      8  C   LIG    1       -2.141  -4.550  -0.528  0.00  0.00    +0.120 A 
ATOM      9  N   LIG    1       -0.967  -5.057  -0.927  0.00  0.00    -0.520 NA
ATOM     10  C   LIG    1        0.032  -4.273  -1.260  0.00  0.00    +0.570 A 
ATOM     11  N   LIG    1       -0.068  -2.957  -1.227  0.00  0.00    -0.570 NA
BRANCH   5  12
ATOM     12  C   LIG    1       -4.048  -1.369   0.135  0.00  0.00    -0.050 A 
ATOM     13  C   LIG    1       -3.347  -0.516   0.986  0.00  0.00    +0.010 A 
ATOM     14  C   LIG    1       -3.740   0.800   1.117  0.00  0.00    +0.020 A 
ATOM     15  C   LIG    1       -4.835   1.271   0.415  0.00  0.00    +0.020 A 
ATOM     16  C   LIG    1       -5.539   0.428  -0.426  0.00  0.00    +0.020 A 
ATOM     17  C   LIG    1       -5.152  -0.889  -0.570  0.00  0.00    +0.030 A 
ENDBRANCH   5  12
ENDBRANCH   1   3
BRANCH   1  21
ATOM     18  C   LIG    1        2.109   1.341  -1.531  0.00  0.00    +0.070 A 
ATOM     19  C   LIG    1        0.857   1.798  -1.918  0.00  0.00    +0.040 A 
ATOM     20  C   LIG    1       -0.264   1.029  -1.678  0.00  0.00    +0.000 A 
ATOM     21  C   LIG    1       -0.139  -0.202  -1.048  0.00  0.00    +0.160 A 
ATOM     22  C   LIG    1        1.114  -0.659  -0.661  0.00  0.00    +0.040 A 
ATOM     23  C   LIG    1        2.235   0.111  -0.902  0.00  0.00    +0.020 A 
BRANCH  18  24
ATOM     24  O   LIG    1        3.212   2.099  -1.768  0.00  0.00    -0.260 OA
BRANCH  24  28
ATOM     25  C   LIG    1        5.688   0.997  -4.879  0.00  0.00    -0.030 A 
ATOM     26  C   LIG    1        6.052   2.035  -4.041  0.00  0.00    +0.050 A 
ATOM     27  C   LIG    1        5.225   2.406  -2.999  0.00  0.00    -0.020 A 
ATOM     28  C   LIG    1        4.027   1.736  -2.793  0.00  0.00    +0.120 A 
ATOM     29  C   LIG    1        3.667   0.691  -3.632  0.00  0.00    -0.060 A 
ATOM     30  C   LIG    1        4.495   0.328  -4.676  0.00  0.00    +0.050 A 
ENDBRANCH  24  28
ENDBRANCH  18  24
ENDBRANCH   1  21
TORSDOF 5
