REMARK  Name = ZINCvU0000000ARz.0
REMARK                            x       y       z     vdW  Elec       q    Type
REMARK                         _______ _______ _______ _____ _____    ______ ____
ROOT
ATOM      1  S   LIG    1        0.960   8.042  -0.223  0.00  0.00    +0.060 S 
ENDROOT
BRANCH   1   2
ATOM      2  C   LIG    1        1.104   6.289  -0.127  0.00  0.00    +0.070 A 
ATOM      3  C   LIG    1        2.121   5.694   0.657  0.00  0.00    -0.060 A 
ATOM      4  C   LIG    1        3.049   6.444   1.386  0.00  0.00    +0.050 A 
ATOM      5  C   LIG    1        4.002   5.800   2.120  0.00  0.00    +0.050 A 
ATOM      6  C   LIG    1        4.063   4.409   2.153  0.00  0.00    +0.050 A 
ATOM      7  C   LIG    1        3.172   3.649   1.454  0.00  0.00    +0.050 A 
ATOM      8  C   LIG    1        2.183   4.278   0.692  0.00  0.00    -0.050 A 
ATOM      9  C   LIG    1        1.222   3.558  -0.062  0.00  0.00    +0.150 A 
ATOM     10  N   LIG    1        0.324   4.229  -0.761  0.00  0.00    -0.240 NA
ATOM     11  N   LIG    1        0.265   5.508  -0.787  0.00  0.00    -0.270 NA
BRANCH   9  12
ATOM     12  C   LIG    1        1.230   2.077  -0.070  0.00  0.00    -0.050 A 
ATOM     13  C   LIG    1        1.397   1.370   1.121  0.00  0.00    +0.030 A 
ATOM     14  C   LIG    1        1.403  -0.009   1.106  0.00  0.00    +0.010 A 
ATOM     15  C   LIG    1        1.245  -0.692  -0.087  0.00  0.00    +0.030 A 
ATOM     16  C   LIG    1        1.079   0.003  -1.272  0.00  0.00    +0.010 A 
ATOM     17  C   LIG    1        1.071   1.383  -1.270  0.00  0.00    +0.050 A 
ENDBRANCH   9  12
ENDBRANCH   1   2
BRANCH   1  18
ATOM     18  C   LIG    1       -0.466   8.180  -1.330  0.00  0.00    +0.010 C 
ATOM     19  C   LIG    1       -1.704   7.601  -0.641  0.00  0.00    +0.080 C 
BRANCH  18  22
ATOM     20  N   LIG    1       -1.427   9.962  -2.750  0.00  0.00    -0.670 N 
ATOM     21  H   LIG    1       -1.855   9.270  -3.278  0.00  0.00    +0.420 HD
ATOM     22  C   LIG    1       -0.707   9.630  -1.660  0.00  0.00    +0.530 C 
ATOM     23  O   LIG    1       -0.254  10.499  -0.946  0.00  0.00    -0.500 OA
BRANCH  20  28
ATOM     24  C   LIG    1       -0.654  13.532  -3.262  0.00  0.00    -0.150 A 
ATOM     25  C   LIG    1       -1.840  13.969  -3.862  0.00  0.00    +0.050 A 
ATOM     26  C   LIG    1       -2.869  13.077  -4.084  0.00  0.00    +0.030 A 
ATOM     27  C   LIG    1       -2.731  11.750  -3.721  0.00  0.00    +0.020 A 
ATOM     28  C   LIG    1       -1.558  11.306  -3.120  0.00  0.00    +0.130 A 
ATOM     29  C   LIG    1       -0.518  12.191  -2.891  0.00  0.00    +0.090 A 
BRANCH  24  31
ATOM     30  C   LIG    1        0.295  15.925  -3.425  0.00  0.00    +0.080 C 
ATOM     31  C   LIG    1        0.446  14.480  -3.023  0.00  0.00    +0.390 C 
ATOM     32  O   LIG    1        1.472  14.099  -2.503  0.00  0.00    -0.450 OA
ENDBRANCH  24  31
ENDBRANCH  20  28
ENDBRANCH  18  22
ENDBRANCH   1  18
TORSDOF 6
