REMARK  Name = ZINCvU00000004rs.0
REMARK                            x       y       z     vdW  Elec       q    Type
REMARK                         _______ _______ _______ _____ _____    ______ ____
ROOT
ATOM      1  N   LIG    1        3.666   6.460  -0.236  0.00  0.00    -0.520 N 
ATOM      2  H   LIG    1        2.828   5.973  -0.277  0.00  0.00    +0.420 HD
ATOM      3  C   LIG    1        4.836   5.791  -0.255  0.00  0.00    +0.570 C 
ATOM      4  O   LIG    1        5.886   6.402  -0.204  0.00  0.00    -0.510 OA
ENDROOT
BRANCH   3   5
ATOM      5  C   LIG    1        4.843   4.314  -0.338  0.00  0.00    -0.070 A 
ATOM      6  C   LIG    1        3.669   3.597  -0.516  0.00  0.00    +0.030 A 
ATOM      7  C   LIG    1        3.722   2.196  -0.590  0.00  0.00    +0.190 A 
ATOM      8  N   LIG    1        4.853   1.529  -0.491  0.00  0.00    -0.420 NA
ATOM      9  C   LIG    1        6.028   2.138  -0.325  0.00  0.00    +0.130 A 
ATOM     10  C   LIG    1        7.221   1.399  -0.228  0.00  0.00    +0.050 A 
ATOM     11  C   LIG    1        8.405   2.049  -0.053  0.00  0.00    +0.040 A 
ATOM     12  C   LIG    1        8.457   3.438   0.032  0.00  0.00    +0.030 A 
ATOM     13  C   LIG    1        7.321   4.187  -0.058  0.00  0.00    +0.050 A 
ATOM     14  C   LIG    1        6.088   3.552  -0.237  0.00  0.00    -0.060 A 
BRANCH   7  15
ATOM     15  C   LIG    1        2.461   1.441  -0.779  0.00  0.00    -0.050 A 
ATOM     16  C   LIG    1        1.347   1.730   0.007  0.00  0.00    +0.040 A 
ATOM     17  C   LIG    1        0.175   1.024  -0.174  0.00  0.00    +0.020 A 
ATOM     18  C   LIG    1        0.104   0.030  -1.133  0.00  0.00    +0.050 A 
ATOM     19  C   LIG    1        1.205  -0.262  -1.917  0.00  0.00    +0.030 A 
ATOM     20  C   LIG    1        2.383   0.438  -1.746  0.00  0.00    -0.000 A 
ATOM     21 CL   LIG    1        3.765   0.070  -2.731  0.00  0.00    -0.050 Cl
ENDBRANCH   7  15
ENDBRANCH   3   5
BRANCH   1  25
ATOM     22  N   LIG    1        1.326   7.850  -0.196  0.00  0.00    -0.680 N 
ATOM     23  H   LIG    1        1.327   6.881  -0.174  0.00  0.00    +0.400 HD
ATOM     24  C   LIG    1        2.490   8.527  -0.139  0.00  0.00    +0.710 C 
ATOM     25  N   LIG    1        3.660   7.859  -0.158  0.00  0.00    -0.520 N 
ATOM     26  H   LIG    1        4.498   8.346  -0.117  0.00  0.00    +0.450 HD
ATOM     27  O   LIG    1        2.484   9.741  -0.071  0.00  0.00    -0.540 OA
BRANCH  22  32
ATOM     28  C   LIG    1       -3.582  10.672  -0.565  0.00  0.00    +0.090 C 
ATOM     29  C   LIG    1       -2.279   9.923  -0.466  0.00  0.00    -0.100 A 
ATOM     30  C   LIG    1       -1.141  10.435  -1.063  0.00  0.00    +0.030 A 
ATOM     31  C   LIG    1        0.055   9.751  -0.976  0.00  0.00    +0.030 A 
ATOM     32  C   LIG    1        0.115   8.547  -0.287  0.00  0.00    +0.150 A 
ATOM     33  C   LIG    1       -1.030   8.032   0.307  0.00  0.00    -0.010 A 
ATOM     34  C   LIG    1       -2.222   8.724   0.221  0.00  0.00    +0.030 A 
ENDBRANCH  22  32
ENDBRANCH   1  25
TORSDOF 4
