REMARK  Name = ZINCpe00000FUbDk.0
REMARK                            x       y       z     vdW  Elec       q    Type
REMARK                         _______ _______ _______ _____ _____    ______ ____
ROOT
ATOM      1  C   LIG    1        5.956  -2.835  -2.224  0.00  0.00    +0.590 C 
ATOM      2  N   LIG    1        4.958  -2.778  -1.320  0.00  0.00    -0.610 N 
ATOM      3  C   LIG    1        4.932  -3.477  -0.027  0.00  0.00    +0.250 C 
ATOM      4  C   LIG    1        3.611  -3.095   0.674  0.00  0.00    +0.190 C 
ATOM      5  C   LIG    1        3.227  -1.758  -0.014  0.00  0.00    +0.190 C 
ATOM      6  C   LIG    1        3.712  -2.003  -1.465  0.00  0.00    +0.270 C 
ATOM      7  O   LIG    1        5.832  -2.287  -3.303  0.00  0.00    -0.530 OA
ENDROOT
BRANCH   1  11
ATOM      8  C   LIG    1        9.531  -4.877  -1.384  0.00  0.00    +0.350 A 
ATOM      9  C   LIG    1        8.480  -4.992  -0.481  0.00  0.00    -0.050 A 
ATOM     10  C   LIG    1        7.296  -4.330  -0.736  0.00  0.00    +0.130 A 
ATOM     11  C   LIG    1        7.201  -3.562  -1.905  0.00  0.00    -0.230 A 
ATOM     12  C   LIG    1        8.298  -3.500  -2.765  0.00  0.00    +0.380 A 
ATOM     13  N   LIG    1        9.411  -4.143  -2.480  0.00  0.00    -0.540 NA
BRANCH   8  14
ATOM     14  O   LIG    1       10.696  -5.524  -1.139  0.00  0.00    -0.300 OA
BRANCH  14  16
ATOM     15  C   LIG    1       13.098  -5.476  -1.405  0.00  0.00    +0.060 C 
ATOM     16  C   LIG    1       11.740  -5.368  -2.102  0.00  0.00    +0.170 C 
ATOM     17  C   LIG    1       11.623  -6.465  -3.163  0.00  0.00    +0.020 C 
ENDBRANCH  14  16
ENDBRANCH   8  14
ENDBRANCH   1  11
BRANCH   4  18
ATOM     18  O   LIG    1        3.820  -2.902   2.074  0.00  0.00    -0.550 OA
ATOM     19  H   LIG    1        4.062  -3.708   2.550  0.00  0.00    +0.390 HD
ENDBRANCH   4  18
BRANCH   5  20
ATOM     20  O   LIG    1        1.814  -1.550   0.026  0.00  0.00    -0.280 OA
BRANCH  20  21
ATOM     21  C   LIG    1        1.378  -0.259  -0.004  0.00  0.00    -0.030 A 
ATOM     22  C   LIG    1        0.085   0.147   0.025  0.00  0.00    +0.210 A 
ATOM     23  N   LIG    1        0.081   1.505  -0.021  0.00  0.00    -0.370 N 
ATOM     24  N   LIG    1        1.412   1.937  -0.080  0.00  0.00    -0.270 NA
ATOM     25  C   LIG    1       -1.106   2.365  -0.016  0.00  0.00    +0.370 C 
ATOM     26  C   LIG    1        2.187   0.883  -0.069  0.00  0.00    +0.180 A 
ENDBRANCH  20  21
ENDBRANCH   5  20
TORSDOF 6
