REMARK  Name = ZINCrD00000F5Ln5.0
REMARK                            x       y       z     vdW  Elec       q    Type
REMARK                         _______ _______ _______ _____ _____    ______ ____
ROOT
ATOM      1  N   LIG    1        4.714  -1.183  -2.350  0.00  0.00    -0.520 NA
ENDROOT
BRANCH   1   2
ATOM      2  C   LIG    1        5.729  -1.564  -1.359  0.00  0.00    +0.220 C 
BRANCH   2   5
ATOM      3  C   LIG    1        8.282  -0.995  -1.342  0.00  0.00    -0.040 C 
ATOM      4  C   LIG    1        7.684  -0.334  -2.586  0.00  0.00    +0.030 C 
ATOM      5  C   LIG    1        6.833  -0.505  -1.327  0.00  0.00    -0.050 C 
BRANCH   3   7
ATOM      6  C   LIG    1       10.660  -0.907  -0.580  0.00  0.00    +0.010 C 
ATOM      7  C   LIG    1        9.308  -0.192  -0.540  0.00  0.00    +0.030 C 
ENDBRANCH   3   7
ENDBRANCH   2   5
ENDBRANCH   1   2
BRANCH   1   8
ATOM      8  C   LIG    1        3.901  -2.342  -2.743  0.00  0.00    +0.300 C 
BRANCH   8   9
ATOM      9  C   LIG    1        4.751  -3.310  -3.524  0.00  0.00    +0.190 A 
ATOM     10  N   LIG    1        5.467  -4.284  -3.030  0.00  0.00    -0.290 NA
ATOM     11  N   LIG    1        6.064  -4.909  -3.983  0.00  0.00    -0.290 NA
ATOM     12  C   LIG    1        5.755  -4.362  -5.128  0.00  0.00    +0.370 A 
ATOM     13  N   LIG    1        4.910  -3.336  -4.869  0.00  0.00    -0.470 N 
ATOM     14  C   LIG    1        4.294  -2.434  -5.846  0.00  0.00    +0.350 C 
ENDBRANCH   8   9
ENDBRANCH   1   8
BRANCH   1  15
ATOM     15  C   LIG    1        3.868  -0.094  -1.844  0.00  0.00    +0.230 C 
BRANCH  15  16
ATOM     16  C   LIG    1        3.008   0.434  -2.963  0.00  0.00    -0.070 A 
ATOM     17  C   LIG    1        1.761  -0.117  -3.194  0.00  0.00    +0.020 A 
ATOM     18  C   LIG    1        0.971   0.365  -4.220  0.00  0.00    +0.020 A 
ATOM     19  C   LIG    1        1.429   1.403  -5.019  0.00  0.00    +0.110 A 
ATOM     20  C   LIG    1        2.682   1.955  -4.784  0.00  0.00    -0.080 A 
ATOM     21  C   LIG    1        3.183   3.082  -5.649  0.00  0.00    +0.110 C 
ATOM     22  C   LIG    1        3.467   1.469  -3.758  0.00  0.00    +0.050 A 
BRANCH  19  23
ATOM     23  N   LIG    1        0.632   1.890  -6.064  0.00  0.00    -0.420 N 
ATOM     24  C   LIG    1        0.013   1.144  -7.034  0.00  0.00    +0.120 A 
ATOM     25  C   LIG    1       -0.644   2.007  -7.831  0.00  0.00    +0.150 A 
ATOM     26  N   LIG    1       -0.437   3.248  -7.366  0.00  0.00    -0.490 NA
ATOM     27  C   LIG    1        0.321   3.191  -6.304  0.00  0.00    +0.400 A 
ENDBRANCH  19  23
ENDBRANCH  15  16
ENDBRANCH   1  15
TORSDOF 8
