REMARK  Name = ZINCpe000000WWdJ.0
REMARK                            x       y       z     vdW  Elec       q    Type
REMARK                         _______ _______ _______ _____ _____    ______ ____
ROOT
ATOM      1  C   LIG    1        1.723   0.555   0.384  0.00  0.00    +0.440 A 
ATOM      2  N   LIG    1        0.763  -0.341   0.525  0.00  0.00    -0.600 NA
ATOM      3  C   LIG    1       -0.510   0.046   0.579  0.00  0.00    +0.620 A 
ATOM      4  N   LIG    1       -0.814   1.337   0.491  0.00  0.00    -0.640 NA
ATOM      5  C   LIG    1        0.155   2.235   0.349  0.00  0.00    +0.630 A 
ATOM      6  N   LIG    1        1.425   1.840   0.296  0.00  0.00    -0.630 NA
ENDROOT
BRANCH   3   7
ATOM      7  N   LIG    1       -1.512  -0.891   0.727  0.00  0.00    -0.800 N 
ATOM      8  H   LIG    1       -1.289  -1.833   0.792  0.00  0.00    +0.420 HD
ATOM      9  H   LIG    1       -2.439  -0.607   0.767  0.00  0.00    +0.420 HD
ENDBRANCH   3   7
BRANCH   1  11
ATOM     10  C   LIG    1        3.447  -0.510  -1.044  0.00  0.00    +0.060 C 
ATOM     11  C   LIG    1        3.162   0.112   0.324  0.00  0.00    +0.220 C 
BRANCH  11  12
ATOM     12  N   LIG    1        3.413  -0.881   1.377  0.00  0.00    -0.520 NA
ATOM     13  C   LIG    1        3.063  -0.347   2.700  0.00  0.00    +0.170 C 
ATOM     14  C   LIG    1        3.262  -1.436   3.757  0.00  0.00    +0.180 C 
ATOM     15  N   LIG    1        4.659  -1.892   3.728  0.00  0.00    -0.540 NA
ATOM     16  C   LIG    1        5.009  -2.427   2.405  0.00  0.00    +0.200 C 
ATOM     17  C   LIG    1        4.809  -1.337   1.349  0.00  0.00    +0.180 C 
BRANCH  15  18
ATOM     18  C   LIG    1        4.910  -2.886   4.781  0.00  0.00    +0.220 C 
BRANCH  18  19
ATOM     19  C   LIG    1        3.801  -3.940   4.761  0.00  0.00    +0.140 C 
BRANCH  19  20
ATOM     20  O   LIG    1        3.875  -4.687   3.545  0.00  0.00    -0.560 OA
ATOM     21  H   LIG    1        3.200  -5.375   3.464  0.00  0.00    +0.380 HD
ENDBRANCH  19  20
ENDBRANCH  18  19
ENDBRANCH  15  18
ENDBRANCH  11  12
ENDBRANCH   1  11
BRANCH   5  22
ATOM     22  N   LIG    1       -0.156   3.578   0.256  0.00  0.00    -0.630 N 
ATOM     23  H   LIG    1        0.553   4.239   0.232  0.00  0.00    +0.430 HD
BRANCH  22  24
ATOM     24  C   LIG    1       -1.493   3.984   0.197  0.00  0.00    +0.160 A 
ATOM     25  C   LIG    1       -2.434   3.186  -0.441  0.00  0.00    +0.020 A 
ATOM     26  C   LIG    1       -3.755   3.588  -0.494  0.00  0.00    +0.020 A 
ATOM     27  C   LIG    1       -4.138   4.787   0.078  0.00  0.00    -0.020 A 
ATOM     28  C   LIG    1       -3.202   5.586   0.709  0.00  0.00    +0.030 A 
ATOM     29  C   LIG    1       -1.881   5.188   0.770  0.00  0.00    -0.020 A 
ENDBRANCH  22  24
ENDBRANCH   5  22
TORSDOF 8
