REMARK  Name = ZINCqH0000006lMA.0
REMARK                            x       y       z     vdW  Elec       q    Type
REMARK                         _______ _______ _______ _____ _____    ______ ____
ROOT
ATOM      1  N   LIG    1        0.611   3.997  -1.280  0.00  0.00    -0.530 N 
ATOM      2  C   LIG    1       -0.638   3.637  -1.656  0.00  0.00    +0.550 A 
ATOM      3  C   LIG    1       -1.120   4.115  -2.960  0.00  0.00    -0.200 A 
ATOM      4  C   LIG    1       -2.392   3.797  -3.435  0.00  0.00    +0.100 A 
ATOM      5  C   LIG    1       -2.795   4.270  -4.664  0.00  0.00    -0.010 A 
ATOM      6  C   LIG    1       -1.947   5.057  -5.432  0.00  0.00    +0.060 A 
ATOM      7  C   LIG    1       -0.687   5.383  -4.983  0.00  0.00    +0.030 A 
ATOM      8  C   LIG    1       -0.254   4.916  -3.739  0.00  0.00    +0.160 A 
ATOM      9  N   LIG    1        0.977   5.213  -3.260  0.00  0.00    -0.530 NA
ATOM     10  O   LIG    1       -1.338   2.945  -0.940  0.00  0.00    -0.460 OA
ATOM     11  C   LIG    1        1.381   4.779  -2.092  0.00  0.00    +0.370 A 
ENDROOT
BRANCH   1  12
ATOM     12  C   LIG    1        1.139   3.547   0.010  0.00  0.00    +0.240 C 
ATOM     13  C   LIG    1        0.155   3.919   1.121  0.00  0.00    +0.070 C 
BRANCH  12  14
ATOM     14  C   LIG    1        1.327   2.029  -0.017  0.00  0.00    +0.170 C 
BRANCH  14  16
ATOM     15  C   LIG    1        0.116  -0.035  -0.150  0.00  0.00    +0.200 C 
ATOM     16  O   LIG    1        0.052   1.392  -0.117  0.00  0.00    -0.350 OA
ENDBRANCH  14  16
ENDBRANCH  12  14
ENDBRANCH   1  12
BRANCH  11  17
ATOM     17  S   LIG    1        2.997   5.221  -1.545  0.00  0.00    +0.000 S 
BRANCH  17  18
ATOM     18  C   LIG    1        3.543   6.219  -2.952  0.00  0.00    +0.110 C 
BRANCH  18  19
ATOM     19  C   LIG    1        4.964   6.727  -2.697  0.00  0.00    +0.210 C 
BRANCH  19  20
ATOM     20  O   LIG    1        5.395   7.516  -3.808  0.00  0.00    -0.310 OA
BRANCH  20  21
ATOM     21  C   LIG    1        6.644   8.046  -3.740  0.00  0.00    +0.130 A 
ATOM     22  C   LIG    1        7.437   7.817  -2.624  0.00  0.00    -0.080 A 
ATOM     23  C   LIG    1        8.708   8.354  -2.560  0.00  0.00    +0.050 A 
ATOM     24  C   LIG    1        9.187   9.126  -3.602  0.00  0.00    -0.040 A 
ATOM     25  C   LIG    1        8.397   9.361  -4.712  0.00  0.00    +0.050 A 
ATOM     26  C   LIG    1        7.127   8.823  -4.784  0.00  0.00    -0.020 A 
ENDBRANCH  20  21
ENDBRANCH  19  20
ENDBRANCH  18  19
ENDBRANCH  17  18
ENDBRANCH  11  17
TORSDOF 8
