REMARK  Name = ZINCvU0000000FqM.0
REMARK                            x       y       z     vdW  Elec       q    Type
REMARK                         _______ _______ _______ _____ _____    ______ ____
ROOT
ATOM      1  C   LIG    1        7.021   4.097   0.057  0.00  0.00    +0.180 C 
ATOM      2  C   LIG    1        8.181   3.102  -0.012  0.00  0.00    +0.020 C 
ENDROOT
BRANCH   1   3
ATOM      3  N   LIG    1        5.754   3.364   0.185  0.00  0.00    -0.510 NA
ATOM      4  C   LIG    1        5.485   2.564  -1.017  0.00  0.00    +0.180 C 
ATOM      5  C   LIG    1        4.095   1.932  -0.910  0.00  0.00    +0.060 C 
ATOM      6  C   LIG    1        4.036   1.048   0.339  0.00  0.00    +0.070 C 
ATOM      7  C   LIG    1        4.368   1.894   1.571  0.00  0.00    +0.060 C 
ATOM      8  C   LIG    1        5.749   2.528   1.392  0.00  0.00    +0.180 C 
BRANCH   6   9
ATOM      9  C   LIG    1        2.651   0.471   0.482  0.00  0.00    +0.110 A 
ATOM     10  N   LIG    1        1.589   1.172   0.608  0.00  0.00    -0.460 NA
ATOM     11  C   LIG    1        0.416   0.520   0.726  0.00  0.00    +0.100 A 
ATOM     12  C   LIG    1       -0.887   1.035   0.882  0.00  0.00    +0.090 A 
ATOM     13  C   LIG    1       -1.960   0.185   0.981  0.00  0.00    -0.020 A 
ATOM     14  C   LIG    1       -1.778  -1.191   0.940  0.00  0.00    +0.050 A 
ATOM     15  C   LIG    1       -0.514  -1.715   0.794  0.00  0.00    +0.080 A 
ATOM     16 CL   LIG    1       -3.559   0.837   1.166  0.00  0.00    -0.050 Cl
ATOM     17  C   LIG    1        0.586  -0.868   0.687  0.00  0.00    -0.190 A 
ATOM     18  S   LIG    1        2.305  -1.200   0.494  0.00  0.00    +0.110 S 
ENDBRANCH   6   9
ENDBRANCH   1   3
BRANCH   1  21
ATOM     19  N   LIG    1        8.301   5.772   1.349  0.00  0.00    -0.670 N 
ATOM     20  H   LIG    1        9.011   5.693   0.693  0.00  0.00    +0.410 HD
ATOM     21  C   LIG    1        7.202   4.999   1.250  0.00  0.00    +0.520 C 
ATOM     22  O   LIG    1        6.359   5.028   2.122  0.00  0.00    -0.490 OA
BRANCH  19  26
ATOM     23  C   LIG    1        8.646   8.509   4.481  0.00  0.00    +0.090 A 
ATOM     24  C   LIG    1        7.402   8.229   3.938  0.00  0.00    -0.010 A 
ATOM     25  C   LIG    1        7.288   7.322   2.900  0.00  0.00    +0.030 A 
ATOM     26  C   LIG    1        8.419   6.691   2.401  0.00  0.00    +0.150 A 
ATOM     27  C   LIG    1        9.666   6.965   2.947  0.00  0.00    -0.060 A 
ATOM     28  C   LIG    1        9.781   7.877   3.982  0.00  0.00    +0.120 A 
BRANCH  23  30
ATOM     29  C   LIG    1        7.550  10.011   5.964  0.00  0.00    +0.250 C 
ATOM     30  O   LIG    1        8.756   9.401   5.502  0.00  0.00    -0.310 OA
ENDBRANCH  23  30
BRANCH  28  31
ATOM     31  O   LIG    1       11.002   8.152   4.515  0.00  0.00    -0.300 OA
ATOM     32  C   LIG    1       12.123   7.466   3.953  0.00  0.00    +0.230 C 
ENDBRANCH  28  31
ENDBRANCH  19  26
ENDBRANCH   1  21
TORSDOF 6
