REMARK  Name = ZINCkj00000cxSLt.0
REMARK                            x       y       z     vdW  Elec       q    Type
REMARK                         _______ _______ _______ _____ _____    ______ ____
ROOT
ATOM      1  C   LIG    1       -0.019   1.542   0.011  0.00  0.00    +0.230 C 
ATOM      2  C   LIG    1        1.475   1.938  -0.002  0.00  0.00    +0.210 C 
ATOM      3  O   LIG    1        2.166   0.795   0.549  0.00  0.00    -0.350 OA
ATOM      4  C   LIG    1        1.501  -0.354  -0.005  0.00  0.00    +0.090 C 
ATOM      5  C   LIG    1        1.977  -0.601  -1.433  0.00  0.00    +0.040 C 
ATOM      6  C   LIG    1        3.453  -1.008  -1.411  0.00  0.00    +0.270 C 
ATOM      7  N   LIG    1        3.617  -2.222  -0.603  0.00  0.00    -0.500 N 
ATOM      8  C   LIG    1        3.244  -1.949   0.791  0.00  0.00    +0.270 C 
ATOM      9  H   LIG    1        3.025  -2.952  -0.971  0.00  0.00    +0.430 HD
ATOM     10  H   LIG    1        4.579  -2.522  -0.640  0.00  0.00    +0.430 HD
ATOM     11  C   LIG    1        1.759  -1.583   0.862  0.00  0.00    +0.090 C 
ATOM     12  C   LIG    1        0.002  -0.004   0.002  0.00  0.00    +0.040 C 
ENDROOT
BRANCH   1  14
ATOM     13  C   LIG    1       -1.269   3.272  -1.165  0.00  0.00    +0.580 C 
ATOM     14  N   LIG    1       -0.695   2.053  -1.185  0.00  0.00    -0.730 N 
ATOM     15  H   LIG    1       -0.729   1.514  -1.990  0.00  0.00    +0.400 HD
ATOM     16  O   LIG    1       -1.226   3.948  -0.154  0.00  0.00    -0.510 OA
BRANCH  13  21
ATOM     17  C   LIG    1       -2.593   5.078  -2.425  0.00  0.00    +0.160 A 
ATOM     18  C   LIG    1       -3.137   5.332  -3.613  0.00  0.00    -0.180 A 
ATOM     19  S   LIG    1       -2.890   3.982  -4.706  0.00  0.00    +0.250 S 
ATOM     20  C   LIG    1       -2.039   3.089  -3.531  0.00  0.00    -0.030 A 
ATOM     21  C   LIG    1       -1.948   3.785  -2.364  0.00  0.00    -0.160 A 
BRANCH  17  23
ATOM     22  C   LIG    1       -3.310   7.187  -1.590  0.00  0.00    +0.250 C 
ATOM     23  O   LIG    1       -2.635   5.946  -1.377  0.00  0.00    -0.280 OA
ENDBRANCH  17  23
ENDBRANCH  13  21
ENDBRANCH   1  14
TORSDOF 3
