REMARK  Name = ZINCpk000005LfT1.0
REMARK                            x       y       z     vdW  Elec       q    Type
REMARK                         _______ _______ _______ _____ _____    ______ ____
ROOT
ATOM      1  N   LIG    1       -3.496  -0.513  -2.547  0.00  0.00    -0.740 N 
ATOM      2  H   LIG    1       -4.112  -0.536  -1.798  0.00  0.00    +0.400 HD
ATOM      3  C   LIG    1       -2.347   0.184  -2.453  0.00  0.00    +0.710 C 
ATOM      4  N   LIG    1       -2.053   0.849  -1.318  0.00  0.00    -0.620 N 
ATOM      5  C   LIG    1       -2.983   0.814  -0.187  0.00  0.00    +0.280 C 
ATOM      6  O   LIG    1       -1.575   0.213  -3.392  0.00  0.00    -0.580 OA
ENDROOT
BRANCH   1  14
ATOM      7  C   LIG    1       -3.981  -5.124  -7.009  0.00  0.00    +0.100 C 
ATOM      8  C   LIG    1       -5.021  -4.167  -6.484  0.00  0.00    -0.110 A 
ATOM      9  C   LIG    1       -6.299  -4.187  -7.005  0.00  0.00    +0.040 A 
ATOM     10  C   LIG    1       -7.254  -3.310  -6.524  0.00  0.00    -0.020 A 
ATOM     11  C   LIG    1       -6.928  -2.416  -5.524  0.00  0.00    +0.030 A 
ATOM     12  C   LIG    1       -5.648  -2.392  -4.996  0.00  0.00    -0.160 A 
ATOM     13  C   LIG    1       -5.332  -1.404  -3.902  0.00  0.00    +0.090 C 
ATOM     14  C   LIG    1       -3.816  -1.236  -3.780  0.00  0.00    +0.230 C 
ATOM     15  C   LIG    1       -3.178  -2.631  -3.742  0.00  0.00    +0.230 C 
ATOM     16  O   LIG    1       -3.419  -3.271  -4.996  0.00  0.00    -0.300 OA
ATOM     17  C   LIG    1       -4.689  -3.266  -5.477  0.00  0.00    +0.130 A 
ENDBRANCH   1  14
BRANCH   4  18
ATOM     18  C   LIG    1       -0.799   1.609  -1.216  0.00  0.00    +0.230 C 
ATOM     19  C   LIG    1       -0.785   2.711  -2.264  0.00  0.00    -0.010 C 
ATOM     20  C   LIG    1       -1.572   3.947  -1.859  0.00  0.00    +0.210 C 
ATOM     21  N   LIG    1       -1.329   4.348  -0.478  0.00  0.00    -0.540 NA
ATOM     22  C   LIG    1        0.015   4.877  -0.246  0.00  0.00    +0.210 C 
ATOM     23  C   LIG    1        1.068   3.773  -0.330  0.00  0.00    +0.180 C 
ATOM     24  O   LIG    1        0.680   2.631   0.427  0.00  0.00    -0.360 OA
ATOM     25  C   LIG    1       -1.645   3.262   0.460  0.00  0.00    +0.210 C 
ATOM     26  C   LIG    1       -0.637   2.137   0.204  0.00  0.00    +0.160 C 
ENDBRANCH   4  18
TORSDOF 2
