REMARK  Name = ZINCpe000000W9Wd.0
REMARK                            x       y       z     vdW  Elec       q    Type
REMARK                         _______ _______ _______ _____ _____    ______ ____
ROOT
ATOM      1  N   LIG    1       -0.165   3.556  -1.216  0.00  0.00    -0.720 N 
ATOM      2  H   LIG    1       -0.903   3.135  -0.748  0.00  0.00    +0.410 HD
ATOM      3  C   LIG    1       -0.405   4.334  -2.290  0.00  0.00    +0.710 C 
ATOM      4  N   LIG    1       -1.670   4.529  -2.713  0.00  0.00    -0.660 N 
ATOM      5  H   LIG    1       -2.408   4.108  -2.244  0.00  0.00    +0.410 HD
ATOM      6  O   LIG    1        0.520   4.862  -2.877  0.00  0.00    -0.580 OA
ENDROOT
BRANCH   1  13
ATOM      7  C   LIG    1        1.280   2.024   0.001  0.00  0.00    +0.190 C 
ATOM      8  C   LIG    1        1.755   2.211   1.456  0.00  0.00    -0.330 C 
ATOM      9  S   LIG    1        2.726   3.768   1.375  0.00  0.00    +2.390 S 
ATOM     10  C   LIG    1        1.631   4.543   0.118  0.00  0.00    -0.290 C 
ATOM     11  O   LIG    1        2.617   4.468   2.606  0.00  0.00    -0.930 OA
ATOM     12  O   LIG    1        4.004   3.511   0.808  0.00  0.00    -0.920 OA
ATOM     13  C   LIG    1        1.209   3.344  -0.756  0.00  0.00    +0.290 C 
BRANCH   7  15
ATOM     14  C   LIG    1        0.002  -0.004   0.002  0.00  0.00    +0.220 C 
ATOM     15  O   LIG    1       -0.017   1.425   0.010  0.00  0.00    -0.370 OA
ENDBRANCH   7  15
ENDBRANCH   1  13
BRANCH   4  16
ATOM     16  C   LIG    1       -1.920   5.342  -3.835  0.00  0.00    +0.020 A 
ATOM     17  C   LIG    1       -3.138   5.616  -4.368  0.00  0.00    +0.190 A 
ATOM     18  N   LIG    1       -2.944   6.437  -5.433  0.00  0.00    -0.370 N 
ATOM     19  N   LIG    1       -1.567   6.662  -5.557  0.00  0.00    -0.270 NA
ATOM     20  C   LIG    1       -0.954   6.008  -4.603  0.00  0.00    +0.260 A 
BRANCH  18  21
ATOM     21  C   LIG    1       -3.989   6.985  -6.301  0.00  0.00    +0.370 C 
BRANCH  21  22
ATOM     22  C   LIG    1       -3.869   8.487  -6.346  0.00  0.00    -0.110 A 
ATOM     23  C   LIG    1       -4.554   9.262  -5.429  0.00  0.00    +0.020 A 
ATOM     24  C   LIG    1       -4.441  10.639  -5.468  0.00  0.00    +0.000 A 
ATOM     25  C   LIG    1       -3.649  11.241  -6.428  0.00  0.00    +0.010 A 
ATOM     26  C   LIG    1       -2.968  10.466  -7.348  0.00  0.00    +0.000 A 
ATOM     27  C   LIG    1       -3.078   9.088  -7.306  0.00  0.00    +0.040 A 
ENDBRANCH  21  22
ENDBRANCH  18  21
ENDBRANCH   4  16
TORSDOF 5
