REMARK  Name = ZINCpe00000bm2zo.0
REMARK                            x       y       z     vdW  Elec       q    Type
REMARK                         _______ _______ _______ _____ _____    ______ ____
ROOT
ATOM      1  C   LIG    1        0.097  -0.884  -4.310  0.00  0.00    +0.520 C 
ATOM      2  N   LIG    1        0.011  -0.268  -3.115  0.00  0.00    -0.600 N 
ATOM      3  C   LIG    1        0.949   0.804  -2.756  0.00  0.00    +0.280 C 
ATOM      4  C   LIG    1        0.146   2.042  -2.340  0.00  0.00    +0.020 C 
ATOM      5  C   LIG    1       -0.837   1.659  -1.236  0.00  0.00    -0.070 C 
ATOM      6  C   LIG    1       -1.809   0.592  -1.735  0.00  0.00    +0.040 C 
ATOM      7  C   LIG    1       -0.066   1.128  -0.013  0.00  0.00    +0.020 C 
ATOM      8  C   LIG    1       -0.858   1.672   1.203  0.00  0.00    +0.020 C 
ATOM      9  C   LIG    1       -1.286   3.084   0.727  0.00  0.00    +0.010 C 
ATOM     10  C   LIG    1       -1.613   2.899  -0.770  0.00  0.00    +0.250 C 
ATOM     11  C   LIG    1       -1.023  -0.658  -2.146  0.00  0.00    +0.270 C 
ATOM     12  O   LIG    1        0.891  -0.490  -5.139  0.00  0.00    -0.540 OA
ENDROOT
BRANCH  10  13
ATOM     13  N   LIG    1       -1.182   4.076  -1.529  0.00  0.00    -0.730 N 
ATOM     14  H   LIG    1       -0.298   4.099  -1.926  0.00  0.00    +0.400 HD
ATOM     15  C   LIG    1       -2.014   5.126  -1.674  0.00  0.00    +0.510 C 
ATOM     16  O   LIG    1       -3.120   5.097  -1.177  0.00  0.00    -0.510 OA
BRANCH  15  17
ATOM     17  C   LIG    1       -1.571   6.336  -2.455  0.00  0.00    +0.200 C 
BRANCH  17  18
ATOM     18  O   LIG    1       -2.620   7.306  -2.466  0.00  0.00    -0.370 OA
ATOM     19  C   LIG    1       -2.300   8.500  -3.185  0.00  0.00    +0.200 C 
ENDBRANCH  17  18
ENDBRANCH  15  17
ENDBRANCH  10  13
BRANCH   1  20
ATOM     20  C   LIG    1       -0.792  -2.061  -4.618  0.00  0.00    +0.230 C 
ATOM     21  C   LIG    1       -0.268  -3.300  -3.889  0.00  0.00    +0.060 C 
BRANCH  20  23
ATOM     22  C   LIG    1       -1.839  -2.932  -6.639  0.00  0.00    +0.520 C 
ATOM     23  N   LIG    1       -0.792  -2.308  -6.062  0.00  0.00    -0.720 N 
ATOM     24  H   LIG    1       -0.039  -2.024  -6.603  0.00  0.00    +0.410 HD
ATOM     25  O   LIG    1       -2.781  -3.287  -5.962  0.00  0.00    -0.540 OA
BRANCH  22  27
ATOM     26  C   LIG    1       -3.133  -3.901  -8.519  0.00  0.00    +0.040 C 
ATOM     27  C   LIG    1       -1.839  -3.186  -8.124  0.00  0.00    +0.060 C 
ENDBRANCH  22  27
ENDBRANCH  20  23
ENDBRANCH   1  20
TORSDOF 6
