REMARK  Name = ZINCrH000004tlNS.0
REMARK                            x       y       z     vdW  Elec       q    Type
REMARK                         _______ _______ _______ _____ _____    ______ ____
ROOT
ATOM      1  C   LIG    1        4.514  -0.102  -1.458  0.00  0.00    +0.380 A 
ATOM      2  N   LIG    1        4.898  -0.318  -0.224  0.00  0.00    -0.540 NA
ATOM      3  C   LIG    1        6.051  -0.970   0.055  0.00  0.00    +0.170 A 
ATOM      4  C   LIG    1        6.459  -1.201   1.372  0.00  0.00    +0.020 A 
ATOM      5  C   LIG    1        7.639  -1.869   1.612  0.00  0.00    +0.060 A 
ATOM      6  C   LIG    1        8.430  -2.316   0.562  0.00  0.00    -0.010 A 
ATOM      7  C   LIG    1        8.050  -2.100  -0.744  0.00  0.00    +0.100 A 
ATOM      8  C   LIG    1        6.859  -1.427  -1.011  0.00  0.00    -0.200 A 
ATOM      9  C   LIG    1        6.405  -1.171  -2.385  0.00  0.00    +0.560 A 
ATOM     10  O   LIG    1        7.057  -1.539  -3.344  0.00  0.00    -0.510 OA
ATOM     11  N   LIG    1        5.232  -0.514  -2.544  0.00  0.00    -0.530 N 
ENDROOT
BRANCH   1  12
ATOM     12  S   LIG    1        2.998   0.754  -1.729  0.00  0.00    +0.040 S 
BRANCH  12  13
ATOM     13  C   LIG    1        2.489   1.041  -0.016  0.00  0.00    +0.140 C 
BRANCH  13  17
ATOM     14  C   LIG    1       -1.234   3.144   0.029  0.00  0.00    -0.020 A 
ATOM     15  C   LIG    1       -1.217   1.748   0.017  0.00  0.00    +0.070 A 
ATOM     16  C   LIG    1       -0.013   1.076   0.008  0.00  0.00    +0.040 A 
ATOM     17  C   LIG    1        1.177   1.782   0.000  0.00  0.00    -0.050 A 
ATOM     18  C   LIG    1        1.167   3.166   0.007  0.00  0.00    +0.040 A 
ATOM     19  C   LIG    1       -0.030   3.850   0.022  0.00  0.00    +0.070 A 
BRANCH  14  21
ATOM     20  N   LIG    1       -3.470   4.406   0.055  0.00  0.00    -0.410 NA
ATOM     21  C   LIG    1       -2.481   3.848   0.044  0.00  0.00    +0.250 C 
ENDBRANCH  14  21
ENDBRANCH  13  17
ENDBRANCH  12  13
ENDBRANCH   1  12
BRANCH  11  22
ATOM     22  C   LIG    1        4.732  -0.238  -3.893  0.00  0.00    +0.310 C 
BRANCH  22  23
ATOM     23  C   LIG    1        5.268   1.113  -4.370  0.00  0.00    +0.140 C 
ATOM     24  C   LIG    1        4.747   1.413  -5.789  0.00  0.00    +0.010 C 
ATOM     25  C   LIG    1        3.981   2.750  -5.637  0.00  0.00    +0.010 C 
ATOM     26  C   LIG    1        4.591   3.328  -4.335  0.00  0.00    +0.210 C 
ATOM     27  O   LIG    1        4.789   2.160  -3.509  0.00  0.00    -0.360 OA
ENDBRANCH  22  23
ENDBRANCH  11  22
TORSDOF 6
