REMARK  Name = ZINCpe00000MJIds.0
REMARK                            x       y       z     vdW  Elec       q    Type
REMARK                         _______ _______ _______ _____ _____    ______ ____
ROOT
ATOM      1  O   LIG    1       -1.921   1.030  -2.938  0.00  0.00    -0.530 OA
ATOM      2  C   LIG    1       -1.638   0.789  -1.783  0.00  0.00    +0.540 C 
ATOM      3  N   LIG    1       -0.985   1.708  -1.044  0.00  0.00    -0.600 N 
ENDROOT
BRANCH   2   4
ATOM      4  C   LIG    1       -2.015  -0.537  -1.175  0.00  0.00    +0.010 C 
ATOM      5  C   LIG    1       -0.782  -1.461  -1.052  0.00  0.00    +0.090 C 
ATOM      6  C   LIG    1       -1.320  -2.841  -1.360  0.00  0.00    +0.520 C 
ATOM      7  N   LIG    1       -2.521  -2.746  -1.958  0.00  0.00    -0.560 N 
ATOM      8  O   LIG    1       -0.752  -3.881  -1.104  0.00  0.00    -0.470 OA
ATOM      9  C   LIG    1       -2.921  -1.345  -2.131  0.00  0.00    +0.310 C 
BRANCH   7  10
ATOM     10  C   LIG    1       -3.286  -3.839  -2.362  0.00  0.00    +0.370 A 
ATOM     11  C   LIG    1       -4.470  -3.630  -3.061  0.00  0.00    -0.070 A 
ATOM     12  C   LIG    1       -5.218  -4.723  -3.461  0.00  0.00    +0.090 A 
ATOM     13  C   LIG    1       -4.760  -5.993  -3.137  0.00  0.00    -0.060 A 
ATOM     14  C   LIG    1       -3.577  -6.127  -2.436  0.00  0.00    +0.300 A 
ATOM     15  N   LIG    1       -2.883  -5.066  -2.072  0.00  0.00    -0.490 NA
ENDBRANCH   7  10
ENDBRANCH   2   4
BRANCH   3  16
ATOM     16  C   LIG    1       -0.718   3.038  -1.597  0.00  0.00    +0.350 C 
BRANCH  16  17
ATOM     17  C   LIG    1        0.612   3.030  -2.305  0.00  0.00    -0.160 A 
ATOM     18  C   LIG    1        0.689   2.712  -3.652  0.00  0.00    +0.090 A 
ATOM     19  C   LIG    1        1.935   2.719  -4.261  0.00  0.00    -0.030 A 
ATOM     20  C   LIG    1        3.050   3.039  -3.511  0.00  0.00    +0.260 A 
ATOM     21  N   LIG    1        2.939   3.337  -2.231  0.00  0.00    -0.490 NA
ATOM     22  C   LIG    1        1.771   3.346  -1.620  0.00  0.00    +0.260 A 
ENDBRANCH  16  17
ENDBRANCH   3  16
BRANCH   3  23
ATOM     23  C   LIG    1       -0.542   1.377   0.312  0.00  0.00    +0.290 C 
BRANCH  23  24
ATOM     24  C   LIG    1       -1.575   1.880   1.323  0.00  0.00    +0.170 C 
BRANCH  24  25
ATOM     25  O   LIG    1       -2.803   1.172   1.143  0.00  0.00    -0.570 OA
ATOM     26  H   LIG    1       -3.504   1.441   1.752  0.00  0.00    +0.380 HD
ENDBRANCH  24  25
ENDBRANCH  23  24
ENDBRANCH   3  23
TORSDOF 7
