REMARK  Name = ZINCrD000000CFsG.0
REMARK                            x       y       z     vdW  Elec       q    Type
REMARK                         _______ _______ _______ _____ _____    ______ ____
ROOT
ATOM      1  C   LIG    1       -1.807   3.633   3.091  0.00  0.00    -0.210 A 
ATOM      2  C   LIG    1       -1.369   2.397   3.573  0.00  0.00    +0.090 A 
ATOM      3  C   LIG    1       -1.136   2.228   4.921  0.00  0.00    -0.070 A 
ATOM      4  C   LIG    1       -1.333   3.279   5.803  0.00  0.00    +0.090 A 
ATOM      5  C   LIG    1       -1.766   4.506   5.342  0.00  0.00    -0.080 A 
ATOM      6  C   LIG    1       -2.001   4.697   3.986  0.00  0.00    +0.270 A 
ENDROOT
BRANCH   1   8
ATOM      7  O   LIG    1       -3.012   4.477   1.280  0.00  0.00    -0.540 OA
ATOM      8  C   LIG    1       -2.058   3.821   1.651  0.00  0.00    +0.580 C 
ATOM      9  N   LIG    1       -1.230   3.265   0.744  0.00  0.00    -0.600 N 
ATOM     10  C   LIG    1        0.018   2.542   1.051  0.00  0.00    +0.250 C 
ATOM     11  C   LIG    1        0.870   2.657  -0.238  0.00  0.00    +0.030 C 
ATOM     12  C   LIG    1       -0.216   2.546  -1.341  0.00  0.00    +0.040 C 
ATOM     13  C   LIG    1       -1.421   3.278  -0.713  0.00  0.00    +0.230 C 
BRANCH  13  14
ATOM     14  C   LIG    1       -2.718   2.552  -1.077  0.00  0.00    +0.170 C 
BRANCH  14  15
ATOM     15  O   LIG    1       -2.610   1.173  -0.716  0.00  0.00    -0.570 OA
ATOM     16  H   LIG    1       -3.397   0.651  -0.918  0.00  0.00    +0.380 HD
ENDBRANCH  14  15
ENDBRANCH  13  14
ENDBRANCH   1   8
BRANCH   6  17
ATOM     17  N   LIG    1       -2.430   5.932   3.520  0.00  0.00    -0.720 N 
ATOM     18  H   LIG    1       -2.512   6.089   2.566  0.00  0.00    +0.410 HD
BRANCH  17  19
ATOM     19  C   LIG    1       -2.760   6.999   4.468  0.00  0.00    +0.320 C 
BRANCH  19  20
ATOM     20  C   LIG    1       -3.196   8.227   3.711  0.00  0.00    -0.110 A 
ATOM     21  C   LIG    1       -2.314   9.277   3.509  0.00  0.00    +0.100 A 
ATOM     22  C   LIG    1       -2.757  10.385   2.802  0.00  0.00    +0.010 A 
ATOM     23  C   LIG    1       -4.058  10.410   2.336  0.00  0.00    +0.280 A 
ATOM     24  N   LIG    1       -4.871   9.395   2.552  0.00  0.00    -0.440 NA
ATOM     25  C   LIG    1       -4.482   8.323   3.215  0.00  0.00    +0.060 A 
BRANCH  25  26
ATOM     26  C   LIG    1       -5.452   7.191   3.434  0.00  0.00    +0.510 C 
ATOM     27  F   LIG    1       -4.750   5.983   3.504  0.00  0.00    -0.150 F 
ATOM     28  F   LIG    1       -6.360   7.141   2.371  0.00  0.00    -0.160 F 
ATOM     29  F   LIG    1       -6.146   7.396   4.631  0.00  0.00    -0.170 F 
ENDBRANCH  25  26
ENDBRANCH  19  20
ENDBRANCH  17  19
ENDBRANCH   6  17
TORSDOF 7
