REMARK  Name = ZINCqH00000073Wp.0
REMARK                            x       y       z     vdW  Elec       q    Type
REMARK                         _______ _______ _______ _____ _____    ______ ____
ROOT
ATOM      1  C   LIG    1        0.007   5.731  -0.239  0.00  0.00    +0.250 C 
ENDROOT
BRANCH   1   3
ATOM      2  C   LIG    1       -1.512   7.540  -0.838  0.00  0.00    +0.570 C 
ATOM      3  N   LIG    1       -1.330   6.328  -0.277  0.00  0.00    -0.710 N 
ATOM      4  H   LIG    1       -2.085   5.851   0.102  0.00  0.00    +0.410 HD
ATOM      5  O   LIG    1       -0.566   8.138  -1.312  0.00  0.00    -0.540 OA
BRANCH   2   9
ATOM      6  C   LIG    1       -5.389   9.270  -0.947  0.00  0.00    +0.160 A 
ATOM      7  C   LIG    1       -4.308   9.956  -1.490  0.00  0.00    -0.020 A 
ATOM      8  C   LIG    1       -3.050   9.398  -1.457  0.00  0.00    +0.130 A 
ATOM      9  C   LIG    1       -2.859   8.141  -0.876  0.00  0.00    -0.180 A 
ATOM     10  C   LIG    1       -3.949   7.453  -0.336  0.00  0.00    +0.090 A 
ATOM     11  C   LIG    1       -5.204   8.020  -0.369  0.00  0.00    -0.080 A 
BRANCH   6  13
ATOM     12  C   LIG    1       -7.693   9.064  -0.407  0.00  0.00    +0.240 C 
ATOM     13  O   LIG    1       -6.628   9.823  -0.983  0.00  0.00    -0.310 OA
ENDBRANCH   6  13
ENDBRANCH   2   9
ENDBRANCH   1   3
BRANCH   1  14
ATOM     14  C   LIG    1       -0.114   4.231  -0.158  0.00  0.00    +0.520 C 
ATOM     15  N   LIG    1        0.965   3.455  -0.379  0.00  0.00    -0.660 N 
ATOM     16  H   LIG    1        1.825   3.862  -0.568  0.00  0.00    +0.410 HD
ATOM     17  O   LIG    1       -1.183   3.723   0.107  0.00  0.00    -0.510 OA
BRANCH  15  18
ATOM     18  C   LIG    1        0.845   2.061  -0.336  0.00  0.00    +0.150 A 
ATOM     19  C   LIG    1       -0.234   1.476   0.313  0.00  0.00    +0.010 A 
ATOM     20  C   LIG    1       -0.349   0.100   0.354  0.00  0.00    +0.030 A 
ATOM     21  C   LIG    1        0.607  -0.694  -0.252  0.00  0.00    -0.010 A 
ATOM     22  C   LIG    1        1.682  -0.114  -0.900  0.00  0.00    -0.070 A 
ATOM     23  C   LIG    1        2.722  -0.983  -1.560  0.00  0.00    +0.090 C 
ATOM     24  C   LIG    1        1.804   1.261  -0.943  0.00  0.00    -0.120 A 
ATOM     25  C   LIG    1        2.976   1.893  -1.649  0.00  0.00    +0.090 C 
ENDBRANCH  15  18
ENDBRANCH   1  14
BRANCH   1  26
ATOM     26  C   LIG    1        0.762   6.249   0.987  0.00  0.00    +0.000 C 
ATOM     27  C   LIG    1        2.206   5.745   0.946  0.00  0.00    +0.040 C 
ATOM     28  C   LIG    1        0.080   5.741   2.258  0.00  0.00    +0.030 C 
ENDBRANCH   1  26
TORSDOF 6
