REMARK  Name = ZINCvU0000000IMw.0
REMARK                            x       y       z     vdW  Elec       q    Type
REMARK                         _______ _______ _______ _____ _____    ______ ____
ROOT
ATOM      1  S   LIG    1        2.838   0.879  -0.034  0.00  0.00    +2.690 S 
ATOM      2  O   LIG    1        2.323  -0.341   0.481  0.00  0.00    -0.950 OA
ATOM      3  O   LIG    1        3.980   1.530   0.507  0.00  0.00    -0.950 OA
ENDROOT
BRANCH   1   7
ATOM      4  C   LIG    1       -0.551   3.878   0.154  0.00  0.00    +0.220 A 
ATOM      5  C   LIG    1       -0.826   2.526  -0.000  0.00  0.00    +0.000 A 
ATOM      6  C   LIG    1        0.209   1.613  -0.052  0.00  0.00    +0.150 A 
ATOM      7  C   LIG    1        1.519   2.046   0.039  0.00  0.00    -0.690 A 
ATOM      8  C   LIG    1        1.797   3.393   0.187  0.00  0.00    +0.160 A 
ATOM      9  C   LIG    1        0.766   4.310   0.244  0.00  0.00    -0.030 A 
BRANCH   4  11
ATOM     10  C   LIG    1       -2.790   4.444   0.727  0.00  0.00    +0.650 C 
ATOM     11  N   LIG    1       -1.598   4.805   0.211  0.00  0.00    -0.650 N 
ATOM     12  H   LIG    1       -1.466   5.707  -0.121  0.00  0.00    +0.420 HD
ATOM     13  O   LIG    1       -2.925   3.349   1.237  0.00  0.00    -0.540 OA
BRANCH  10  14
ATOM     14  O   LIG    1       -3.831   5.297   0.678  0.00  0.00    -0.360 OA
BRANCH  14  16
ATOM     15  C   LIG    1       -4.879   4.527   2.737  0.00  0.00    +0.040 C 
ATOM     16  C   LIG    1       -5.084   4.841   1.253  0.00  0.00    +0.140 C 
ATOM     17  C   LIG    1       -5.551   3.579   0.525  0.00  0.00    +0.040 C 
ATOM     18  C   LIG    1       -6.141   5.937   1.105  0.00  0.00    +0.080 C 
ENDBRANCH  14  16
ENDBRANCH  10  14
ENDBRANCH   4  11
ENDBRANCH   1   7
BRANCH   1  19
ATOM     19  N   LIG    1        3.166   0.610  -1.634  0.00  0.00    -1.060 N 
ATOM     20  H   LIG    1        3.059  -0.278  -2.009  0.00  0.00    +0.430 HD
BRANCH  19  21
ATOM     21  C   LIG    1        3.598   1.663  -2.445  0.00  0.00    +0.120 A 
ATOM     22  C   LIG    1        2.731   2.224  -3.376  0.00  0.00    +0.030 A 
ATOM     23  C   LIG    1        3.152   3.269  -4.178  0.00  0.00    +0.030 A 
ATOM     24  C   LIG    1        4.438   3.756  -4.068  0.00  0.00    +0.050 A 
ATOM     25  C   LIG    1        5.320   3.195  -3.139  0.00  0.00    +0.020 A 
ATOM     26  C   LIG    1        4.893   2.143  -2.325  0.00  0.00    +0.060 A 
BRANCH  25  27
ATOM     27  C   LIG    1        6.656   3.698  -3.022  0.00  0.00    -0.100 C 
ATOM     28  C   LIG    1        7.751   4.109  -2.927  0.00  0.00    -0.080 C 
BRANCH  28  29
ATOM     29  C   LIG    1        9.087   4.612  -2.811  0.00  0.00    -0.100 A 
ATOM     30  C   LIG    1        9.614   5.631  -3.548  0.00  0.00    +0.050 A 
ATOM     31  C   LIG    1       10.924   5.931  -3.250  0.00  0.00    +0.010 A 
ATOM     32  C   LIG    1       11.475   5.182  -2.289  0.00  0.00    -0.040 A 
ATOM     33  S   LIG    1       10.303   4.017  -1.688  0.00  0.00    +0.150 S 
ENDBRANCH  28  29
ENDBRANCH  25  27
ENDBRANCH  19  21
ENDBRANCH   1  19
TORSDOF 8
