REMARK  Name = ZINCvU0000000CaK.0
REMARK                            x       y       z     vdW  Elec       q    Type
REMARK                         _______ _______ _______ _____ _____    ______ ____
ROOT
ATOM      1  C   LIG    1        2.310   0.028  -0.020  0.00  0.00    +0.460 A 
ATOM      2  N   LIG    1        1.188  -0.635  -0.013  0.00  0.00    -0.550 NA
ATOM      3  C   LIG    1        0.002  -0.004   0.002  0.00  0.00    +0.540 A 
ATOM      4  C   LIG    1       -0.018   1.471   0.010  0.00  0.00    -0.220 A 
ATOM      5  C   LIG    1        1.203   2.122   0.002  0.00  0.00    +0.060 A 
ATOM      6  S   LIG    1        0.956   3.862   0.014  0.00  0.00    +0.190 S 
ATOM      7  C   LIG    1       -0.788   3.686   0.029  0.00  0.00    -0.040 A 
ATOM      8  C   LIG    1       -1.139   2.400   0.020  0.00  0.00    +0.010 A 
ATOM      9  O   LIG    1       -1.040  -0.640   0.008  0.00  0.00    -0.470 OA
ATOM     10  N   LIG    1        2.357   1.369  -0.013  0.00  0.00    -0.590 N 
ATOM     11  H   LIG    1        3.218   1.817  -0.019  0.00  0.00    +0.420 HD
ENDROOT
BRANCH   8  12
ATOM     12  C   LIG    1       -2.553   1.953   0.024  0.00  0.00    -0.050 A 
ATOM     13  C   LIG    1       -2.991   1.012  -0.907  0.00  0.00    +0.100 A 
ATOM     14  C   LIG    1       -4.306   0.595  -0.896  0.00  0.00    -0.010 A 
ATOM     15  C   LIG    1       -5.194   1.119   0.030  0.00  0.00    +0.110 A 
ATOM     16  C   LIG    1       -4.764   2.057   0.954  0.00  0.00    -0.020 A 
ATOM     17  F   LIG    1       -6.482   0.712   0.033  0.00  0.00    -0.140 F 
ATOM     18  C   LIG    1       -3.449   2.476   0.954  0.00  0.00    +0.060 A 
ENDBRANCH   8  12
BRANCH   1  19
ATOM     19  C   LIG    1        3.606  -0.741  -0.036  0.00  0.00    +0.140 C 
BRANCH  19  20
ATOM     20  S   LIG    1        3.252  -2.520  -0.042  0.00  0.00    -0.050 S 
BRANCH  20  21
ATOM     21  C   LIG    1        4.906  -3.265  -0.061  0.00  0.00    +0.060 C 
BRANCH  21  23
ATOM     22  N   LIG    1        5.888  -5.535  -0.081  0.00  0.00    -0.600 N 
ATOM     23  C   LIG    1        4.781  -4.767  -0.067  0.00  0.00    +0.530 C 
ATOM     24  O   LIG    1        3.684  -5.284  -0.059  0.00  0.00    -0.510 OA
BRANCH  22  25
ATOM     25  C   LIG    1        7.213  -4.911  -0.091  0.00  0.00    +0.220 C 
ATOM     26  C   LIG    1        7.994  -5.352   1.149  0.00  0.00    +0.020 C 
BRANCH  25  27
ATOM     27  C   LIG    1        7.970  -5.340  -1.349  0.00  0.00    +0.020 C 
ATOM     28  C   LIG    1        7.256  -4.791  -2.586  0.00  0.00    +0.010 C 
ENDBRANCH  25  27
ENDBRANCH  22  25
BRANCH  22  29
ATOM     29  C   LIG    1        5.766  -6.995  -0.088  0.00  0.00    +0.280 C 
BRANCH  29  30
ATOM     30  C   LIG    1        5.710  -7.496  -1.532  0.00  0.00    +0.000 C 
BRANCH  30  32
ATOM     31  C   LIG    1        5.527  -9.522  -2.983  0.00  0.00    +0.000 C 
ATOM     32  C   LIG    1        5.583  -9.021  -1.539  0.00  0.00    +0.000 C 
ENDBRANCH  30  32
ENDBRANCH  29  30
ENDBRANCH  22  29
ENDBRANCH  21  23
ENDBRANCH  20  21
ENDBRANCH  19  20
ENDBRANCH   1  19
TORSDOF 10
