REMARK  Name = ZINCrg00000fSBCl.0
REMARK                            x       y       z     vdW  Elec       q    Type
REMARK                         _______ _______ _______ _____ _____    ______ ____
ROOT
ATOM      1  O   LIG    1        1.279  -4.510   2.521  0.00  0.00    -0.560 OA
ATOM      2  C   LIG    1        1.634  -3.641   3.294  0.00  0.00    +0.720 C 
ATOM      3  N   LIG    1        2.202  -3.976   4.469  0.00  0.00    -0.640 N 
ATOM      4  H   LIG    1        2.485  -3.283   5.086  0.00  0.00    +0.420 HD
ATOM      5  N   LIG    1        1.461  -2.343   2.975  0.00  0.00    -0.730 N 
ATOM      6  H   LIG    1        1.744  -1.650   3.591  0.00  0.00    +0.400 HD
ENDROOT
BRANCH   3   7
ATOM      7  C   LIG    1        2.382  -5.325   4.801  0.00  0.00    +0.330 A 
ATOM      8  N   LIG    1        2.924  -5.780   5.905  0.00  0.00    -0.290 NA
ATOM      9  N   LIG    1        2.915  -7.180   5.854  0.00  0.00    -0.310 N 
ATOM     10  C   LIG    1        2.356  -7.551   4.671  0.00  0.00    +0.280 A 
ATOM     11  C   LIG    1        2.019  -6.425   4.004  0.00  0.00    -0.050 A 
BRANCH   9  12
ATOM     12  C   LIG    1        3.399  -8.040   6.838  0.00  0.00    +0.570 A 
ATOM     13  N   LIG    1        3.323  -9.347   6.647  0.00  0.00    -0.540 NA
ATOM     14  C   LIG    1        3.777 -10.191   7.558  0.00  0.00    +0.360 A 
ATOM     15  C   LIG    1        4.328  -9.691   8.727  0.00  0.00    -0.090 A 
ATOM     16  C   LIG    1        4.387  -8.317   8.896  0.00  0.00    +0.360 A 
ATOM     17  N   LIG    1        3.919  -7.529   7.942  0.00  0.00    -0.510 NA
ENDBRANCH   9  12
ENDBRANCH   3   7
BRANCH   5  18
ATOM     18  C   LIG    1        0.844  -1.979   1.697  0.00  0.00    +0.330 C 
BRANCH  18  19
ATOM     19  C   LIG    1        0.766  -0.455   1.584  0.00  0.00    -0.380 C 
BRANCH  19  20
ATOM     20  S   LIG    1        0.002  -0.004   0.002  0.00  0.00    +2.620 S 
ATOM     21  O   LIG    1        0.862  -0.337  -1.079  0.00  0.00    -0.940 OA
ATOM     22  O   LIG    1       -1.370  -0.373  -0.013  0.00  0.00    -0.950 OA
BRANCH  20  23
ATOM     23  N   LIG    1       -0.020   1.652   0.011  0.00  0.00    -1.110 NA
ATOM     24  H   LIG    1       -0.867   2.125   0.018  0.00  0.00    +0.420 HD
BRANCH  23  25
ATOM     25  C   LIG    1        1.238   2.401   0.003  0.00  0.00    +0.230 C 
ATOM     26  C   LIG    1        1.626   2.763   1.438  0.00  0.00    -0.010 C 
ATOM     27  C   LIG    1        2.940   3.546   1.430  0.00  0.00    +0.020 C 
ATOM     28  C   LIG    1        2.766   4.826   0.611  0.00  0.00    +0.010 C 
ATOM     29  C   LIG    1        2.378   4.465  -0.824  0.00  0.00    +0.020 C 
ATOM     30  C   LIG    1        1.064   3.682  -0.816  0.00  0.00    +0.020 C 
ENDBRANCH  23  25
ENDBRANCH  20  23
ENDBRANCH  19  20
ENDBRANCH  18  19
ENDBRANCH   5  18
TORSDOF 7
