REMARK  Name = ZINCpk00000xKv9X.0
REMARK                            x       y       z     vdW  Elec       q    Type
REMARK                         _______ _______ _______ _____ _____    ______ ____
ROOT
ATOM      1  C   LIG    1       -2.791   6.002   1.474  0.00  0.00    +0.040 C 
ATOM      2  C   LIG    1       -2.657   7.482   1.729  0.00  0.00    +0.270 C 
ATOM      3  N   LIG    1       -1.736   8.171   1.143  0.00  0.00    -0.470 NA
ATOM      4  C   LIG    1       -0.879   7.612   0.274  0.00  0.00    +0.500 C 
ATOM      5  N   LIG    1       -1.111   6.398  -0.255  0.00  0.00    -0.680 N 
ATOM      6  H   LIG    1       -0.447   5.984  -0.828  0.00  0.00    +0.430 HD
ATOM      7  S   LIG    1        0.538   8.463  -0.171  0.00  0.00    -0.470 S 
ATOM      8  C   LIG    1       -3.610   8.164   2.676  0.00  0.00    +0.180 C 
ATOM      9  C   LIG    1       -2.366   5.697   0.035  0.00  0.00    +0.320 C 
ENDROOT
BRANCH   9  10
ATOM     10  C   LIG    1       -2.163   4.213  -0.127  0.00  0.00    -0.140 A 
ATOM     11  C   LIG    1       -0.904   3.667   0.022  0.00  0.00    +0.150 A 
ATOM     12  C   LIG    1       -0.716   2.305  -0.131  0.00  0.00    -0.060 A 
ATOM     13  C   LIG    1       -1.791   1.487  -0.425  0.00  0.00    +0.180 A 
ATOM     14  C   LIG    1       -3.054   2.028  -0.572  0.00  0.00    -0.190 A 
ATOM     15  C   LIG    1       -4.218   1.127  -0.901  0.00  0.00    +0.320 C 
ATOM     16  O   LIG    1       -5.442   1.820  -0.641  0.00  0.00    -0.370 OA
ATOM     17  C   LIG    1       -5.473   3.135  -1.209  0.00  0.00    +0.460 C 
ATOM     18  O   LIG    1       -4.483   3.937  -0.558  0.00  0.00    -0.320 OA
ATOM     19  C   LIG    1       -3.244   3.392  -0.422  0.00  0.00    +0.220 A 
BRANCH  12  20
ATOM     20  N   LIG    1        0.635   1.723   0.026  0.00  0.00    +0.030 N 
ATOM     21  O   LIG    1        1.583   2.444   0.281  0.00  0.00    -0.150 OA
ATOM     22  O   LIG    1        0.800   0.523  -0.103  0.00  0.00    -0.150 OA
ENDBRANCH  12  20
ENDBRANCH   9  10
BRANCH   1  23
ATOM     23  C   LIG    1       -1.905   5.246   2.430  0.00  0.00    +0.470 C 
ATOM     24  O   LIG    1       -0.838   5.708   2.760  0.00  0.00    -0.480 OA
BRANCH  23  26
ATOM     25  C   LIG    1       -1.398   3.387   3.833  0.00  0.00    +0.270 C 
ATOM     26  O   LIG    1       -2.301   4.059   2.917  0.00  0.00    -0.350 OA
ENDBRANCH  23  26
ENDBRANCH   1  23
TORSDOF 4
