REMARK  Name = ZINCpk00000xKv9X.1
REMARK                            x       y       z     vdW  Elec       q    Type
REMARK                         _______ _______ _______ _____ _____    ______ ____
ROOT
ATOM      1  C   LIG    1       -1.290   2.905  -0.009  0.00  0.00    -0.280 C 
ATOM      2  C   LIG    1       -1.164   1.559  -0.015  0.00  0.00    +0.250 C 
ATOM      3  N   LIG    1        0.065   0.967   0.015  0.00  0.00    -0.600 N 
ATOM      4  H   LIG    1        0.105  -0.002   0.013  0.00  0.00    +0.450 HD
ATOM      5  C   LIG    1        1.217   1.648   0.042  0.00  0.00    +0.550 C 
ATOM      6  N   LIG    1        1.254   2.995   0.045  0.00  0.00    -0.640 N 
ATOM      7  H   LIG    1        2.101   3.468   0.065  0.00  0.00    +0.450 HD
ATOM      8  S   LIG    1        2.692   0.778   0.071  0.00  0.00    -0.570 S 
ATOM      9  C   LIG    1       -2.401   0.699  -0.049  0.00  0.00    +0.180 C 
ATOM     10  C   LIG    1       -0.021   3.731   0.020  0.00  0.00    +0.350 C 
ENDROOT
BRANCH  10  11
ATOM     11  C   LIG    1       -0.019   4.621  -1.196  0.00  0.00    -0.130 A 
ATOM     12  C   LIG    1       -0.734   4.256  -2.320  0.00  0.00    +0.160 A 
ATOM     13  C   LIG    1       -0.736   5.075  -3.435  0.00  0.00    -0.070 A 
ATOM     14  C   LIG    1       -0.016   6.254  -3.430  0.00  0.00    +0.160 A 
ATOM     15  C   LIG    1        0.707   6.621  -2.310  0.00  0.00    -0.200 A 
ATOM     16  C   LIG    1        1.493   7.908  -2.317  0.00  0.00    +0.320 C 
ATOM     17  O   LIG    1        1.838   8.259  -0.974  0.00  0.00    -0.370 OA
ATOM     18  C   LIG    1        2.406   7.168  -0.238  0.00  0.00    +0.460 C 
ATOM     19  O   LIG    1        1.408   6.156  -0.079  0.00  0.00    -0.320 OA
ATOM     20  C   LIG    1        0.706   5.805  -1.189  0.00  0.00    +0.210 A 
BRANCH  13  21
ATOM     21  N   LIG    1       -1.508   4.685  -4.636  0.00  0.00    +0.030 N 
ATOM     22  O   LIG    1       -2.143   3.646  -4.641  0.00  0.00    -0.160 OA
ATOM     23  O   LIG    1       -1.508   5.403  -5.620  0.00  0.00    -0.150 OA
ENDBRANCH  13  21
ENDBRANCH  10  11
BRANCH   1  24
ATOM     24  C   LIG    1       -2.563   3.520  -0.034  0.00  0.00    +0.530 C 
ATOM     25  O   LIG    1       -3.570   2.839   0.026  0.00  0.00    -0.500 OA
BRANCH  24  27
ATOM     26  C   LIG    1       -3.972   5.425  -0.031  0.00  0.00    +0.260 C 
ATOM     27  O   LIG    1       -2.662   4.863  -0.126  0.00  0.00    -0.350 OA
ENDBRANCH  24  27
ENDBRANCH   1  24
TORSDOF 4
