REMARK  Name = ZINCqH0000003ZfM.0
REMARK                            x       y       z     vdW  Elec       q    Type
REMARK                         _______ _______ _______ _____ _____    ______ ____
ROOT
ATOM      1  C   LIG    1        1.849   4.534   2.133  0.00  0.00    +0.520 C 
ATOM      2  N   LIG    1        1.101   5.477   2.739  0.00  0.00    -0.680 N 
ATOM      3  H   LIG    1        0.228   5.248   3.095  0.00  0.00    +0.410 HD
ATOM      4  O   LIG    1        2.978   4.794   1.773  0.00  0.00    -0.500 OA
ENDROOT
BRANCH   2   5
ATOM      5  C   LIG    1        1.584   6.785   2.856  0.00  0.00    +0.210 A 
ATOM      6  C   LIG    1        2.276   7.367   1.802  0.00  0.00    +0.000 A 
ATOM      7  C   LIG    1        2.747   8.661   1.919  0.00  0.00    +0.140 A 
ATOM      8  C   LIG    1        2.538   9.372   3.086  0.00  0.00    -0.690 A 
ATOM      9  C   LIG    1        1.854   8.792   4.139  0.00  0.00    +0.140 A 
ATOM     10  C   LIG    1        1.376   7.501   4.027  0.00  0.00    -0.020 A 
BRANCH   8  11
ATOM     11  S   LIG    1        3.146  11.019   3.233  0.00  0.00    +2.700 S 
ATOM     12  O   LIG    1        2.350  11.653   4.225  0.00  0.00    -0.950 OA
ATOM     13  O   LIG    1        3.281  11.517   1.909  0.00  0.00    -0.950 OA
BRANCH  11  14
ATOM     14  N   LIG    1        4.678  10.923   3.855  0.00  0.00    -1.010 NA
ATOM     15  C   LIG    1        4.883  10.950   5.305  0.00  0.00    +0.300 C 
ATOM     16  C   LIG    1        5.828  10.811   2.954  0.00  0.00    +0.290 C 
ENDBRANCH  11  14
ENDBRANCH   8  11
ENDBRANCH   2   5
BRANCH   1  17
ATOM     17  C   LIG    1        1.283   3.156   1.901  0.00  0.00    +0.040 C 
BRANCH  17  18
ATOM     18  C   LIG    1        2.400   2.145   1.920  0.00  0.00    -0.070 A 
ATOM     19  C   LIG    1        3.345   2.139   0.910  0.00  0.00    +0.040 A 
ATOM     20  C   LIG    1        4.371   1.214   0.930  0.00  0.00    +0.000 A 
ATOM     21  C   LIG    1        4.449   0.288   1.954  0.00  0.00    +0.000 A 
ATOM     22  C   LIG    1        3.501   0.291   2.961  0.00  0.00    +0.000 A 
ATOM     23  C   LIG    1        2.477   1.219   2.943  0.00  0.00    +0.000 A 
ENDBRANCH  17  18
BRANCH  17  24
ATOM     24  C   LIG    1        0.581   3.116   0.542  0.00  0.00    +0.000 C 
ATOM     25  C   LIG    1       -0.434   4.257   0.459  0.00  0.00    +0.030 C 
BRANCH  24  27
ATOM     26  C   LIG    1        0.887   0.654   0.241  0.00  0.00    +0.010 C 
ATOM     27  C   LIG    1       -0.142   1.777   0.382  0.00  0.00    +0.020 C 
ENDBRANCH  24  27
ENDBRANCH  17  24
ENDBRANCH   1  17
TORSDOF 7
