REMARK  Name = ZINCtV000002Ey5A.0
REMARK                            x       y       z     vdW  Elec       q    Type
REMARK                         _______ _______ _______ _____ _____    ______ ____
ROOT
ATOM      1  C   LIG    1       -2.245   1.079   1.488  0.00  0.00    +0.160 A 
ATOM      2  N   LIG    1       -2.519  -0.187   1.607  0.00  0.00    -0.240 NA
ATOM      3  N   LIG    1       -3.795  -0.350   1.639  0.00  0.00    -0.290 NA
ATOM      4  C   LIG    1       -4.384   0.817   1.531  0.00  0.00    +0.140 A 
ATOM      5  O   LIG    1       -3.414   1.746   1.433  0.00  0.00    -0.200 OA
ENDROOT
BRANCH   1   7
ATOM      6  C   LIG    1       -0.262   1.421   0.039  0.00  0.00    +0.070 C 
ATOM      7  C   LIG    1       -0.868   1.688   1.418  0.00  0.00    +0.300 C 
BRANCH   7   8
ATOM      8  O   LIG    1       -0.038   1.106   2.425  0.00  0.00    -0.290 OA
BRANCH   8   9
ATOM      9  C   LIG    1        1.015   1.848   2.861  0.00  0.00    +0.090 A 
ATOM     10  C   LIG    1        1.310   3.058   2.255  0.00  0.00    -0.040 A 
ATOM     11  C   LIG    1        2.378   3.813   2.704  0.00  0.00    +0.050 A 
ATOM     12  C   LIG    1        3.157   3.358   3.750  0.00  0.00    +0.020 A 
ATOM     13  C   LIG    1        2.869   2.148   4.355  0.00  0.00    +0.040 A 
ATOM     14  C   LIG    1        1.799   1.391   3.913  0.00  0.00    +0.080 A 
ATOM     15  F   LIG    1        1.517   0.209   4.504  0.00  0.00    -0.130 F 
ENDBRANCH   8   9
ENDBRANCH   7   8
ENDBRANCH   1   7
BRANCH   4  16
ATOM     16  S   LIG    1       -6.121   1.113   1.516  0.00  0.00    +0.080 S 
BRANCH  16  17
ATOM     17  C   LIG    1       -6.731  -0.583   1.685  0.00  0.00    +0.150 C 
BRANCH  17  18
ATOM     18  C   LIG    1       -8.238  -0.576   1.697  0.00  0.00    -0.090 A 
ATOM     19  C   LIG    1       -8.917  -0.463   2.896  0.00  0.00    +0.040 A 
ATOM     20  C   LIG    1      -10.297  -0.451   2.912  0.00  0.00    +0.020 A 
ATOM     21  C   LIG    1      -11.006  -0.564   1.718  0.00  0.00    -0.030 A 
ATOM     22  C   LIG    1      -10.317  -0.682   0.513  0.00  0.00    +0.020 A 
ATOM     23  C   LIG    1       -8.936  -0.688   0.508  0.00  0.00    +0.040 A 
BRANCH  21  24
ATOM     24  C   LIG    1      -12.490  -0.558   1.729  0.00  0.00    -0.050 A 
ATOM     25  C   LIG    1      -13.199  -0.665   0.534  0.00  0.00    +0.020 A 
ATOM     26  C   LIG    1      -14.579  -0.664   0.551  0.00  0.00    +0.010 A 
ATOM     27  C   LIG    1      -15.258  -0.546   1.750  0.00  0.00    +0.000 A 
ATOM     28  C   LIG    1      -14.560  -0.433   2.939  0.00  0.00    +0.010 A 
ATOM     29  C   LIG    1      -13.180  -0.439   2.934  0.00  0.00    +0.020 A 
ENDBRANCH  21  24
ENDBRANCH  17  18
ENDBRANCH  16  17
ENDBRANCH   4  16
TORSDOF 7
