REMARK  Name = ZINCvU0000000JW7.0
REMARK                            x       y       z     vdW  Elec       q    Type
REMARK                         _______ _______ _______ _____ _____    ______ ____
ROOT
ATOM      1  C   LIG    1        1.121   1.799  -0.069  0.00  0.00    -0.160 A 
ATOM      2  C   LIG    1        2.277   1.017  -0.134  0.00  0.00    +0.070 A 
ATOM      3  C   LIG    1        3.515   1.620  -0.143  0.00  0.00    +0.010 A 
ATOM      4  C   LIG    1        3.615   3.007  -0.077  0.00  0.00    +0.180 A 
ATOM      5  C   LIG    1        2.466   3.788  -0.008  0.00  0.00    -0.020 A 
ATOM      6  C   LIG    1        1.225   3.192  -0.003  0.00  0.00    +0.110 A 
ENDROOT
BRANCH   1   9
ATOM      7  N   LIG    1       -0.307  -0.186  -0.128  0.00  0.00    -0.660 N 
ATOM      8  H   LIG    1        0.491  -0.726  -0.243  0.00  0.00    +0.410 HD
ATOM      9  C   LIG    1       -0.208   1.157  -0.064  0.00  0.00    +0.560 C 
ATOM     10  O   LIG    1       -1.213   1.838  -0.008  0.00  0.00    -0.520 OA
BRANCH   7  16
ATOM     11  C   LIG    1       -1.684  -2.037   0.606  0.00  0.00    +0.100 A 
ATOM     12  C   LIG    1       -2.928  -2.638   0.707  0.00  0.00    -0.060 A 
ATOM     13  C   LIG    1       -4.042  -2.018   0.171  0.00  0.00    +0.040 A 
ATOM     14  C   LIG    1       -3.919  -0.795  -0.462  0.00  0.00    -0.010 A 
ATOM     15  C   LIG    1       -2.682  -0.185  -0.562  0.00  0.00    +0.070 A 
ATOM     16  C   LIG    1       -1.561  -0.801  -0.027  0.00  0.00    +0.120 A 
BRANCH  11  18
ATOM     17  C   LIG    1       -0.789  -3.912   1.763  0.00  0.00    +0.250 C 
ATOM     18  O   LIG    1       -0.588  -2.647   1.129  0.00  0.00    -0.320 OA
ENDBRANCH  11  18
ENDBRANCH   7  16
ENDBRANCH   1   9
BRANCH   4  19
ATOM     19  N   LIG    1        4.870   3.614  -0.082  0.00  0.00    -0.670 N 
ATOM     20  H   LIG    1        4.968   4.522  -0.410  0.00  0.00    +0.420 HD
ATOM     21  C   LIG    1        5.947   2.940   0.369  0.00  0.00    +0.510 C 
ATOM     22  O   LIG    1        5.809   1.847   0.877  0.00  0.00    -0.500 OA
BRANCH  21  23
ATOM     23  C   LIG    1        7.321   3.545   0.243  0.00  0.00    +0.120 C 
BRANCH  23  24
ATOM     24  C   LIG    1        8.342   2.597   0.819  0.00  0.00    -0.070 A 
ATOM     25  C   LIG    1        8.673   2.688   2.135  0.00  0.00    +0.040 A 
ATOM     26  C   LIG    1        9.620   1.802   2.677  0.00  0.00    -0.050 A 
ATOM     27  C   LIG    1        9.984   1.863   4.033  0.00  0.00    +0.020 A 
ATOM     28  C   LIG    1       10.910   0.992   4.521  0.00  0.00    +0.000 A 
ATOM     29  C   LIG    1       11.504   0.039   3.696  0.00  0.00    +0.000 A 
ATOM     30  C   LIG    1       11.176  -0.049   2.378  0.00  0.00    +0.020 A 
ATOM     31  C   LIG    1       10.225   0.833   1.838  0.00  0.00    -0.050 A 
ATOM     32  C   LIG    1        9.861   0.773   0.482  0.00  0.00    +0.030 A 
ATOM     33  C   LIG    1        8.936   1.643  -0.006  0.00  0.00    +0.020 A 
ENDBRANCH  23  24
ENDBRANCH  21  23
ENDBRANCH   4  19
TORSDOF 6
