REMARK  Name = ZINCqH0000007jWG.1
REMARK                            x       y       z     vdW  Elec       q    Type
REMARK                         _______ _______ _______ _____ _____    ______ ____
ROOT
ATOM      1  C   LIG    1       -0.202   3.576   0.085  0.00  0.00    -0.650 A 
ATOM      2  C   LIG    1       -1.218   2.641   0.058  0.00  0.00    +0.130 A 
ATOM      3  C   LIG    1       -0.918   1.295  -0.108  0.00  0.00    +0.140 A 
ATOM      4  C   LIG    1        0.404   0.892  -0.236  0.00  0.00    +0.100 A 
ATOM      5  C   LIG    1        1.417   1.831  -0.210  0.00  0.00    +0.050 A 
ATOM      6  C   LIG    1        1.115   3.172  -0.049  0.00  0.00    +0.040 A 
ATOM      7 CL   LIG    1        2.390   4.349  -0.016  0.00  0.00    -0.040 Cl
ENDROOT
BRANCH   3   8
ATOM      8  N   LIG    1       -1.947   0.346  -0.140  0.00  0.00    -0.670 N 
ATOM      9  H   LIG    1       -2.807   0.577  -0.525  0.00  0.00    +0.420 HD
ATOM     10  C   LIG    1       -1.742  -0.887   0.363  0.00  0.00    +0.550 C 
ATOM     11  O   LIG    1       -0.700  -1.146   0.927  0.00  0.00    -0.520 OA
BRANCH  10  12
ATOM     12  C   LIG    1       -2.807  -1.944   0.223  0.00  0.00    -0.070 C 
ATOM     13  C   LIG    1       -3.523  -2.398   1.497  0.00  0.00    +0.060 C 
ATOM     14  C   LIG    1       -2.514  -3.324   0.815  0.00  0.00    +0.000 C 
ATOM     15  C   LIG    1       -3.064  -4.543   0.072  0.00  0.00    +0.060 C 
ENDBRANCH  10  12
ENDBRANCH   3   8
BRANCH   1  16
ATOM     16  S   LIG    1       -0.582   5.284   0.289  0.00  0.00    +2.690 S 
ATOM     17  O   LIG    1       -1.993   5.365   0.442  0.00  0.00    -0.950 OA
ATOM     18  O   LIG    1        0.131   5.978  -0.725  0.00  0.00    -0.930 OA
BRANCH  16  19
ATOM     19  N   LIG    1        0.073   5.763   1.733  0.00  0.00    -1.050 N 
ATOM     20  H   LIG    1        0.754   6.454   1.751  0.00  0.00    +0.430 HD
BRANCH  19  24
ATOM     21  C   LIG    1       -1.201   3.998   5.288  0.00  0.00    +0.120 A 
ATOM     22  C   LIG    1        0.154   4.176   5.049  0.00  0.00    +0.010 A 
ATOM     23  C   LIG    1        0.577   4.761   3.871  0.00  0.00    +0.060 A 
ATOM     24  C   LIG    1       -0.355   5.170   2.926  0.00  0.00    +0.100 A 
ATOM     25  C   LIG    1       -1.711   4.997   3.168  0.00  0.00    +0.050 A 
ATOM     26  C   LIG    1       -2.132   4.407   4.344  0.00  0.00    -0.050 A 
BRANCH  21  28
ATOM     27  C   LIG    1       -3.026   3.269   6.627  0.00  0.00    +0.250 C 
ATOM     28  O   LIG    1       -1.617   3.422   6.447  0.00  0.00    -0.320 OA
ENDBRANCH  21  28
ENDBRANCH  19  24
ENDBRANCH  16  19
ENDBRANCH   1  16
TORSDOF 6
