REMARK  Name = ZINCpk00000y6yEs.0
REMARK                            x       y       z     vdW  Elec       q    Type
REMARK                         _______ _______ _______ _____ _____    ______ ____
ROOT
ATOM      1  C   LIG    1       -0.466   1.100   5.079  0.00  0.00    +0.520 C 
ATOM      2  N   LIG    1       -1.051   1.494   6.227  0.00  0.00    -0.610 N 
ATOM      3  C   LIG    1       -2.195   2.416   6.207  0.00  0.00    +0.260 C 
ATOM      4  C   LIG    1       -3.346   1.782   7.003  0.00  0.00    +0.020 C 
ATOM      5  C   LIG    1       -2.852   1.424   8.407  0.00  0.00    +0.010 C 
ATOM      6  C   LIG    1       -1.718   0.402   8.305  0.00  0.00    +0.030 C 
ATOM      7  C   LIG    1       -0.552   1.016   7.524  0.00  0.00    +0.280 C 
ATOM      8  O   LIG    1        0.481   0.344   5.109  0.00  0.00    -0.540 OA
ENDROOT
BRANCH   5   9
ATOM      9  C   LIG    1       -4.006   0.827   9.216  0.00  0.00    +0.180 C 
ATOM     10  O   LIG    1       -4.594  -0.285   8.507  0.00  0.00    -0.360 OA
ATOM     11  C   LIG    1       -5.914  -0.441   9.072  0.00  0.00    +0.200 C 
ATOM     12  C   LIG    1       -6.435   1.000   9.262  0.00  0.00    +0.020 C 
ATOM     13  C   LIG    1       -5.151   1.854   9.358  0.00  0.00    -0.030 C 
BRANCH  13  14
ATOM     14  C   LIG    1       -5.076   2.546  10.695  0.00  0.00    +0.530 C 
ATOM     15  O   LIG    1       -4.195   2.259  11.478  0.00  0.00    -0.540 OA
ATOM     16  N   LIG    1       -5.988   3.483  11.021  0.00  0.00    -0.850 N 
ATOM     17  H   LIG    1       -5.940   3.928  11.881  0.00  0.00    +0.400 HD
ATOM     18  H   LIG    1       -6.692   3.712  10.395  0.00  0.00    +0.400 HD
ENDBRANCH  13  14
ENDBRANCH   5   9
BRANCH   1  19
ATOM     19  C   LIG    1       -0.990   1.600   3.757  0.00  0.00    +0.050 C 
BRANCH  19  20
ATOM     20  C   LIG    1       -0.155   1.006   2.620  0.00  0.00    +0.130 C 
BRANCH  20  21
ATOM     21  C   LIG    1       -0.687   1.514   1.278  0.00  0.00    +0.040 C 
ATOM     22  N   LIG    1       -2.106   1.859   1.171  0.00  0.00    -0.120 NA
ATOM     23  N   LIG    1       -1.334   2.827   1.232  0.00  0.00    -0.120 NA
BRANCH  21  24
ATOM     24  C   LIG    1        0.041   1.012   0.030  0.00  0.00    +0.120 C 
BRANCH  24  25
ATOM     25  C   LIG    1       -0.696   1.498  -1.220  0.00  0.00    +0.160 C 
BRANCH  25  27
ATOM     26  C   LIG    1        0.563   0.629  -3.380  0.00  0.00    +0.030 C 
ATOM     27  C   LIG    1        0.005   1.015  -2.421  0.00  0.00    -0.190 C 
ENDBRANCH  25  27
ENDBRANCH  24  25
ENDBRANCH  21  24
ENDBRANCH  20  21
ENDBRANCH  19  20
ENDBRANCH   1  19
TORSDOF 8
