REMARK  Name = ZINCvU00000003VK.0
REMARK                            x       y       z     vdW  Elec       q    Type
REMARK                         _______ _______ _______ _____ _____    ______ ____
ROOT
ATOM      1  N   LIG    1        2.476   1.335   1.711  0.00  0.00    -0.600 N 
ATOM      2  C   LIG    1        3.315   2.260   2.217  0.00  0.00    +0.550 C 
ATOM      3  O   LIG    1        4.263   2.645   1.561  0.00  0.00    -0.490 OA
ENDROOT
BRANCH   2   4
ATOM      4  C   LIG    1        3.083   2.807   3.571  0.00  0.00    -0.080 A 
ATOM      5  C   LIG    1        2.675   1.964   4.606  0.00  0.00    +0.000 A 
ATOM      6  C   LIG    1        2.464   2.477   5.870  0.00  0.00    +0.050 A 
ATOM      7  C   LIG    1        2.644   3.826   6.112  0.00  0.00    -0.060 A 
ATOM      8  C   LIG    1        3.045   4.673   5.088  0.00  0.00    +0.130 A 
ATOM      9  C   LIG    1        3.265   4.168   3.817  0.00  0.00    +0.040 A 
BRANCH   8  10
ATOM     10  O   LIG    1        3.220   5.999   5.332  0.00  0.00    -0.310 OA
BRANCH  10  11
ATOM     11  C   LIG    1        2.976   6.451   6.665  0.00  0.00    +0.320 C 
BRANCH  11  12
ATOM     12  C   LIG    1        3.220   7.936   6.745  0.00  0.00    +0.050 A 
ATOM     13  C   LIG    1        3.611   8.662   5.693  0.00  0.00    -0.050 A 
ATOM     14  S   LIG    1        3.775  10.335   6.219  0.00  0.00    +0.140 S 
ATOM     15  C   LIG    1        3.310   9.891   7.804  0.00  0.00    +0.230 A 
ATOM     16  N   LIG    1        3.071   8.624   7.859  0.00  0.00    -0.470 NA
ENDBRANCH  11  12
ENDBRANCH  10  11
ENDBRANCH   8  10
ENDBRANCH   2   4
BRANCH   1  17
ATOM     17  C   LIG    1        2.738   0.751   0.393  0.00  0.00    +0.350 C 
BRANCH  17  23
ATOM     18  C   LIG    1        2.650   2.756  -1.111  0.00  0.00    +0.150 A 
ATOM     19  C   LIG    1        2.025   3.517  -2.088  0.00  0.00    -0.090 A 
ATOM     20  C   LIG    1        0.818   3.102  -2.617  0.00  0.00    +0.050 A 
ATOM     21  C   LIG    1        0.236   1.927  -2.178  0.00  0.00    -0.040 A 
ATOM     22  C   LIG    1        0.855   1.170  -1.200  0.00  0.00    +0.050 A 
ATOM     23  C   LIG    1        2.061   1.580  -0.668  0.00  0.00    -0.150 A 
BRANCH  18  25
ATOM     24  C   LIG    1        4.384   4.382  -1.092  0.00  0.00    +0.230 C 
ATOM     25  O   LIG    1        3.837   3.162  -0.588  0.00  0.00    -0.270 OA
ENDBRANCH  18  25
ENDBRANCH  17  23
ENDBRANCH   1  17
BRANCH   1  26
ATOM     26  C   LIG    1        1.301   0.914   2.478  0.00  0.00    +0.360 C 
BRANCH  26  27
ATOM     27  C   LIG    1        1.276  -0.590   2.573  0.00  0.00    -0.200 A 
ATOM     28  C   LIG    1        1.934  -1.314   3.480  0.00  0.00    +0.020 A 
ATOM     29  C   LIG    1        1.759  -2.683   3.372  0.00  0.00    +0.000 A 
ATOM     30  C   LIG    1        0.960  -3.070   2.377  0.00  0.00    -0.030 A 
ATOM     31  S   LIG    1        0.370  -1.658   1.510  0.00  0.00    +0.110 S 
ENDBRANCH  26  27
ENDBRANCH   1  26
TORSDOF 9
