REMARK  Name = ZINCrH000004uhFs.0
REMARK                            x       y       z     vdW  Elec       q    Type
REMARK                         _______ _______ _______ _____ _____    ______ ____
ROOT
ATOM      1  O   LIG    1       -2.561   2.174   8.138  0.00  0.00    -0.560 OA
ATOM      2  C   LIG    1       -3.135   3.229   7.952  0.00  0.00    +0.700 C 
ATOM      3  N   LIG    1       -3.184   3.760   6.714  0.00  0.00    -0.680 N 
ATOM      4  H   LIG    1       -3.698   4.567   6.552  0.00  0.00    +0.410 HD
ATOM      5  N   LIG    1       -3.721   3.869   8.983  0.00  0.00    -0.740 N 
ATOM      6  H   LIG    1       -4.179   4.711   8.834  0.00  0.00    +0.400 HD
ENDROOT
BRANCH   3   7
ATOM      7  C   LIG    1       -2.497   3.150   5.665  0.00  0.00    +0.190 A 
ATOM      8  C   LIG    1       -1.328   2.440   5.922  0.00  0.00    +0.010 A 
ATOM      9  C   LIG    1       -0.647   1.837   4.889  0.00  0.00    +0.100 A 
ATOM     10  C   LIG    1       -1.130   1.938   3.582  0.00  0.00    -0.160 A 
ATOM     11  C   LIG    1       -2.302   2.656   3.327  0.00  0.00    +0.060 A 
ATOM     12  C   LIG    1       -2.981   3.252   4.365  0.00  0.00    -0.030 A 
BRANCH  10  13
ATOM     13  C   LIG    1       -0.403   1.292   2.472  0.00  0.00    +0.580 C 
ATOM     14  N   LIG    1       -0.765   1.535   1.196  0.00  0.00    -0.620 N 
ATOM     15  C   LIG    1       -1.930   2.325   0.773  0.00  0.00    +0.250 C 
ATOM     16  C   LIG    1       -1.932   2.354  -0.770  0.00  0.00    +0.030 C 
ATOM     17  C   LIG    1       -0.452   2.055  -1.125  0.00  0.00    +0.040 C 
ATOM     18  C   LIG    1       -0.060   1.054  -0.009  0.00  0.00    +0.250 C 
ATOM     19  O   LIG    1        0.524   0.541   2.708  0.00  0.00    -0.540 OA
ENDBRANCH  10  13
ENDBRANCH   3   7
BRANCH   5  20
ATOM     20  C   LIG    1       -3.667   3.292  10.328  0.00  0.00    +0.320 C 
BRANCH  20  21
ATOM     21  C   LIG    1       -4.404   4.209  11.306  0.00  0.00    +0.200 C 
BRANCH  21  22
ATOM     22  O   LIG    1       -5.792   4.250  10.968  0.00  0.00    -0.310 OA
BRANCH  22  23
ATOM     23  C   LIG    1       -6.594   5.025  11.744  0.00  0.00    +0.130 A 
ATOM     24  C   LIG    1       -6.057   5.727  12.813  0.00  0.00    -0.060 A 
ATOM     25  C   LIG    1       -6.874   6.518  13.598  0.00  0.00    +0.070 A 
ATOM     26  C   LIG    1       -8.227   6.603  13.325  0.00  0.00    -0.070 A 
ATOM     27  C   LIG    1       -8.765   5.899  12.262  0.00  0.00    +0.070 A 
ATOM     28 CL   LIG    1       -9.252   7.593  14.317  0.00  0.00    -0.070 Cl
ATOM     29  C   LIG    1       -7.952   5.111  11.472  0.00  0.00    +0.000 A 
ENDBRANCH  22  23
ENDBRANCH  21  22
ENDBRANCH  20  21
ENDBRANCH   5  20
TORSDOF 6
