REMARK  Name = ZINCvU0000000Ejn.0
REMARK                            x       y       z     vdW  Elec       q    Type
REMARK                         _______ _______ _______ _____ _____    ______ ____
ROOT
ATOM      1  S   LIG    1        3.733  -3.647  -0.053  0.00  0.00    +0.080 S 
ENDROOT
BRANCH   1   2
ATOM      2  C   LIG    1        2.855  -2.119  -0.025  0.00  0.00    +0.260 A 
ATOM      3  N   LIG    1        1.550  -2.002  -0.003  0.00  0.00    -0.490 NA
ATOM      4  C   LIG    1        1.210  -0.686   0.014  0.00  0.00    +0.060 A 
ATOM      5  C   LIG    1       -0.014  -0.012   0.039  0.00  0.00    +0.060 A 
ATOM      6  C   LIG    1       -0.036   1.365   0.052  0.00  0.00    +0.010 A 
ATOM      7  C   LIG    1        1.147   2.088   0.039  0.00  0.00    +0.030 A 
ATOM      8  C   LIG    1        2.364   1.437   0.013  0.00  0.00    +0.010 A 
ATOM      9  C   LIG    1        2.405   0.052   0.001  0.00  0.00    +0.060 A 
ATOM     10  N   LIG    1        3.433  -0.879  -0.024  0.00  0.00    -0.430 N 
BRANCH  10  11
ATOM     11  C   LIG    1        4.806  -0.601  -0.043  0.00  0.00    +0.110 A 
ATOM     12  C   LIG    1        5.405   0.025   1.042  0.00  0.00    +0.020 A 
ATOM     13  C   LIG    1        6.759   0.297   1.020  0.00  0.00    +0.040 A 
ATOM     14  C   LIG    1        7.518  -0.054  -0.081  0.00  0.00    +0.020 A 
ATOM     15  C   LIG    1        6.925  -0.678  -1.163  0.00  0.00    -0.070 A 
ATOM     16  C   LIG    1        7.756  -1.059  -2.361  0.00  0.00    +0.100 C 
ATOM     17  C   LIG    1        5.572  -0.957  -1.145  0.00  0.00    +0.030 A 
ENDBRANCH  10  11
ENDBRANCH   1   2
BRANCH   1  18
ATOM     18  C   LIG    1        2.346  -4.808  -0.040  0.00  0.00    +0.020 C 
ATOM     19  C   LIG    1        1.585  -4.679   1.281  0.00  0.00    +0.090 C 
BRANCH  18  22
ATOM     20  N   LIG    1        2.074  -7.178  -0.697  0.00  0.00    -0.670 N 
ATOM     21  H   LIG    1        1.148  -6.981  -0.909  0.00  0.00    +0.420 HD
ATOM     22  C   LIG    1        2.866  -6.215  -0.185  0.00  0.00    +0.540 C 
ATOM     23  O   LIG    1        3.999  -6.481   0.159  0.00  0.00    -0.500 OA
BRANCH  20  28
ATOM     24  C   LIG    1        4.038 -10.272  -0.284  0.00  0.00    -0.150 A 
ATOM     25  C   LIG    1        3.592 -11.009  -1.386  0.00  0.00    +0.060 A 
ATOM     26  C   LIG    1        2.654 -10.469  -2.241  0.00  0.00    +0.030 A 
ATOM     27  C   LIG    1        2.147  -9.204  -2.010  0.00  0.00    +0.020 A 
ATOM     28  C   LIG    1        2.587  -8.460  -0.921  0.00  0.00    +0.130 A 
ATOM     29  C   LIG    1        3.529  -8.991  -0.055  0.00  0.00    +0.090 A 
BRANCH  24  31
ATOM     30  C   LIG    1        5.587 -12.225   0.381  0.00  0.00    +0.070 C 
ATOM     31  C   LIG    1        5.040 -10.843   0.631  0.00  0.00    +0.390 C 
ATOM     32  O   LIG    1        5.425 -10.202   1.585  0.00  0.00    -0.450 OA
ENDBRANCH  24  31
ENDBRANCH  20  28
ENDBRANCH  18  22
ENDBRANCH   1  18
TORSDOF 6
