REMARK  Name = ZINCvU0000000AC9.0
REMARK                            x       y       z     vdW  Elec       q    Type
REMARK                         _______ _______ _______ _____ _____    ______ ____
ROOT
ATOM      1  C   LIG    1       -0.761   1.454   3.743  0.00  0.00    +0.470 C 
ATOM      2  O   LIG    1       -0.249   2.156   4.582  0.00  0.00    -0.490 OA
ENDROOT
BRANCH   1   3
ATOM      3  C   LIG    1        0.011   1.072   2.506  0.00  0.00    +0.290 C 
BRANCH   3   4
ATOM      4  N   LIG    1        1.346   1.674   2.558  0.00  0.00    -0.710 N 
ATOM      5  H   LIG    1        1.496   2.477   3.082  0.00  0.00    +0.410 HD
ATOM      6  C   LIG    1        2.365   1.113   1.879  0.00  0.00    +0.570 C 
ATOM      7  O   LIG    1        2.178   0.107   1.223  0.00  0.00    -0.530 OA
BRANCH   6   8
ATOM      8  C   LIG    1        3.712   1.720   1.932  0.00  0.00    -0.140 A 
ATOM      9  C   LIG    1        3.930   2.879   2.679  0.00  0.00    +0.050 A 
ATOM     10  C   LIG    1        5.190   3.438   2.728  0.00  0.00    +0.000 A 
ATOM     11  C   LIG    1        6.234   2.859   2.029  0.00  0.00    +0.040 A 
ATOM     12  C   LIG    1        6.024   1.714   1.282  0.00  0.00    +0.000 A 
ATOM     13  C   LIG    1        4.770   1.141   1.229  0.00  0.00    +0.080 A 
ENDBRANCH   6   8
ENDBRANCH   3   4
BRANCH   3  14
ATOM     14  C   LIG    1       -0.729   1.579   1.267  0.00  0.00    +0.070 C 
BRANCH  14  15
ATOM     15  C   LIG    1       -0.013   1.086   0.008  0.00  0.00    +0.100 C 
BRANCH  15  17
ATOM     16  C   LIG    1        0.092   1.010  -2.828  0.00  0.00    +0.140 C 
ATOM     17  S   LIG    1       -0.890   1.687  -1.462  0.00  0.00    -0.270 S 
ENDBRANCH  15  17
ENDBRANCH  14  15
ENDBRANCH   3  14
ENDBRANCH   1   3
BRANCH   1  18
ATOM     18  O   LIG    1       -2.017   1.013   3.913  0.00  0.00    -0.340 OA
BRANCH  18  19
ATOM     19  C   LIG    1       -2.700   1.420   5.128  0.00  0.00    +0.290 C 
BRANCH  19  20
ATOM     20  C   LIG    1       -3.687   0.354   5.530  0.00  0.00    -0.090 A 
ATOM     21  C   LIG    1       -4.367  -0.359   4.561  0.00  0.00    +0.060 A 
ATOM     22  C   LIG    1       -5.268  -1.340   4.930  0.00  0.00    +0.030 A 
ATOM     23  C   LIG    1       -5.498  -1.600   6.269  0.00  0.00    -0.030 A 
ATOM     24  C   LIG    1       -4.821  -0.882   7.239  0.00  0.00    +0.030 A 
ATOM     25 CL   LIG    1       -6.635  -2.828   6.733  0.00  0.00    -0.060 Cl
ATOM     26  C   LIG    1       -3.916   0.095   6.869  0.00  0.00    +0.040 A 
ENDBRANCH  19  20
BRANCH  19  27
ATOM     27  C   LIG    1       -3.431   2.715   4.883  0.00  0.00    -0.110 A 
ATOM     28  C   LIG    1       -4.085   2.924   3.684  0.00  0.00    +0.040 A 
ATOM     29  C   LIG    1       -4.760   4.110   3.461  0.00  0.00    +0.010 A 
ATOM     30  C   LIG    1       -4.772   5.091   4.435  0.00  0.00    +0.010 A 
ATOM     31  C   LIG    1       -4.113   4.884   5.633  0.00  0.00    +0.010 A 
ATOM     32  C   LIG    1       -3.443   3.696   5.857  0.00  0.00    +0.020 A 
ENDBRANCH  19  27
ENDBRANCH  18  19
ENDBRANCH   1  18
TORSDOF 10
