REMARK  Name = ZINCvU0000000IUq.0
REMARK                            x       y       z     vdW  Elec       q    Type
REMARK                         _______ _______ _______ _____ _____    ______ ____
ROOT
ATOM      1  C   LIG    1       -6.045  -0.047   1.862  0.00  0.00    +0.280 C 
ATOM      2  N   LIG    1       -6.283  -1.436   1.467  0.00  0.00    -0.540 N 
ATOM      3  C   LIG    1       -7.094  -1.032   0.472  0.00  0.00    +0.490 C 
ATOM      4  O   LIG    1       -7.721  -1.649  -0.362  0.00  0.00    -0.450 OA
ATOM      5  C   LIG    1       -6.961   0.444   0.741  0.00  0.00    +0.260 C 
ATOM      6  F   LIG    1       -6.306   1.158  -0.269  0.00  0.00    -0.140 F 
ATOM      7  F   LIG    1       -8.137   1.059   1.183  0.00  0.00    -0.140 F 
ENDROOT
BRANCH   1  11
ATOM      8  C   LIG    1       -1.976   1.163   1.348  0.00  0.00    +0.120 A 
ATOM      9  C   LIG    1       -2.590   0.365   0.397  0.00  0.00    -0.030 A 
ATOM     10  C   LIG    1       -3.904  -0.029   0.569  0.00  0.00    +0.050 A 
ATOM     11  C   LIG    1       -4.611   0.380   1.683  0.00  0.00    -0.120 A 
ATOM     12  C   LIG    1       -4.006   1.181   2.634  0.00  0.00    +0.000 A 
ATOM     13  C   LIG    1       -2.688   1.575   2.471  0.00  0.00    +0.100 A 
BRANCH   8  15
ATOM     14  C   LIG    1       -0.013   1.086   0.008  0.00  0.00    +0.240 C 
ATOM     15  O   LIG    1       -0.682   1.547   1.184  0.00  0.00    -0.300 OA
ENDBRANCH   8  15
BRANCH  13  16
ATOM     16  O   LIG    1       -2.092   2.362   3.405  0.00  0.00    -0.300 OA
ATOM     17  C   LIG    1       -2.884   2.747   4.531  0.00  0.00    +0.240 C 
ENDBRANCH  13  16
ENDBRANCH   1  11
BRANCH   2  18
ATOM     18  C   LIG    1       -5.844  -2.682   1.935  0.00  0.00    +0.140 A 
ATOM     19  C   LIG    1       -4.976  -2.751   3.017  0.00  0.00    +0.030 A 
ATOM     20  C   LIG    1       -4.548  -3.979   3.481  0.00  0.00    -0.040 A 
ATOM     21  C   LIG    1       -4.977  -5.143   2.860  0.00  0.00    +0.120 A 
ATOM     22  C   LIG    1       -5.840  -5.075   1.776  0.00  0.00    +0.020 A 
ATOM     23  C   LIG    1       -6.273  -3.847   1.315  0.00  0.00    +0.040 A 
BRANCH  21  24
ATOM     24  O   LIG    1       -4.551  -6.352   3.314  0.00  0.00    -0.310 OA
BRANCH  24  25
ATOM     25  C   LIG    1       -3.663  -6.348   4.434  0.00  0.00    +0.240 C 
BRANCH  25  26
ATOM     26  C   LIG    1       -3.301  -7.766   4.793  0.00  0.00    -0.100 A 
ATOM     27  C   LIG    1       -4.069  -8.466   5.705  0.00  0.00    +0.030 A 
ATOM     28  C   LIG    1       -3.739  -9.768   6.030  0.00  0.00    +0.010 A 
ATOM     29  C   LIG    1       -2.637 -10.368   5.451  0.00  0.00    +0.020 A 
ATOM     30  C   LIG    1       -1.866  -9.667   4.543  0.00  0.00    +0.010 A 
ATOM     31  C   LIG    1       -2.198  -8.366   4.214  0.00  0.00    +0.020 A 
ENDBRANCH  25  26
ENDBRANCH  24  25
ENDBRANCH  21  24
ENDBRANCH   2  18
TORSDOF 7
