REMARK  Name = ZINCvU00000009k6.0
REMARK                            x       y       z     vdW  Elec       q    Type
REMARK                         _______ _______ _______ _____ _____    ______ ____
ROOT
ATOM      1  N   LIG    1       -4.807   0.925   0.437  0.00  0.00    -0.680 N 
ATOM      2  H   LIG    1       -4.697   0.046   0.043  0.00  0.00    +0.410 HD
ATOM      3  C   LIG    1       -3.780   1.504   1.092  0.00  0.00    +0.710 C 
ATOM      4  N   LIG    1       -2.572   0.906   1.113  0.00  0.00    -0.680 N 
ATOM      5  H   LIG    1       -2.421   0.100   0.596  0.00  0.00    +0.410 HD
ATOM      6  O   LIG    1       -3.944   2.564   1.663  0.00  0.00    -0.550 OA
ENDROOT
BRANCH   1   9
ATOM      7  C   LIG    1       -8.428   1.540   0.213  0.00  0.00    +0.110 A 
ATOM      8  C   LIG    1       -7.218   0.874   0.319  0.00  0.00    -0.010 A 
ATOM      9  C   LIG    1       -6.031   1.594   0.325  0.00  0.00    +0.170 A 
ATOM     10  C   LIG    1       -6.060   2.978   0.215  0.00  0.00    +0.030 A 
ATOM     11  C   LIG    1       -7.268   3.638   0.104  0.00  0.00    +0.040 A 
ATOM     12  C   LIG    1       -8.451   2.924   0.103  0.00  0.00    -0.090 A 
ATOM     13  C   LIG    1       -9.767   3.648  -0.018  0.00  0.00    +0.100 C 
BRANCH   7  14
ATOM     14  O   LIG    1       -9.592   0.839   0.212  0.00  0.00    -0.250 OA
BRANCH  14  20
ATOM     15  C   LIG    1      -13.279  -1.094  -2.351  0.00  0.00    +0.110 C 
ATOM     16  C   LIG    1      -11.935  -0.419  -2.260  0.00  0.00    -0.010 A 
ATOM     17  C   LIG    1      -11.221  -0.103  -3.407  0.00  0.00    -0.070 A 
ATOM     18  C   LIG    1       -9.991   0.515  -3.289  0.00  0.00    +0.300 A 
ATOM     19  N   LIG    1       -9.495   0.811  -2.103  0.00  0.00    -0.530 NA
ATOM     20  C   LIG    1      -10.143   0.521  -0.987  0.00  0.00    +0.320 A 
ATOM     21  C   LIG    1      -11.384  -0.100  -1.031  0.00  0.00    -0.050 A 
ENDBRANCH  14  20
ENDBRANCH   7  14
ENDBRANCH   1   9
BRANCH   4  22
ATOM     22  C   LIG    1       -1.536   1.450   1.882  0.00  0.00    +0.180 A 
ATOM     23  C   LIG    1       -1.823   2.084   3.083  0.00  0.00    +0.050 A 
ATOM     24  C   LIG    1       -0.801   2.616   3.845  0.00  0.00    +0.080 A 
ATOM     25  C   LIG    1        0.513   2.520   3.409  0.00  0.00    +0.120 A 
ATOM     26  C   LIG    1        0.801   1.890   2.203  0.00  0.00    +0.100 A 
ATOM     27  F   LIG    1        2.079   1.797   1.777  0.00  0.00    -0.130 F 
ATOM     28  C   LIG    1       -0.223   1.359   1.440  0.00  0.00    +0.000 A 
BRANCH  25  29
ATOM     29  N   LIG    1        1.551   3.059   4.184  0.00  0.00    -0.320 N 
ATOM     30  C   LIG    1        2.868   3.036   3.877  0.00  0.00    +0.230 A 
ATOM     31  C   LIG    1        3.535   3.658   4.878  0.00  0.00    -0.100 A 
ATOM     32  C   LIG    1        2.596   4.076   5.827  0.00  0.00    +0.250 A 
ATOM     33  N   LIG    1        1.406   3.723   5.409  0.00  0.00    -0.290 NA
ENDBRANCH  25  29
ENDBRANCH   4  22
TORSDOF 5
