REMARK  Name = ZINCpk00000jU283.0
REMARK                            x       y       z     vdW  Elec       q    Type
REMARK                         _______ _______ _______ _____ _____    ______ ____
ROOT
ATOM      1  N   LIG    1       -2.437  -0.880   8.588  0.00  0.00    -0.440 N 
ATOM      2  C   LIG    1       -2.719  -1.982   9.363  0.00  0.00    +0.220 A 
ATOM      3  N   LIG    1       -1.844  -2.909   9.047  0.00  0.00    -0.220 NA
ATOM      4  N   LIG    1       -1.050  -2.469   8.138  0.00  0.00    -0.310 NA
ATOM      5  C   LIG    1       -1.365  -1.230   7.825  0.00  0.00    +0.370 A 
ENDROOT
BRANCH   5   6
ATOM      6  N   LIG    1       -0.729  -0.434   6.891  0.00  0.00    -0.460 N 
ATOM      7  C   LIG    1        0.658  -0.871   6.683  0.00  0.00    +0.220 C 
ATOM      8  C   LIG    1        1.379   0.138   5.784  0.00  0.00    +0.290 C 
ATOM      9  N   LIG    1        0.591   0.314   4.554  0.00  0.00    -0.620 N 
ATOM     10  C   LIG    1       -0.840   0.625   4.683  0.00  0.00    +0.300 C 
ATOM     11  C   LIG    1        1.168   0.199   3.341  0.00  0.00    +0.530 C 
ATOM     12  O   LIG    1        0.490   0.270   2.338  0.00  0.00    -0.530 OA
ATOM     13  C   LIG    1       -1.475  -0.410   5.625  0.00  0.00    +0.190 C 
BRANCH  11  14
ATOM     14  C   LIG    1        2.655  -0.018   3.231  0.00  0.00    -0.090 C 
ATOM     15  C   LIG    1        3.390   1.096   3.980  0.00  0.00    +0.040 C 
ATOM     16  C   LIG    1        3.020  -1.371   3.845  0.00  0.00    +0.050 C 
ATOM     17  C   LIG    1        3.066   0.001   1.758  0.00  0.00    +0.050 C 
ENDBRANCH  11  14
ENDBRANCH   5   6
BRANCH   2  18
ATOM     18  C   LIG    1       -3.802  -2.100  10.361  0.00  0.00    +0.400 A 
ATOM     19  N   LIG    1       -4.606  -1.065  10.571  0.00  0.00    -0.510 NA
ATOM     20  C   LIG    1       -5.587  -1.141  11.453  0.00  0.00    +0.340 A 
ATOM     21  C   LIG    1       -5.764  -2.315  12.171  0.00  0.00    -0.060 A 
ATOM     22  C   LIG    1       -4.903  -3.376  11.931  0.00  0.00    +0.340 A 
ATOM     23  N   LIG    1       -3.945  -3.238  11.031  0.00  0.00    -0.480 NA
ENDBRANCH   2  18
BRANCH   1  25
ATOM     24  C   LIG    1       -4.399   0.293   7.718  0.00  0.00    +0.050 C 
ATOM     25  C   LIG    1       -3.144   0.404   8.586  0.00  0.00    +0.320 C 
ENDBRANCH   1  25
TORSDOF 4
