REMARK  Name = ZINCrD0000073mpp.0
REMARK                            x       y       z     vdW  Elec       q    Type
REMARK                         _______ _______ _______ _____ _____    ______ ____
ROOT
ATOM      1  C   LIG    1       -1.139   3.500   0.026  0.00  0.00    +0.250 C 
ENDROOT
BRANCH   1   2
ATOM      2  C   LIG    1       -2.539   4.057   0.036  0.00  0.00    +0.520 C 
ATOM      3  N   LIG    1       -2.734   5.391   0.044  0.00  0.00    -0.720 N 
ATOM      4  H   LIG    1       -1.973   5.992   0.044  0.00  0.00    +0.400 HD
ATOM      5  O   LIG    1       -3.491   3.305   0.037  0.00  0.00    -0.510 OA
BRANCH   3   6
ATOM      6  C   LIG    1       -4.096   5.932   0.054  0.00  0.00    +0.190 C 
ATOM      7  C   LIG    1       -4.842   5.457  -1.195  0.00  0.00    +0.030 C 
ATOM      8  C   LIG    1       -6.263   6.023  -1.185  0.00  0.00    -0.010 C 
ATOM      9  C   LIG    1       -6.998   5.535   0.065  0.00  0.00    +0.020 C 
ATOM     10  C   LIG    1       -6.252   6.009   1.314  0.00  0.00    -0.010 C 
ATOM     11  C   LIG    1       -6.192   7.538   1.322  0.00  0.00    +0.020 C 
ATOM     12  C   LIG    1       -5.458   8.027   0.072  0.00  0.00    +0.000 C 
ATOM     13  C   LIG    1       -6.204   7.552  -1.177  0.00  0.00    +0.020 C 
ATOM     14  C   LIG    1       -4.830   5.444   1.304  0.00  0.00    +0.030 C 
ATOM     15  C   LIG    1       -4.036   7.461   0.062  0.00  0.00    +0.030 C 
ENDBRANCH   3   6
ENDBRANCH   1   2
BRANCH   1  16
ATOM     16  O   LIG    1       -1.195   2.072   0.019  0.00  0.00    -0.330 OA
BRANCH  16  17
ATOM     17  C   LIG    1       -0.017   1.414   0.010  0.00  0.00    +0.510 C 
ATOM     18  O   LIG    1        1.028   2.036   0.003  0.00  0.00    -0.520 OA
BRANCH  17  20
ATOM     19  C   LIG    1        1.181  -0.663  -0.013  0.00  0.00    +0.170 C 
ATOM     20  C   LIG    1        0.002  -0.004   0.002  0.00  0.00    -0.080 C 
BRANCH  19  24
ATOM     21  C   LIG    1        1.238  -4.904  -0.035  0.00  0.00    +0.150 A 
ATOM     22  C   LIG    1        2.434  -4.195  -0.043  0.00  0.00    -0.020 A 
ATOM     23  C   LIG    1        2.421  -2.819  -0.036  0.00  0.00    +0.100 A 
ATOM     24  C   LIG    1        1.201  -2.133  -0.021  0.00  0.00    -0.130 A 
ATOM     25  C   LIG    1       -0.000  -2.852  -0.007  0.00  0.00    +0.090 A 
ATOM     26  C   LIG    1        0.024  -4.228  -0.020  0.00  0.00    -0.080 A 
BRANCH  21  28
ATOM     27  C   LIG    1       -0.007  -6.928  -0.032  0.00  0.00    +0.240 C 
ATOM     28  O   LIG    1        1.257  -6.261  -0.041  0.00  0.00    -0.310 OA
ENDBRANCH  21  28
ENDBRANCH  19  24
ENDBRANCH  17  20
ENDBRANCH  16  17
ENDBRANCH   1  16
TORSDOF 7
