REMARK  Name = ZINCpk00000e9QuP.0
REMARK                            x       y       z     vdW  Elec       q    Type
REMARK                         _______ _______ _______ _____ _____    ______ ____
ROOT
ATOM      1  N   LIG    1        2.045  -0.762   0.864  0.00  0.00    -0.610 N 
ATOM      2  C   LIG    1        2.761   0.376   0.961  0.00  0.00    +0.530 C 
ATOM      3  O   LIG    1        3.603   0.490   1.827  0.00  0.00    -0.520 OA
ENDROOT
BRANCH   2   4
ATOM      4  C   LIG    1        2.516   1.506  -0.005  0.00  0.00    +0.080 C 
ATOM      5  C   LIG    1        3.772   2.380  -0.110  0.00  0.00    +0.050 C 
ATOM      6  C   LIG    1        3.450   3.654  -0.894  0.00  0.00    +0.040 C 
ATOM      7  C   LIG    1        2.570   4.578  -0.044  0.00  0.00    +0.130 C 
ATOM      8  C   LIG    1        1.407   3.771   0.480  0.00  0.00    +0.090 A 
ATOM      9  N   LIG    1        0.286   4.203   0.980  0.00  0.00    -0.290 NA
ATOM     10  N   LIG    1       -0.496   3.090   1.324  0.00  0.00    -0.380 N 
ATOM     11  C   LIG    1        0.206   1.976   1.020  0.00  0.00    +0.240 A 
ATOM     12  C   LIG    1       -1.837   3.129   1.913  0.00  0.00    +0.350 C 
ATOM     13  C   LIG    1        1.382   2.366   0.495  0.00  0.00    -0.230 A 
ENDBRANCH   2   4
BRANCH   1  14
ATOM     14  C   LIG    1        2.197  -1.812   1.874  0.00  0.00    +0.300 C 
BRANCH  14  20
ATOM     15  C   LIG    1        0.531  -3.463   6.200  0.00  0.00    +0.190 C 
ATOM     16  N   LIG    1        0.447  -2.404   5.186  0.00  0.00    -0.540 NA
ATOM     17  C   LIG    1        0.725  -1.086   5.777  0.00  0.00    +0.150 C 
ATOM     18  C   LIG    1        0.569  -0.008   4.701  0.00  0.00    +0.220 C 
ATOM     19  O   LIG    1        1.439  -0.305   3.606  0.00  0.00    -0.360 OA
ATOM     20  C   LIG    1        1.196  -1.580   3.007  0.00  0.00    +0.140 C 
ATOM     21  C   LIG    1        1.358  -2.675   4.065  0.00  0.00    +0.160 C 
ENDBRANCH  14  20
ENDBRANCH   1  14
BRANCH   1  22
ATOM     22  C   LIG    1        1.113  -0.948  -0.251  0.00  0.00    +0.300 C 
BRANCH  22  23
ATOM     23  C   LIG    1        1.809  -1.720  -1.374  0.00  0.00    -0.070 C 
ATOM     24  C   LIG    1        2.006  -1.002  -2.710  0.00  0.00    +0.020 C 
ATOM     25  C   LIG    1        0.966  -2.118  -2.586  0.00  0.00    +0.030 C 
ENDBRANCH  22  23
ENDBRANCH   1  22
TORSDOF 5
