REMARK  Name = ZINCkj000005lmVH.0
REMARK                            x       y       z     vdW  Elec       q    Type
REMARK                         _______ _______ _______ _____ _____    ______ ____
ROOT
ATOM      1  C   LIG    1       -5.407  -0.461  -4.129  0.00  0.00    +0.130 C 
ATOM      2  C   LIG    1       -4.997   0.903  -3.550  0.00  0.00    +0.310 C 
ATOM      3  N   LIG    1       -4.112   0.665  -2.399  0.00  0.00    -0.640 N 
ATOM      4  C   LIG    1       -4.564  -0.276  -1.361  0.00  0.00    +0.260 C 
ATOM      5  C   LIG    1       -4.998  -1.578  -2.045  0.00  0.00    +0.240 C 
ATOM      6  C   LIG    1       -2.924   1.294  -2.296  0.00  0.00    +0.710 C 
ATOM      7  N   LIG    1       -2.088   0.991  -1.283  0.00  0.00    -0.740 N 
ATOM      8  H   LIG    1       -2.369   0.376  -0.589  0.00  0.00    +0.400 HD
ATOM      9  O   LIG    1       -2.608   2.134  -3.115  0.00  0.00    -0.580 OA
ATOM     10  O   LIG    1       -5.936  -1.276  -3.080  0.00  0.00    -0.390 OA
ENDROOT
BRANCH   1  11
ATOM     11  C   LIG    1       -6.475  -0.257  -5.206  0.00  0.00    +0.310 C 
BRANCH  11  12
ATOM     12  N   LIG    1       -6.874  -1.560  -5.753  0.00  0.00    -0.630 N 
ATOM     13  H   LIG    1       -7.579  -1.426  -6.463  0.00  0.00    +0.440 HD
ATOM     14  H   LIG    1       -7.248  -2.136  -5.013  0.00  0.00    +0.440 HD
ATOM     15  H   LIG    1       -6.070  -2.015  -6.159  0.00  0.00    +0.440 HD
ENDBRANCH  11  12
ENDBRANCH   1  11
BRANCH   7  16
ATOM     16  C   LIG    1       -0.752   1.591  -1.232  0.00  0.00    +0.280 C 
BRANCH  16  17
ATOM     17  C   LIG    1       -0.012   1.085   0.008  0.00  0.00    -0.010 C 
ATOM     18  C   LIG    1       -0.727   1.581   1.266  0.00  0.00    +0.020 C 
ATOM     19  C   LIG    1       -0.037   1.018   2.510  0.00  0.00    +0.010 C 
ATOM     20  C   LIG    1        1.399   1.544   2.578  0.00  0.00    +0.060 C 
ATOM     21  C   LIG    1        2.127   1.171   1.283  0.00  0.00    -0.120 C 
ATOM     22  C   LIG    1        3.655   1.175   1.298  0.00  0.00    +0.020 C 
ATOM     23  C   LIG    1        2.893  -0.151   1.255  0.00  0.00    +0.010 C 
ATOM     24  C   LIG    1        1.425   1.614  -0.004  0.00  0.00    +0.070 C 
ENDBRANCH  16  17
ENDBRANCH   7  16
TORSDOF 4
