REMARK  Name = ZINCqH0000001Ht0.0
REMARK                            x       y       z     vdW  Elec       q    Type
REMARK                         _______ _______ _______ _____ _____    ______ ____
ROOT
ATOM      1  C   LIG    1        3.541   4.102  -1.073  0.00  0.00    +0.490 C 
ATOM      2  O   LIG    1        2.975   3.707  -2.065  0.00  0.00    -0.490 OA
ENDROOT
BRANCH   1   3
ATOM      3  O   LIG    1        2.998   3.896   0.137  0.00  0.00    -0.340 OA
BRANCH   3  10
ATOM      4  C   LIG    1        0.921   3.664   1.388  0.00  0.00    +0.000 C 
ATOM      5  C   LIG    1       -0.415   2.921   1.432  0.00  0.00    +0.030 C 
ATOM      6  C   LIG    1       -0.159   1.417   1.547  0.00  0.00    +0.020 C 
ATOM      7  C   LIG    1        0.649   0.943   0.338  0.00  0.00    -0.010 C 
ATOM      8  C   LIG    1        1.986   1.687   0.294  0.00  0.00    +0.010 C 
ATOM      9  C   LIG    1       -0.136   1.230  -0.944  0.00  0.00    +0.020 C 
ATOM     10  C   LIG    1        1.729   3.191   0.178  0.00  0.00    +0.190 C 
BRANCH   4  12
ATOM     11  C   LIG    1       -0.209   5.444   0.048  0.00  0.00    +0.010 C 
ATOM     12  C   LIG    1        0.665   5.168   1.273  0.00  0.00    -0.010 C 
ATOM     13  C   LIG    1       -0.051   5.662   2.532  0.00  0.00    +0.030 C 
ENDBRANCH   4  12
ENDBRANCH   3  10
ENDBRANCH   1   3
BRANCH   1  14
ATOM     14  C   LIG    1        4.856   4.827  -1.194  0.00  0.00    +0.150 C 
BRANCH  14  15
ATOM     15  S   LIG    1        5.321   4.947  -2.940  0.00  0.00    +0.130 S 
BRANCH  15  16
ATOM     16  C   LIG    1        6.848   5.812  -2.792  0.00  0.00    +0.200 A 
ATOM     17  N   LIG    1        7.410   6.222  -1.675  0.00  0.00    -0.330 NA
ATOM     18  N   LIG    1        8.521   6.816  -1.922  0.00  0.00    -0.020 NA
ATOM     19  N   LIG    1        8.746   6.840  -3.191  0.00  0.00    -0.070 NA
ATOM     20  N   LIG    1        7.665   6.187  -3.808  0.00  0.00    -0.310 N 
BRANCH  20  21
ATOM     21  C   LIG    1        7.473   5.969  -5.180  0.00  0.00    +0.120 A 
ATOM     22  C   LIG    1        6.869   4.799  -5.620  0.00  0.00    +0.030 A 
ATOM     23  C   LIG    1        6.676   4.589  -6.972  0.00  0.00    +0.050 A 
ATOM     24  C   LIG    1        7.093   5.538  -7.887  0.00  0.00    +0.040 A 
ATOM     25  C   LIG    1        7.700   6.702  -7.452  0.00  0.00    +0.040 A 
ATOM     26  C   LIG    1        7.891   6.920  -6.101  0.00  0.00    +0.050 A 
ENDBRANCH  20  21
ENDBRANCH  15  16
ENDBRANCH  14  15
ENDBRANCH   1  14
TORSDOF 7
