REMARK  Name = ZINCrD000000D6pH.0
REMARK                            x       y       z     vdW  Elec       q    Type
REMARK                         _______ _______ _______ _____ _____    ______ ____
ROOT
ATOM      1  C   LIG    1       -2.830  -5.653  -0.001  0.00  0.00    -0.660 A 
ATOM      2  C   LIG    1       -1.448  -5.701  -0.015  0.00  0.00    +0.130 A 
ATOM      3  C   LIG    1       -0.714  -4.533  -0.015  0.00  0.00    +0.050 A 
ATOM      4  C   LIG    1       -1.369  -3.301  -0.003  0.00  0.00    +0.020 A 
ATOM      5  C   LIG    1       -2.764  -3.259   0.017  0.00  0.00    +0.070 A 
ATOM      6  C   LIG    1       -3.486  -4.435   0.011  0.00  0.00    +0.130 A 
ENDROOT
BRANCH   4   7
ATOM      7  C   LIG    1       -0.589  -2.045  -0.003  0.00  0.00    +0.220 A 
ATOM      8  N   LIG    1       -1.074  -0.818   0.008  0.00  0.00    -0.450 NA
ATOM      9  C   LIG    1        0.002  -0.004   0.002  0.00  0.00    +0.210 A 
ATOM     10  N   LIG    1        1.066  -0.764  -0.018  0.00  0.00    -0.360 NA
ATOM     11  O   LIG    1        0.749  -1.935  -0.015  0.00  0.00    +0.100 OA
BRANCH   9  12
ATOM     12  C   LIG    1       -0.018   1.481   0.010  0.00  0.00    +0.020 A 
ATOM     13  C   LIG    1       -1.226   2.182   0.020  0.00  0.00    +0.020 A 
ATOM     14  C   LIG    1       -1.200   3.562   0.033  0.00  0.00    +0.270 A 
ATOM     15  N   LIG    1       -0.055   4.217   0.025  0.00  0.00    -0.470 NA
ATOM     16  C   LIG    1        1.107   3.594   0.011  0.00  0.00    +0.270 A 
ATOM     17  C   LIG    1        1.171   2.215   0.003  0.00  0.00    +0.000 A 
ENDBRANCH   9  12
ENDBRANCH   4   7
BRANCH   1  19
ATOM     18  O   LIG    1       -5.039  -6.828  -0.532  0.00  0.00    -0.950 OA
ATOM     19  S   LIG    1       -3.760  -7.150  -0.001  0.00  0.00    +2.680 S 
ATOM     20  O   LIG    1       -2.916  -8.147  -0.559  0.00  0.00    -0.940 OA
BRANCH  19  21
ATOM     21  N   LIG    1       -4.004  -7.575   1.581  0.00  0.00    -0.990 NA
ATOM     22  C   LIG    1       -3.031  -8.428   2.227  0.00  0.00    +0.280 C 
ATOM     23  C   LIG    1       -3.407  -9.909   2.014  0.00  0.00    +0.010 C 
ATOM     24  C   LIG    1       -4.597 -10.252   2.808  0.00  0.00    +0.000 C 
ATOM     25  C   LIG    1       -5.855  -9.482   2.419  0.00  0.00    +0.010 C 
ATOM     26  C   LIG    1       -5.873  -8.156   3.140  0.00  0.00    +0.020 C 
ATOM     27  C   LIG    1       -5.208  -7.073   2.271  0.00  0.00    +0.280 C 
ENDBRANCH  19  21
ENDBRANCH   1  19
TORSDOF 4
