REMARK  Name = ZINCrg00000SjSw1.0
REMARK                            x       y       z     vdW  Elec       q    Type
REMARK                         _______ _______ _______ _____ _____    ______ ____
ROOT
ATOM      1  N   LIG    1       -0.171  -5.063   1.090  0.00  0.00    -0.610 N 
ATOM      2  C   LIG    1       -0.036  -4.710   2.384  0.00  0.00    +0.710 C 
ATOM      3  N   LIG    1       -0.690  -5.397   3.341  0.00  0.00    -0.650 N 
ATOM      4  H   LIG    1       -1.257  -6.146   3.100  0.00  0.00    +0.410 HD
ATOM      5  O   LIG    1        0.674  -3.771   2.687  0.00  0.00    -0.560 OA
ENDROOT
BRANCH   1   6
ATOM      6  C   LIG    1        0.540  -4.316   0.049  0.00  0.00    +0.270 C 
ATOM      7  C   LIG    1        2.060  -4.304   0.330  0.00  0.00    +0.070 C 
ATOM      8  C   LIG    1        2.456  -2.888  -0.148  0.00  0.00    +0.270 C 
ATOM      9  N   LIG    1        1.237  -2.079  -0.020  0.00  0.00    -0.550 N 
ATOM     10  C   LIG    1        0.145  -2.856   0.083  0.00  0.00    +0.520 C 
ATOM     11  O   LIG    1       -0.992  -2.446   0.187  0.00  0.00    -0.500 OA
BRANCH   9  12
ATOM     12  C   LIG    1        1.215  -0.680  -0.013  0.00  0.00    +0.170 A 
ATOM     13  C   LIG    1        0.002  -0.004  -0.013  0.00  0.00    -0.010 A 
ATOM     14  C   LIG    1       -0.017   1.377  -0.006  0.00  0.00    +0.040 A 
ATOM     15  C   LIG    1        1.171   2.086   0.002  0.00  0.00    -0.030 A 
ATOM     16  C   LIG    1        2.380   1.415   0.002  0.00  0.00    +0.040 A 
ATOM     17  C   LIG    1        2.405   0.035  -0.005  0.00  0.00    -0.040 A 
ENDBRANCH   9  12
ENDBRANCH   1   6
BRANCH   3  18
ATOM     18  C   LIG    1       -0.550  -5.028   4.693  0.00  0.00    +0.030 A 
ATOM     19  C   LIG    1       -1.147  -5.630   5.753  0.00  0.00    +0.190 A 
ATOM     20  N   LIG    1       -0.752  -4.973   6.874  0.00  0.00    -0.370 N 
ATOM     21  N   LIG    1        0.111  -3.941   6.486  0.00  0.00    -0.250 NA
ATOM     22  C   LIG    1        0.237  -3.976   5.185  0.00  0.00    +0.260 A 
BRANCH  20  23
ATOM     23  C   LIG    1       -1.158  -5.289   8.246  0.00  0.00    +0.370 C 
BRANCH  23  24
ATOM     24  C   LIG    1        0.068  -5.503   9.096  0.00  0.00    +0.500 C 
ATOM     25  O   LIG    1        1.172  -5.402   8.604  0.00  0.00    -0.510 OA
ATOM     26  N   LIG    1       -0.062  -5.806  10.402  0.00  0.00    -0.850 N 
ATOM     27  H   LIG    1        0.727  -5.944  10.949  0.00  0.00    +0.410 HD
ATOM     28  H   LIG    1       -0.945  -5.887  10.796  0.00  0.00    +0.400 HD
ENDBRANCH  23  24
ENDBRANCH  20  23
ENDBRANCH   3  18
BRANCH   1  30
ATOM     29  C   LIG    1       -0.199  -7.481   0.725  0.00  0.00    +0.010 C 
ATOM     30  C   LIG    1       -1.027  -6.194   0.725  0.00  0.00    +0.270 C 
ENDBRANCH   1  30
TORSDOF 6
