REMARK  Name = ZINCqH0000004yIm.0
REMARK                            x       y       z     vdW  Elec       q    Type
REMARK                         _______ _______ _______ _____ _____    ______ ____
ROOT
ATOM      1  C   LIG    1        1.960   0.209  -0.280  0.00  0.00    +0.090 A 
ATOM      2  N   LIG    1        1.450   1.244  -0.898  0.00  0.00    -0.240 NA
ATOM      3  N   LIG    1        0.216   1.550  -0.311  0.00  0.00    -0.320 N 
ATOM      4  C   LIG    1        0.000   0.649   0.695  0.00  0.00    +0.130 A 
ATOM      5  C   LIG    1        1.077  -0.191   0.725  0.00  0.00    -0.060 A 
ENDROOT
BRANCH   3   6
ATOM      6  C   LIG    1       -0.640   2.582  -0.688  0.00  0.00    +0.480 A 
ATOM      7  C   LIG    1       -0.162   3.892  -0.841  0.00  0.00    -0.040 A 
ATOM      8  N   LIG    1        1.047   4.487  -0.704  0.00  0.00    -0.450 NA
ATOM      9  C   LIG    1        0.939   5.756  -0.972  0.00  0.00    +0.530 A 
ATOM     10  N   LIG    1       -0.350   6.056  -1.298  0.00  0.00    -0.580 N 
ATOM     11  H   LIG    1       -0.693   6.931  -1.538  0.00  0.00    +0.440 HD
ATOM     12  C   LIG    1       -1.074   4.892  -1.224  0.00  0.00    +0.290 A 
ATOM     13  N   LIG    1       -2.345   4.564  -1.425  0.00  0.00    -0.510 NA
ATOM     14  C   LIG    1       -2.748   3.320  -1.269  0.00  0.00    +0.560 A 
ATOM     15  N   LIG    1       -1.927   2.348  -0.916  0.00  0.00    -0.520 NA
ENDBRANCH   3   6
BRANCH   4  16
ATOM     16  C   LIG    1       -1.180   0.595   1.585  0.00  0.00    +0.010 A 
ATOM     17  C   LIG    1       -1.967   1.731   1.776  0.00  0.00    +0.030 A 
ATOM     18  C   LIG    1       -3.070   1.672   2.603  0.00  0.00    +0.080 A 
ATOM     19  C   LIG    1       -3.389   0.492   3.251  0.00  0.00    -0.170 A 
ATOM     20  C   LIG    1       -2.610  -0.636   3.070  0.00  0.00    +0.070 A 
ATOM     21  C   LIG    1       -1.508  -0.592   2.241  0.00  0.00    +0.060 A 
BRANCH  19  22
ATOM     22  C   LIG    1       -4.592   0.437   4.158  0.00  0.00    +0.510 C 
ATOM     23  F   LIG    1       -5.122  -0.858   4.150  0.00  0.00    -0.170 F 
ATOM     24  F   LIG    1       -5.559   1.340   3.705  0.00  0.00    -0.180 F 
ATOM     25  F   LIG    1       -4.210   0.776   5.460  0.00  0.00    -0.170 F 
ENDBRANCH  19  22
ENDBRANCH   4  16
BRANCH   1  27
ATOM     26  C   LIG    1        3.308  -0.838  -2.079  0.00  0.00    +0.030 C 
ATOM     27  C   LIG    1        3.280  -0.444  -0.601  0.00  0.00    +0.140 C 
ENDBRANCH   1  27
TORSDOF 4
