REMARK  Name = ZINCqH0000004yIm.2
REMARK                            x       y       z     vdW  Elec       q    Type
REMARK                         _______ _______ _______ _____ _____    ______ ____
ROOT
ATOM      1  C   LIG    1        5.242  -2.296  -0.018  0.00  0.00    +0.100 A 
ATOM      2  N   LIG    1        5.881  -1.154   0.003  0.00  0.00    -0.220 NA
ATOM      3  N   LIG    1        4.941  -0.117  -0.044  0.00  0.00    -0.320 N 
ATOM      4  C   LIG    1        3.697  -0.685  -0.095  0.00  0.00    +0.120 A 
ATOM      5  C   LIG    1        3.869  -2.039  -0.073  0.00  0.00    -0.040 A 
ENDROOT
BRANCH   3   6
ATOM      6  C   LIG    1        5.220   1.241  -0.040  0.00  0.00    +0.520 A 
ATOM      7  C   LIG    1        6.542   1.694  -0.156  0.00  0.00    -0.060 A 
ATOM      8  N   LIG    1        7.744   1.108  -0.284  0.00  0.00    -0.480 NA
ATOM      9  C   LIG    1        8.657   2.053  -0.349  0.00  0.00    +0.440 A 
ATOM     10  N   LIG    1        8.086   3.250  -0.268  0.00  0.00    -0.540 NA
ATOM     11  C   LIG    1        6.778   3.090  -0.146  0.00  0.00    +0.230 A 
ATOM     12  N   LIG    1        5.700   3.933  -0.025  0.00  0.00    -0.520 N 
ATOM     13  H   LIG    1        5.832   4.894  -0.016  0.00  0.00    +0.430 HD
ATOM     14  C   LIG    1        4.463   3.421   0.081  0.00  0.00    +0.630 A 
ATOM     15  N   LIG    1        4.234   2.133   0.068  0.00  0.00    -0.540 NA
ENDBRANCH   3   6
BRANCH   4  16
ATOM     16  C   LIG    1        2.405   0.034  -0.155  0.00  0.00    -0.010 A 
ATOM     17  C   LIG    1        1.302  -0.448   0.550  0.00  0.00    +0.060 A 
ATOM     18  C   LIG    1        0.101   0.227   0.490  0.00  0.00    +0.060 A 
ATOM     19  C   LIG    1       -0.012   1.380  -0.267  0.00  0.00    -0.170 A 
ATOM     20  C   LIG    1        1.079   1.863  -0.968  0.00  0.00    +0.060 A 
ATOM     21  C   LIG    1        2.286   1.196  -0.917  0.00  0.00    +0.080 A 
BRANCH  19  22
ATOM     22  C   LIG    1       -1.329   2.109  -0.332  0.00  0.00    +0.510 C 
ATOM     23  F   LIG    1       -2.377   1.194  -0.184  0.00  0.00    -0.180 F 
ATOM     24  F   LIG    1       -1.444   2.754  -1.569  0.00  0.00    -0.180 F 
ATOM     25  F   LIG    1       -1.389   3.057   0.695  0.00  0.00    -0.180 F 
ENDBRANCH  19  22
ENDBRANCH   4  16
BRANCH   1  27
ATOM     26  C   LIG    1        6.896  -3.779  -1.119  0.00  0.00    +0.050 C 
ATOM     27  C   LIG    1        5.880  -3.660   0.018  0.00  0.00    +0.130 C 
ENDBRANCH   1  27
TORSDOF 4
