REMARK  Name = ZINCqH0000004yIm.1
REMARK                            x       y       z     vdW  Elec       q    Type
REMARK                         _______ _______ _______ _____ _____    ______ ____
ROOT
ATOM      1  C   LIG    1        4.923  -2.232  -0.656  0.00  0.00    +0.100 A 
ATOM      2  N   LIG    1        5.399  -1.057  -0.982  0.00  0.00    -0.270 NA
ATOM      3  N   LIG    1        4.939  -0.117  -0.051  0.00  0.00    -0.340 N 
ATOM      4  C   LIG    1        4.168  -0.780   0.863  0.00  0.00    +0.140 A 
ATOM      5  C   LIG    1        4.147  -2.096   0.496  0.00  0.00    -0.070 A 
ENDROOT
BRANCH   3   6
ATOM      6  C   LIG    1        5.220   1.248  -0.053  0.00  0.00    +0.450 A 
ATOM      7  C   LIG    1        6.531   1.706  -0.167  0.00  0.00    -0.060 A 
ATOM      8  N   LIG    1        7.768   1.112  -0.304  0.00  0.00    -0.570 N 
ATOM      9  H   LIG    1        7.948   0.160  -0.339  0.00  0.00    +0.440 HD
ATOM     10  C   LIG    1        8.682   2.106  -0.375  0.00  0.00    +0.560 A 
ATOM     11  N   LIG    1        8.092   3.266  -0.296  0.00  0.00    -0.480 NA
ATOM     12  C   LIG    1        6.763   3.094  -0.170  0.00  0.00    +0.310 A 
ATOM     13  N   LIG    1        5.719   3.917  -0.053  0.00  0.00    -0.470 NA
ATOM     14  C   LIG    1        4.499   3.438   0.057  0.00  0.00    +0.540 A 
ATOM     15  N   LIG    1        4.242   2.143   0.058  0.00  0.00    -0.510 NA
ENDBRANCH   3   6
BRANCH   4  16
ATOM     16  C   LIG    1        3.479  -0.183   2.028  0.00  0.00    -0.000 A 
ATOM     17  C   LIG    1        2.383  -0.829   2.600  0.00  0.00    +0.050 A 
ATOM     18  C   LIG    1        1.745  -0.267   3.687  0.00  0.00    +0.080 A 
ATOM     19  C   LIG    1        2.191   0.934   4.209  0.00  0.00    -0.170 A 
ATOM     20  C   LIG    1        3.278   1.579   3.647  0.00  0.00    +0.080 A 
ATOM     21  C   LIG    1        3.924   1.028   2.560  0.00  0.00    +0.030 A 
BRANCH  19  22
ATOM     22  C   LIG    1        1.486   1.545   5.393  0.00  0.00    +0.510 C 
ATOM     23  F   LIG    1        0.135   1.184   5.368  0.00  0.00    -0.170 F 
ATOM     24  F   LIG    1        1.597   2.939   5.333  0.00  0.00    -0.170 F 
ATOM     25  F   LIG    1        2.071   1.081   6.575  0.00  0.00    -0.170 F 
ENDBRANCH  19  22
ENDBRANCH   4  16
BRANCH   1  27
ATOM     26  C   LIG    1        4.771  -3.345  -2.866  0.00  0.00    +0.040 C 
ATOM     27  C   LIG    1        5.173  -3.519  -1.400  0.00  0.00    +0.130 C 
ENDBRANCH   1  27
TORSDOF 4
