REMARK  Name = ZINCrH000004v1kg.0
REMARK                            x       y       z     vdW  Elec       q    Type
REMARK                         _______ _______ _______ _____ _____    ______ ____
ROOT
ATOM      1  C   LIG    1        1.153   3.176   0.002  0.00  0.00    -0.080 A 
ATOM      2  C   LIG    1        1.173   1.780  -0.004  0.00  0.00    +0.080 A 
ATOM      3  C   LIG    1       -0.013   1.076  -0.004  0.00  0.00    +0.130 A 
ATOM      4  C   LIG    1       -1.222   1.750  -0.004  0.00  0.00    -0.650 A 
ATOM      5  C   LIG    1       -1.249   3.134   0.007  0.00  0.00    +0.120 A 
ATOM      6  C   LIG    1       -0.070   3.850   0.007  0.00  0.00    +0.030 A 
ENDROOT
BRANCH   1   8
ATOM      7  O   LIG    1        3.483   3.348  -0.004  0.00  0.00    -0.500 OA
ATOM      8  C   LIG    1        2.420   3.937   0.002  0.00  0.00    +0.560 C 
ATOM      9  N   LIG    1        2.396   5.285   0.007  0.00  0.00    -0.660 N 
ATOM     10  H   LIG    1        1.550   5.755  -0.057  0.00  0.00    +0.420 HD
BRANCH   9  11
ATOM     11  C   LIG    1        3.591   6.005   0.105  0.00  0.00    +0.170 A 
ATOM     12  C   LIG    1        3.626   7.205   0.802  0.00  0.00    +0.020 A 
ATOM     13  C   LIG    1        4.809   7.912   0.902  0.00  0.00    -0.000 A 
ATOM     14  C   LIG    1        5.957   7.429   0.297  0.00  0.00    +0.040 A 
ATOM     15  C   LIG    1        5.925   6.237  -0.403  0.00  0.00    -0.000 A 
ATOM     16 CL   LIG    1        7.367   5.635  -1.160  0.00  0.00    -0.050 Cl
ATOM     17 CL   LIG    1        4.855   9.408   1.780  0.00  0.00    -0.050 Cl
ATOM     18  C   LIG    1        4.745   5.523  -0.501  0.00  0.00    +0.050 A 
ENDBRANCH   9  11
ENDBRANCH   1   8
BRANCH   4  19
ATOM     19  S   LIG    1       -2.732   0.843  -0.012  0.00  0.00    +2.700 S 
ATOM     20  O   LIG    1       -2.431  -0.433  -0.561  0.00  0.00    -0.950 OA
ATOM     21  O   LIG    1       -3.718   1.710  -0.555  0.00  0.00    -0.950 OA
BRANCH  19  22
ATOM     22  N   LIG    1       -3.156   0.584   1.568  0.00  0.00    -1.110 NA
ATOM     23  H   LIG    1       -3.179  -0.319   1.922  0.00  0.00    +0.430 HD
BRANCH  22  24
ATOM     24  C   LIG    1       -3.497   1.718   2.430  0.00  0.00    +0.300 C 
BRANCH  24  25
ATOM     25  C   LIG    1       -4.199   1.208   3.690  0.00  0.00    +0.150 C 
ATOM     26  C   LIG    1       -4.645   2.394   4.575  0.00  0.00    +0.010 C 
ATOM     27  C   LIG    1       -4.414   1.893   6.018  0.00  0.00    +0.000 C 
ATOM     28  C   LIG    1       -3.856   0.464   5.835  0.00  0.00    +0.190 C 
ATOM     29  O   LIG    1       -3.276   0.459   4.511  0.00  0.00    -0.370 OA
ENDBRANCH  24  25
ENDBRANCH  22  24
ENDBRANCH  19  22
ENDBRANCH   4  19
TORSDOF 6
