REMARK  Name = ZINCtV00000L6jBj.0
REMARK                            x       y       z     vdW  Elec       q    Type
REMARK                         _______ _______ _______ _____ _____    ______ ____
ROOT
ATOM      1  N   LIG    1        0.251   0.111   0.040  0.00  0.00    -0.470 N 
ATOM      2  C   LIG    1       -0.053   1.423   0.073  0.00  0.00    +0.540 C 
ATOM      3  O   LIG    1       -1.194   1.776   0.283  0.00  0.00    -0.440 OA
ENDROOT
BRANCH   1   8
ATOM      4  C   LIG    1       -4.125  -1.424   1.504  0.00  0.00    +0.160 C 
ATOM      5  C   LIG    1       -2.710  -1.590   1.012  0.00  0.00    +0.100 A 
ATOM      6  C   LIG    1       -2.160  -2.785   0.788  0.00  0.00    -0.100 A 
ATOM      7  S   LIG    1       -0.512  -2.529   0.220  0.00  0.00    +0.140 S 
ATOM      8  C   LIG    1       -0.720  -0.837   0.348  0.00  0.00    +0.270 A 
ATOM      9  N   LIG    1       -1.915  -0.565   0.768  0.00  0.00    -0.470 NA
ENDBRANCH   1   8
BRANCH   1  10
ATOM     10  C   LIG    1        1.545  -0.300  -0.305  0.00  0.00    +0.100 A 
ATOM     11  C   LIG    1        1.772  -0.942  -1.516  0.00  0.00    +0.030 A 
ATOM     12  C   LIG    1        3.050  -1.340  -1.855  0.00  0.00    +0.040 A 
ATOM     13  C   LIG    1        4.102  -1.110  -0.987  0.00  0.00    +0.030 A 
ATOM     14  C   LIG    1        3.878  -0.476   0.221  0.00  0.00    +0.040 A 
ATOM     15  C   LIG    1        2.603  -0.070   0.564  0.00  0.00    +0.010 A 
ENDBRANCH   1  10
BRANCH   2  16
ATOM     16  C   LIG    1        1.023   2.452  -0.157  0.00  0.00    +0.050 C 
BRANCH  16  17
ATOM     17  C   LIG    1        1.209   2.662  -1.638  0.00  0.00    -0.090 A 
ATOM     18  C   LIG    1        0.217   3.276  -2.379  0.00  0.00    +0.040 A 
ATOM     19  C   LIG    1        0.390   3.473  -3.737  0.00  0.00    +0.010 A 
ATOM     20  C   LIG    1        1.551   3.046  -4.354  0.00  0.00    +0.020 A 
ATOM     21  C   LIG    1        2.541   2.427  -3.614  0.00  0.00    +0.010 A 
ATOM     22  C   LIG    1        2.370   2.234  -2.256  0.00  0.00    +0.020 A 
ENDBRANCH  16  17
BRANCH  16  23
ATOM     23  S   LIG    1        0.538   4.019   0.619  0.00  0.00    -0.030 S 
BRANCH  23  24
ATOM     24  C   LIG    1        1.957   5.036   0.379  0.00  0.00    -0.100 A 
ATOM     25  C   LIG    1        3.073   4.531  -0.276  0.00  0.00    +0.000 A 
ATOM     26  C   LIG    1        4.181   5.332  -0.466  0.00  0.00    +0.020 A 
ATOM     27  C   LIG    1        4.185   6.633   0.004  0.00  0.00    +0.000 A 
ATOM     28  C   LIG    1        3.077   7.137   0.661  0.00  0.00    +0.030 A 
ATOM     29  C   LIG    1        1.964   6.343   0.851  0.00  0.00    +0.030 A 
ENDBRANCH  23  24
ENDBRANCH  16  23
ENDBRANCH   2  16
TORSDOF 6
