REMARK  Name = ZINCpe00000LfJWt.0
REMARK                            x       y       z     vdW  Elec       q    Type
REMARK                         _______ _______ _______ _____ _____    ______ ____
ROOT
ATOM      1  C   LIG    1       -2.789  -2.480  -0.205  0.00  0.00    +0.190 C 
ATOM      2  C   LIG    1       -1.283  -2.154  -0.118  0.00  0.00    +0.270 C 
ATOM      3  N   LIG    1       -1.155  -0.689  -0.092  0.00  0.00    -0.610 N 
ATOM      4  C   LIG    1       -2.500  -0.095  -0.194  0.00  0.00    +0.270 C 
ATOM      5  C   LIG    1        0.002  -0.004   0.002  0.00  0.00    +0.590 C 
ATOM      6  O   LIG    1       -0.016   1.206   0.115  0.00  0.00    -0.530 OA
ATOM      7  C   LIG    1       -3.458  -1.189   0.338  0.00  0.00    +0.190 C 
ENDROOT
BRANCH   5   8
ATOM      8  C   LIG    1        1.290  -0.723  -0.032  0.00  0.00    -0.160 A 
ATOM      9  C   LIG    1        2.462  -0.023  -0.075  0.00  0.00    +0.320 A 
ATOM     10  N   LIG    1        3.654  -0.675  -0.106  0.00  0.00    -0.370 N 
ATOM     11  C   LIG    1        4.949  -0.232  -0.151  0.00  0.00    +0.100 A 
ATOM     12  C   LIG    1        5.744  -1.323  -0.165  0.00  0.00    +0.230 A 
ATOM     13  N   LIG    1        4.973  -2.413  -0.129  0.00  0.00    -0.490 NA
ATOM     14  C   LIG    1        3.701  -2.047  -0.093  0.00  0.00    +0.230 A 
ATOM     15  C   LIG    1        2.502  -2.791  -0.048  0.00  0.00    +0.090 A 
ATOM     16  C   LIG    1        1.312  -2.140  -0.013  0.00  0.00    +0.050 A 
ENDBRANCH   5   8
BRANCH   7  17
ATOM     17  O   LIG    1       -4.771  -1.026  -0.201  0.00  0.00    -0.550 OA
ATOM     18  H   LIG    1       -5.191  -0.187   0.032  0.00  0.00    +0.390 HD
ENDBRANCH   7  17
BRANCH   1  19
ATOM     19  O   LIG    1       -3.118  -3.603   0.615  0.00  0.00    -0.280 OA
BRANCH  19  22
ATOM     20  N   LIG    1       -3.414  -6.967  -0.351  0.00  0.00    -0.360 N 
ATOM     21  C   LIG    1       -3.466  -6.000   0.602  0.00  0.00    +0.210 A 
ATOM     22  C   LIG    1       -3.173  -4.820   0.004  0.00  0.00    -0.040 A 
ATOM     23  C   LIG    1       -2.942  -5.071  -1.355  0.00  0.00    +0.170 A 
ATOM     24  N   LIG    1       -3.080  -6.355  -1.566  0.00  0.00    -0.260 NA
BRANCH  20  26
ATOM     25  C   LIG    1       -4.757  -8.866  -1.108  0.00  0.00    +0.040 C 
ATOM     26  C   LIG    1       -3.665  -8.396  -0.145  0.00  0.00    +0.320 C 
ENDBRANCH  20  26
ENDBRANCH  19  22
ENDBRANCH   1  19
TORSDOF 5
