REMARK  Name = ZINCqH0000007uLM.0
REMARK                            x       y       z     vdW  Elec       q    Type
REMARK                         _______ _______ _______ _____ _____    ______ ____
ROOT
ATOM      1  C   LIG    1        0.971   6.266   0.517  0.00  0.00    +0.570 C 
ATOM      2  N   LIG    1       -0.073   5.564   0.033  0.00  0.00    -0.660 N 
ATOM      3  H   LIG    1       -0.856   6.029  -0.301  0.00  0.00    +0.410 HD
ATOM      4  O   LIG    1        1.981   5.687   0.870  0.00  0.00    -0.480 OA
ENDROOT
BRANCH   2   5
ATOM      5  C   LIG    1       -0.029   4.165   0.014  0.00  0.00    +0.140 A 
ATOM      6  C   LIG    1        1.195   3.510  -0.030  0.00  0.00    +0.040 A 
ATOM      7  C   LIG    1        1.239   2.130  -0.049  0.00  0.00    +0.050 A 
ATOM      8  C   LIG    1        0.060   1.397  -0.026  0.00  0.00    +0.070 A 
ATOM      9  C   LIG    1       -1.164   2.052   0.011  0.00  0.00    -0.010 A 
ATOM     10  C   LIG    1       -1.208   3.432   0.037  0.00  0.00    -0.100 A 
ATOM     11  C   LIG    1       -2.536   4.143   0.083  0.00  0.00    +0.080 C 
BRANCH   8  12
ATOM     12  N   LIG    1        0.105  -0.001  -0.045  0.00  0.00    -0.480 N 
ATOM     13  C   LIG    1       -0.484  -0.570   1.194  0.00  0.00    +0.170 C 
ATOM     14  C   LIG    1       -0.831  -2.024   0.787  0.00  0.00    +0.030 C 
ATOM     15  C   LIG    1       -1.315  -1.868  -0.673  0.00  0.00    +0.010 C 
ATOM     16  C   LIG    1       -0.703  -0.542  -1.160  0.00  0.00    +0.170 C 
ENDBRANCH   8  12
ENDBRANCH   2   5
BRANCH   1  22
ATOM     17  C   LIG    1        1.973   8.468   1.122  0.00  0.00    +0.240 A 
ATOM     18  C   LIG    1        1.885   9.849   1.214  0.00  0.00    -0.060 A 
ATOM     19  C   LIG    1        0.735  10.498   0.810  0.00  0.00    +0.180 A 
ATOM     20  C   LIG    1       -0.338   9.777   0.313  0.00  0.00    -0.090 A 
ATOM     21  C   LIG    1       -0.266   8.404   0.210  0.00  0.00    +0.180 A 
ATOM     22  C   LIG    1        0.889   7.735   0.620  0.00  0.00    -0.170 A 
BRANCH  20  23
ATOM     23  N   LIG    1       -1.565  10.485  -0.117  0.00  0.00    +0.030 N 
ATOM     24  O   LIG    1       -2.510   9.854  -0.554  0.00  0.00    -0.160 OA
ATOM     25  O   LIG    1       -1.630  11.698  -0.032  0.00  0.00    -0.160 OA
ENDBRANCH  20  23
BRANCH  17  27
ATOM     26  C   LIG    1        4.166   8.642   2.019  0.00  0.00    +0.260 C 
ATOM     27  O   LIG    1        3.103   7.829   1.518  0.00  0.00    -0.270 OA
ENDBRANCH  17  27
ENDBRANCH   1  22
TORSDOF 5
