REMARK  Name = ZINCb80000002CJW.0
REMARK                            x       y       z     vdW  Elec       q    Type
REMARK                         _______ _______ _______ _____ _____    ______ ____
ROOT
ATOM      1  C   LIG    1        0.002  -0.004   0.002  0.00  0.00    +0.010 A 
ATOM      2  C   LIG    1        1.197  -0.698  -0.013  0.00  0.00    +0.040 A 
ATOM      3  C   LIG    1        2.398   0.021  -0.020  0.00  0.00    -0.080 A 
ATOM      4  C   LIG    1        2.331   1.418  -0.013  0.00  0.00    +0.050 A 
ATOM      5  C   LIG    1        1.091   2.029   0.003  0.00  0.00    +0.250 A 
ATOM      6  N   LIG    1       -0.016   1.314   0.009  0.00  0.00    -0.480 NA
ENDROOT
BRANCH   3   7
ATOM      7  C   LIG    1        3.701  -0.678  -0.035  0.00  0.00    +0.510 C 
ATOM      8  O   LIG    1        4.740  -0.033  -0.042  0.00  0.00    -0.660 OA
ATOM      9  O   LIG    1        3.740  -1.900  -0.042  0.00  0.00    -0.670 OA
ENDBRANCH   3   7
BRANCH   1  10
ATOM     10  C   LIG    1       -1.299  -0.765   0.010  0.00  0.00    +0.350 C 
BRANCH  10  11
ATOM     11  N   LIG    1       -1.769  -0.915   1.394  0.00  0.00    -0.630 N 
ATOM     12  H   LIG    1       -2.640  -1.425   1.399  0.00  0.00    +0.430 HD
ATOM     13  H   LIG    1       -1.910  -0.004   1.802  0.00  0.00    +0.440 HD
ATOM     14  H   LIG    1       -1.080  -1.421   1.930  0.00  0.00    +0.440 HD
ENDBRANCH  10  11
ENDBRANCH   1  10
TORSDOF 3
