REMARK  Name = ZINCpk00000xT3FW.0
REMARK                            x       y       z     vdW  Elec       q    Type
REMARK                         _______ _______ _______ _____ _____    ______ ____
ROOT
ATOM      1  C   LIG    1        0.524   1.489   3.619  0.00  0.00    +0.580 C 
ATOM      2  N   LIG    1        0.590   1.506   2.273  0.00  0.00    -0.620 N 
ATOM      3  C   LIG    1        1.824   1.477   1.475  0.00  0.00    +0.250 C 
ATOM      4  C   LIG    1        1.409   1.483  -0.011  0.00  0.00    +0.050 C 
ATOM      5  C   LIG    1       -0.045   0.943   0.032  0.00  0.00    +0.130 C 
ATOM      6  C   LIG    1       -0.564   1.554   1.357  0.00  0.00    +0.290 C 
ATOM      7  O   LIG    1       -0.549   1.611   4.177  0.00  0.00    -0.530 OA
ENDROOT
BRANCH   1  11
ATOM      8  C   LIG    1        4.066   1.010   5.912  0.00  0.00    +0.150 A 
ATOM      9  C   LIG    1        2.826   0.983   6.539  0.00  0.00    -0.020 A 
ATOM     10  C   LIG    1        1.675   1.138   5.799  0.00  0.00    +0.120 A 
ATOM     11  C   LIG    1        1.755   1.322   4.416  0.00  0.00    -0.170 A 
ATOM     12  C   LIG    1        3.004   1.343   3.789  0.00  0.00    +0.080 A 
ATOM     13  C   LIG    1        4.150   1.192   4.537  0.00  0.00    -0.090 A 
BRANCH   8  15
ATOM     14  C   LIG    1        6.439   0.894   5.938  0.00  0.00    +0.240 C 
ATOM     15  O   LIG    1        5.198   0.857   6.645  0.00  0.00    -0.310 OA
ENDBRANCH   8  15
ENDBRANCH   1  11
BRANCH   5  16
ATOM     16  N   LIG    1       -0.822   1.432  -1.115  0.00  0.00    -0.520 NA
ATOM     17  C   LIG    1       -0.208   1.016  -2.383  0.00  0.00    +0.190 C 
BRANCH  16  18
ATOM     18  C   LIG    1       -2.218   0.982  -1.034  0.00  0.00    +0.280 C 
BRANCH  18  19
ATOM     19  C   LIG    1       -3.037   1.695  -2.080  0.00  0.00    +0.370 A 
ATOM     20  N   LIG    1       -3.616   2.837  -1.770  0.00  0.00    -0.540 NA
ATOM     21  C   LIG    1       -4.340   3.500  -2.662  0.00  0.00    +0.350 A 
ATOM     22  C   LIG    1       -4.494   2.973  -3.929  0.00  0.00    -0.150 A 
ATOM     23  C   LIG    1       -3.871   1.758  -4.223  0.00  0.00    +0.440 A 
ATOM     24  N   LIG    1       -3.157   1.157  -3.276  0.00  0.00    -0.580 NA
BRANCH  23  25
ATOM     25  N   LIG    1       -3.996   1.189  -5.479  0.00  0.00    -0.840 N 
ATOM     26  H   LIG    1       -4.519   1.635  -6.164  0.00  0.00    +0.410 HD
ATOM     27  H   LIG    1       -3.561   0.345  -5.675  0.00  0.00    +0.410 HD
ENDBRANCH  23  25
ENDBRANCH  18  19
ENDBRANCH  16  18
ENDBRANCH   5  16
TORSDOF 6
