REMARK  Name = ZINCtV00000L6kaA.0
REMARK                            x       y       z     vdW  Elec       q    Type
REMARK                         _______ _______ _______ _____ _____    ______ ____
ROOT
ATOM      1  O   LIG    1        1.154   3.445   0.010  0.00  0.00    -0.290 OA
ENDROOT
BRANCH   1   2
ATOM      2  C   LIG    1        1.175   2.087   0.003  0.00  0.00    +0.140 A 
ATOM      3  C   LIG    1        2.372   1.412   0.205  0.00  0.00    -0.080 A 
ATOM      4  C   LIG    1        2.398   0.033   0.198  0.00  0.00    +0.070 A 
ATOM      5  C   LIG    1        1.220  -0.683  -0.012  0.00  0.00    -0.100 A 
ATOM      6  C   LIG    1        0.020  -0.003  -0.215  0.00  0.00    +0.080 A 
ATOM      7  C   LIG    1        0.001   1.376  -0.207  0.00  0.00    -0.010 A 
BRANCH   5   8
ATOM      8  C   LIG    1        1.244  -2.165  -0.020  0.00  0.00    -0.000 A 
ATOM      9  C   LIG    1        2.447  -2.844   0.177  0.00  0.00    +0.020 A 
ATOM     10  C   LIG    1        2.469  -4.220   0.175  0.00  0.00    +0.080 A 
ATOM     11  C   LIG    1        1.288  -4.938  -0.036  0.00  0.00    -0.030 A 
ATOM     12  C   LIG    1        0.085  -4.256  -0.239  0.00  0.00    +0.080 A 
ATOM     13  C   LIG    1        0.064  -2.880  -0.231  0.00  0.00    +0.020 A 
BRANCH  11  14
ATOM     14  C   LIG    1        1.312  -6.370  -0.045  0.00  0.00    +0.250 C 
ATOM     15  N   LIG    1        1.330  -7.505  -0.052  0.00  0.00    -0.410 NA
ENDBRANCH  11  14
ENDBRANCH   5   8
ENDBRANCH   1   2
BRANCH   1  17
ATOM     16  C   LIG    1        2.809   4.231   1.585  0.00  0.00    +0.060 C 
ATOM     17  C   LIG    1        2.413   4.113   0.112  0.00  0.00    +0.140 C 
BRANCH  17  18
ATOM     18  C   LIG    1        2.300   5.490  -0.489  0.00  0.00    +0.400 C 
ATOM     19  O   LIG    1        1.211   6.006  -0.626  0.00  0.00    -0.420 OA
BRANCH  18  20
ATOM     20  C   LIG    1        3.513   6.210  -0.911  0.00  0.00    -0.170 A 
ATOM     21  C   LIG    1        4.771   5.622  -0.750  0.00  0.00    +0.060 A 
ATOM     22  C   LIG    1        5.902   6.301  -1.152  0.00  0.00    +0.010 A 
ATOM     23  C   LIG    1        5.795   7.565  -1.704  0.00  0.00    -0.030 A 
ATOM     24  C   LIG    1        4.554   8.156  -1.862  0.00  0.00    +0.000 A 
ATOM     25  C   LIG    1        3.413   7.488  -1.470  0.00  0.00    +0.090 A 
BRANCH  23  26
ATOM     26  C   LIG    1        7.037   8.302  -2.136  0.00  0.00    -0.040 C 
ATOM     27  C   LIG    1        6.956   8.604  -3.634  0.00  0.00    +0.040 C 
ATOM     28  C   LIG    1        8.267   7.437  -1.855  0.00  0.00    +0.030 C 
ATOM     29  C   LIG    1        7.148   9.614  -1.357  0.00  0.00    +0.040 C 
ENDBRANCH  23  26
ENDBRANCH  18  20
ENDBRANCH  17  18
ENDBRANCH   1  17
TORSDOF 7
