REMARK  Name = ZINCvU0000000FzD.0
REMARK                            x       y       z     vdW  Elec       q    Type
REMARK                         _______ _______ _______ _____ _____    ______ ____
ROOT
ATOM      1  C   LIG    1       -3.675   1.546   0.132  0.00  0.00    +0.200 A 
ATOM      2  C   LIG    1       -4.786   0.790   0.483  0.00  0.00    +0.020 A 
ATOM      3  C   LIG    1       -4.754  -0.585   0.362  0.00  0.00    +0.070 A 
ATOM      4  C   LIG    1       -3.619  -1.220  -0.115  0.00  0.00    -0.010 A 
ATOM      5  C   LIG    1       -2.509  -0.486  -0.474  0.00  0.00    +0.060 A 
ATOM      6  C   LIG    1       -2.526   0.905  -0.357  0.00  0.00    -0.160 A 
ENDROOT
BRANCH   1   8
ATOM      7  C   LIG    1       -4.795   3.621  -0.126  0.00  0.00    +0.610 C 
ATOM      8  N   LIG    1       -3.703   2.931   0.258  0.00  0.00    -0.650 N 
ATOM      9  H   LIG    1       -2.937   3.400   0.624  0.00  0.00    +0.430 HD
ATOM     10  O   LIG    1       -5.792   3.027  -0.492  0.00  0.00    -0.500 OA
BRANCH   7  13
ATOM     11  C   LIG    1       -7.173   5.444  -0.962  0.00  0.00    +0.140 C 
ATOM     12  C   LIG    1       -5.819   5.887  -0.469  0.00  0.00    -0.070 A 
ATOM     13  C   LIG    1       -4.781   5.090  -0.104  0.00  0.00    -0.030 A 
ATOM     14  O   LIG    1       -3.738   5.851   0.286  0.00  0.00    -0.170 OA
ATOM     15  C   LIG    1       -4.037   7.162   0.189  0.00  0.00    +0.070 A 
ATOM     16  C   LIG    1       -3.321   8.322   0.461  0.00  0.00    +0.070 A 
ATOM     17  C   LIG    1       -3.906   9.554   0.266  0.00  0.00    +0.040 A 
ATOM     18  C   LIG    1       -5.211   9.655  -0.203  0.00  0.00    +0.080 A 
ATOM     19  C   LIG    1       -5.939   8.518  -0.479  0.00  0.00    +0.060 A 
ATOM     20  F   LIG    1       -5.767  10.872  -0.389  0.00  0.00    -0.130 F 
ATOM     21  C   LIG    1       -5.358   7.263  -0.285  0.00  0.00    -0.120 A 
ENDBRANCH   7  13
ENDBRANCH   1   8
BRANCH   6  22
ATOM     22  C   LIG    1       -1.341   1.696  -0.738  0.00  0.00    +0.560 C 
ATOM     23  N   LIG    1       -0.226   1.074  -1.169  0.00  0.00    -0.730 N 
ATOM     24  H   LIG    1       -0.202   0.106  -1.228  0.00  0.00    +0.400 HD
ATOM     25  O   LIG    1       -1.371   2.910  -0.664  0.00  0.00    -0.540 OA
BRANCH  23  26
ATOM     26  C   LIG    1        0.949   1.861  -1.553  0.00  0.00    +0.270 C 
BRANCH  26  27
ATOM     27  C   LIG    1        2.067   0.919  -2.007  0.00  0.00    +0.070 C 
BRANCH  27  28
ATOM     28  C   LIG    1        3.275   1.728  -2.403  0.00  0.00    -0.090 A 
ATOM     29  C   LIG    1        3.425   2.152  -3.710  0.00  0.00    +0.010 A 
ATOM     30  C   LIG    1        4.531   2.898  -4.072  0.00  0.00    +0.000 A 
ATOM     31  C   LIG    1        5.493   3.211  -3.129  0.00  0.00    +0.000 A 
ATOM     32  C   LIG    1        5.346   2.782  -1.823  0.00  0.00    +0.000 A 
ATOM     33  C   LIG    1        4.237   2.040  -1.460  0.00  0.00    +0.010 A 
ENDBRANCH  27  28
ENDBRANCH  26  27
ENDBRANCH  23  26
ENDBRANCH   6  22
TORSDOF 6
