REMARK  Name = ZINCqH0000001PIU.0
REMARK                            x       y       z     vdW  Elec       q    Type
REMARK                         _______ _______ _______ _____ _____    ______ ____
ROOT
ATOM      1  C   LIG    1       -5.528   4.915   1.330  0.00  0.00    +0.580 C 
ATOM      2  N   LIG    1       -6.843   5.212   1.344  0.00  0.00    -0.720 N 
ATOM      3  H   LIG    1       -7.501   4.500   1.346  0.00  0.00    +0.400 HD
ATOM      4  O   LIG    1       -4.703   5.808   1.327  0.00  0.00    -0.520 OA
ENDROOT
BRANCH   1  11
ATOM      5  C   LIG    1       -2.143   1.058   1.278  0.00  0.00    +0.080 A 
ATOM      6  N   LIG    1       -2.526  -0.184   1.269  0.00  0.00    -0.300 NA
ATOM      7  O   LIG    1       -3.727  -0.319   1.285  0.00  0.00    +0.090 OA
ATOM      8  C   LIG    1       -4.388   0.852   1.298  0.00  0.00    +0.240 A 
ATOM      9  N   LIG    1       -5.663   1.206   1.312  0.00  0.00    -0.460 NA
ATOM     10  C   LIG    1       -6.031   2.468   1.321  0.00  0.00    +0.370 A 
ATOM     11  C   LIG    1       -5.090   3.505   1.318  0.00  0.00    -0.210 A 
ATOM     12  C   LIG    1       -3.728   3.184   1.304  0.00  0.00    +0.230 A 
ATOM     13  C   LIG    1       -3.381   1.842   1.294  0.00  0.00    -0.220 A 
BRANCH   5  15
ATOM     14  C   LIG    1       -0.013   1.086   0.008  0.00  0.00    +0.040 C 
ATOM     15  C   LIG    1       -0.729   1.579   1.267  0.00  0.00    +0.080 C 
ATOM     16  C   LIG    1        0.011   1.072   2.506  0.00  0.00    +0.040 C 
ENDBRANCH   5  15
ENDBRANCH   1  11
BRANCH   2  17
ATOM     17  C   LIG    1       -7.278   6.611   1.355  0.00  0.00    +0.290 C 
ATOM     18  C   LIG    1       -7.296   7.128   2.795  0.00  0.00    +0.040 C 
BRANCH  17  19
ATOM     19  C   LIG    1       -8.662   6.712   0.768  0.00  0.00    -0.040 A 
ATOM     20  C   LIG    1       -9.608   5.747   1.060  0.00  0.00    +0.030 A 
ATOM     21  C   LIG    1      -10.880   5.842   0.525  0.00  0.00    +0.110 A 
ATOM     22  C   LIG    1      -11.201   6.896  -0.310  0.00  0.00    -0.040 A 
ATOM     23  C   LIG    1      -10.253   7.858  -0.605  0.00  0.00    +0.110 A 
ATOM     24  C   LIG    1       -8.984   7.766  -0.067  0.00  0.00    +0.050 A 
BRANCH  22  25
ATOM     25  N   LIG    1      -12.561   6.995  -0.886  0.00  0.00    +0.020 N 
ATOM     26  O   LIG    1      -13.396   6.148  -0.626  0.00  0.00    -0.150 OA
ATOM     27  O   LIG    1      -12.845   7.924  -1.621  0.00  0.00    -0.150 OA
ENDBRANCH  22  25
ENDBRANCH  17  19
ENDBRANCH   2  17
TORSDOF 5
