REMARK  Name = ZINCqH0000031pIU.0
REMARK                            x       y       z     vdW  Elec       q    Type
REMARK                         _______ _______ _______ _____ _____    ______ ____
ROOT
ATOM      1  C   LIG    1        1.290  -1.306   3.381  0.00  0.00    +0.250 C 
ATOM      2  C   LIG    1        0.437  -0.442   4.312  0.00  0.00    +0.060 C 
ENDROOT
BRANCH   1   3
ATOM      3  N   LIG    1        2.694  -1.228   3.792  0.00  0.00    -0.710 N 
ATOM      4  H   LIG    1        3.289  -0.591   3.367  0.00  0.00    +0.410 HD
ATOM      5  C   LIG    1        3.158  -2.041   4.761  0.00  0.00    +0.560 C 
ATOM      6  O   LIG    1        2.413  -2.839   5.295  0.00  0.00    -0.510 OA
BRANCH   5   7
ATOM      7  C   LIG    1        4.574  -1.962   5.176  0.00  0.00    -0.120 A 
ATOM      8  C   LIG    1        5.434  -1.046   4.566  0.00  0.00    +0.070 A 
ATOM      9  C   LIG    1        6.755  -0.977   4.957  0.00  0.00    +0.040 A 
ATOM     10  C   LIG    1        7.230  -1.812   5.952  0.00  0.00    +0.080 A 
ATOM     11  C   LIG    1        6.386  -2.723   6.563  0.00  0.00    -0.040 A 
ATOM     12 CL   LIG    1        6.992  -3.767   7.810  0.00  0.00    -0.040 Cl
ATOM     13  C   LIG    1        5.058  -2.799   6.185  0.00  0.00    +0.020 A 
ATOM     14 CL   LIG    1        3.997  -3.936   6.955  0.00  0.00    -0.010 Cl
ENDBRANCH   5   7
ENDBRANCH   1   3
BRANCH   1  16
ATOM     15  N   LIG    1        0.017  -1.038   1.277  0.00  0.00    -0.600 N 
ATOM     16  C   LIG    1        1.152  -0.807   1.966  0.00  0.00    +0.520 C 
ATOM     17  O   LIG    1        2.063  -0.197   1.446  0.00  0.00    -0.530 OA
BRANCH  15  18
ATOM     18  C   LIG    1       -1.123  -1.678   1.938  0.00  0.00    +0.430 C 
BRANCH  18  20
ATOM     19  C   LIG    1       -1.068  -4.282   1.469  0.00  0.00    +0.060 C 
ATOM     20  C   LIG    1       -1.093  -3.126   1.677  0.00  0.00    -0.230 C 
ENDBRANCH  18  20
ENDBRANCH  15  18
BRANCH  15  21
ATOM     21  C   LIG    1       -0.076  -0.650  -0.133  0.00  0.00    +0.350 C 
BRANCH  21  22
ATOM     22  C   LIG    1       -0.602   0.759  -0.232  0.00  0.00    -0.110 A 
ATOM     23  C   LIG    1       -1.962   0.984  -0.325  0.00  0.00    +0.010 A 
ATOM     24  C   LIG    1       -2.444   2.277  -0.411  0.00  0.00    +0.000 A 
ATOM     25  C   LIG    1       -1.565   3.344  -0.415  0.00  0.00    +0.010 A 
ATOM     26  C   LIG    1       -0.204   3.118  -0.328  0.00  0.00    +0.000 A 
ATOM     27  C   LIG    1        0.278   1.825  -0.236  0.00  0.00    +0.040 A 
ENDBRANCH  21  22
ENDBRANCH  15  21
ENDBRANCH   1  16
TORSDOF 7
