REMARK  Name = ZINCqH00000380uU.0
REMARK                            x       y       z     vdW  Elec       q    Type
REMARK                         _______ _______ _______ _____ _____    ______ ____
ROOT
ATOM      1  C   LIG    1       -0.655  -6.452   0.513  0.00  0.00    +0.110 C 
ATOM      2  C   LIG    1       -0.681  -4.948   0.607  0.00  0.00    -0.090 A 
ATOM      3  C   LIG    1        0.068  -4.190  -0.274  0.00  0.00    +0.030 A 
ATOM      4  C   LIG    1        0.049  -2.812  -0.194  0.00  0.00    +0.040 A 
ATOM      5  C   LIG    1       -0.727  -2.179   0.777  0.00  0.00    -0.120 A 
ATOM      6  C   LIG    1       -1.478  -2.944   1.670  0.00  0.00    +0.090 A 
ATOM      7  C   LIG    1       -1.457  -4.327   1.579  0.00  0.00    +0.140 A 
ENDROOT
BRANCH   5   8
ATOM      8  C   LIG    1       -0.749  -0.704   0.865  0.00  0.00    +0.560 C 
ATOM      9  N   LIG    1        0.354   0.006   0.556  0.00  0.00    -0.610 N 
ATOM     10  C   LIG    1        1.619  -0.674   0.246  0.00  0.00    +0.260 C 
ATOM     11  C   LIG    1        2.719  -0.106   1.149  0.00  0.00    -0.040 C 
ATOM     12  C   LIG    1        2.768   1.415   0.991  0.00  0.00    +0.030 C 
ATOM     13  C   LIG    1        1.429   2.018   1.423  0.00  0.00    -0.040 C 
ATOM     14  C   LIG    1        1.491   3.542   1.296  0.00  0.00    +0.030 C 
ATOM     15  C   LIG    1        4.069  -0.705   0.749  0.00  0.00    +0.030 C 
ATOM     16  C   LIG    1        0.315   1.474   0.523  0.00  0.00    +0.280 C 
ATOM     17  O   LIG    1       -1.762  -0.130   1.215  0.00  0.00    -0.530 OA
ENDBRANCH   5   8
BRANCH   7  18
ATOM     18  N   LIG    1       -2.213  -5.098   2.468  0.00  0.00    -0.670 N 
ATOM     19  H   LIG    1       -1.890  -5.968   2.751  0.00  0.00    +0.410 HD
ATOM     20  C   LIG    1       -3.390  -4.633   2.931  0.00  0.00    +0.560 C 
ATOM     21  O   LIG    1       -3.750  -3.506   2.652  0.00  0.00    -0.500 OA
BRANCH  20  22
ATOM     22  C   LIG    1       -4.243  -5.493   3.779  0.00  0.00    -0.190 A 
ATOM     23  C   LIG    1       -5.465  -5.019   4.271  0.00  0.00    +0.140 A 
ATOM     24  C   LIG    1       -6.228  -5.866   5.056  0.00  0.00    -0.030 A 
ATOM     25  C   LIG    1       -5.758  -7.137   5.335  0.00  0.00    +0.300 A 
ATOM     26  N   LIG    1       -4.600  -7.555   4.861  0.00  0.00    -0.490 NA
ATOM     27  C   LIG    1       -3.841  -6.789   4.106  0.00  0.00    +0.300 A 
ENDBRANCH  20  22
ENDBRANCH   7  18
TORSDOF 3
