REMARK  Name = ZINCqH0000037Ht8.0
REMARK                            x       y       z     vdW  Elec       q    Type
REMARK                         _______ _______ _______ _____ _____    ______ ____
ROOT
ATOM      1  C   LIG    1       -0.941   4.046   6.581  0.00  0.00    +0.140 C 
ATOM      2  C   LIG    1       -0.203   5.155   5.877  0.00  0.00    +0.200 A 
ATOM      3  C   LIG    1        0.171   4.984   4.553  0.00  0.00    -0.040 A 
ATOM      4  C   LIG    1        0.858   6.005   3.900  0.00  0.00    +0.010 A 
ATOM      5  C   LIG    1        1.132   7.185   4.626  0.00  0.00    -0.190 A 
ATOM      6  C   LIG    1        1.781   8.399   4.313  0.00  0.00    +0.290 A 
ATOM      7  N   LIG    1        1.759   9.165   5.367  0.00  0.00    -0.230 NA
ATOM      8  N   LIG    1        1.104   8.508   6.416  0.00  0.00    -0.380 N 
ATOM      9  C   LIG    1        0.709   7.274   5.968  0.00  0.00    +0.320 A 
ATOM     10  N   LIG    1        0.064   6.263   6.532  0.00  0.00    -0.490 NA
ENDROOT
BRANCH   8  11
ATOM     11  C   LIG    1        0.880   9.047   7.759  0.00  0.00    +0.270 C 
ATOM     12  C   LIG    1        0.050  10.329   7.662  0.00  0.00    +0.050 C 
ATOM     13  C   LIG    1        2.226   9.359   8.415  0.00  0.00    +0.050 C 
ENDBRANCH   8  11
BRANCH   4  14
ATOM     14  C   LIG    1        1.280   5.861   2.490  0.00  0.00    +0.560 C 
ATOM     15  N   LIG    1        0.391   5.465   1.557  0.00  0.00    -0.600 N 
ATOM     16  O   LIG    1        2.429   6.099   2.172  0.00  0.00    -0.490 OA
BRANCH  15  17
ATOM     17  C   LIG    1       -1.016   5.281   1.919  0.00  0.00    +0.220 C 
ATOM     18  C   LIG    1       -1.432   3.837   1.632  0.00  0.00    +0.030 C 
ATOM     19  C   LIG    1       -1.884   6.234   1.094  0.00  0.00    +0.030 C 
ENDBRANCH  15  17
BRANCH  15  20
ATOM     20  C   LIG    1        0.833   5.219   0.182  0.00  0.00    +0.370 C 
BRANCH  20  21
ATOM     21  C   LIG    1        1.383   3.820   0.074  0.00  0.00    +0.110 A 
ATOM     22  C   LIG    1        0.560   2.794  -0.350  0.00  0.00    -0.020 A 
ATOM     23  C   LIG    1        1.077   1.512  -0.452  0.00  0.00    +0.050 A 
ATOM     24  C   LIG    1        2.405   1.306  -0.111  0.00  0.00    -0.040 A 
ATOM     25  C   LIG    1        3.167   2.382   0.305  0.00  0.00    +0.260 A 
ATOM     26  N   LIG    1        2.643   3.589   0.385  0.00  0.00    -0.460 NA
ENDBRANCH  20  21
ENDBRANCH  15  20
ENDBRANCH   4  14
TORSDOF 5
