REMARK  Name = ZINCrH00000No4Hl.0
REMARK                            x       y       z     vdW  Elec       q    Type
REMARK                         _______ _______ _______ _____ _____    ______ ____
ROOT
ATOM      1  C   LIG    1       -1.548  -1.991  -0.756  0.00  0.00    -0.190 A 
ATOM      2  C   LIG    1       -2.825  -2.364  -0.440  0.00  0.00    +0.290 A 
ATOM      3  N   LIG    1       -3.319  -1.463   0.434  0.00  0.00    -0.310 N 
ATOM      4  N   LIG    1       -2.349  -0.491   0.698  0.00  0.00    -0.270 NA
ATOM      5  C   LIG    1       -1.266  -0.772   0.006  0.00  0.00    +0.170 A 
ENDROOT
BRANCH   3   6
ATOM      6  C   LIG    1       -4.603  -1.496   0.991  0.00  0.00    +0.150 A 
ATOM      7  C   LIG    1       -5.485  -2.512   0.648  0.00  0.00    -0.010 A 
ATOM      8  C   LIG    1       -6.749  -2.545   1.204  0.00  0.00    +0.050 A 
ATOM      9  C   LIG    1       -7.141  -1.561   2.092  0.00  0.00    +0.010 A 
ATOM     10  C   LIG    1       -6.268  -0.544   2.432  0.00  0.00    +0.040 A 
ATOM     11  C   LIG    1       -5.000  -0.508   1.884  0.00  0.00    +0.020 A 
ENDBRANCH   3   6
BRANCH   5  12
ATOM     12  C   LIG    1       -0.002   0.002  -0.006  0.00  0.00    -0.080 A 
ATOM     13  C   LIG    1        0.563   0.459   1.189  0.00  0.00    +0.090 A 
ATOM     14  C   LIG    1        1.744   1.177   1.124  0.00  0.00    -0.040 A 
ATOM     15  C   LIG    1        2.323   1.418  -0.109  0.00  0.00    +0.260 A 
ATOM     16  N   LIG    1        1.767   0.974  -1.220  0.00  0.00    -0.470 NA
ATOM     17  C   LIG    1        0.644   0.286  -1.208  0.00  0.00    +0.330 A 
ENDBRANCH   5  12
BRANCH   1  19
ATOM     18  N   LIG    1        0.593  -2.275  -1.808  0.00  0.00    -0.240 NA
ATOM     19  C   LIG    1       -0.632  -2.683  -1.681  0.00  0.00    +0.280 C 
BRANCH  18  21
ATOM     20  C   LIG    1        2.736  -2.508  -2.819  0.00  0.00    +0.680 C 
ATOM     21  N   LIG    1        1.463  -2.932  -2.687  0.00  0.00    -0.560 N 
ATOM     22  H   LIG    1        1.150  -3.693  -3.201  0.00  0.00    +0.410 HD
ATOM     23  O   LIG    1        3.491  -3.078  -3.582  0.00  0.00    -0.560 OA
BRANCH  20  24
ATOM     24  O   LIG    1        3.171  -1.452  -2.105  0.00  0.00    -0.320 OA
BRANCH  24  26
ATOM     25  C   LIG    1        4.775  -0.675  -3.764  0.00  0.00    +0.030 C 
ATOM     26  C   LIG    1        4.553  -1.050  -2.297  0.00  0.00    +0.140 C 
ATOM     27  C   LIG    1        5.478  -2.209  -1.921  0.00  0.00    +0.020 C 
ATOM     28  C   LIG    1        4.861   0.157  -1.410  0.00  0.00    +0.080 C 
ENDBRANCH  24  26
ENDBRANCH  20  24
ENDBRANCH  18  21
ENDBRANCH   1  19
TORSDOF 6
