REMARK  Name = ZINC660000002ypv.0
REMARK                            x       y       z     vdW  Elec       q    Type
REMARK                         _______ _______ _______ _____ _____    ______ ____
ROOT
ATOM      1  C   LIG    1        1.286   1.562  -0.002  0.00  0.00    +0.210 C 
ATOM      2  C   LIG    1        2.040   1.127  -1.261  0.00  0.00    +0.020 C 
ENDROOT
BRANCH   1   3
ATOM      3  O   LIG    1       -0.011   0.963   0.007  0.00  0.00    -0.560 OA
ATOM      4  H   LIG    1        0.002  -0.004   0.002  0.00  0.00    +0.370 HD
ENDBRANCH   1   3
BRANCH   1   5
ATOM      5  C   LIG    1        2.064   1.114   1.238  0.00  0.00    +0.140 C 
BRANCH   5   7
ATOM      6  C   LIG    1        2.072   1.256   3.630  0.00  0.00    +0.200 C 
ATOM      7  O   LIG    1        1.422   1.619   2.410  0.00  0.00    -0.380 OA
ENDBRANCH   5   7
ENDBRANCH   1   5
TORSDOF 3
