REMARK  Name = ZINCvU0000000EGj.0
REMARK                            x       y       z     vdW  Elec       q    Type
REMARK                         _______ _______ _______ _____ _____    ______ ____
ROOT
ATOM      1  N   LIG    1       -1.493   3.449   0.315  0.00  0.00    -0.410 N 
ATOM      2  C   LIG    1       -2.838   3.666   0.195  0.00  0.00    +0.170 A 
ATOM      3  N   LIG    1       -3.388   2.522  -0.148  0.00  0.00    -0.280 NA
ATOM      4  N   LIG    1       -2.486   1.613  -0.256  0.00  0.00    -0.260 NA
ATOM      5  C   LIG    1       -1.305   2.116   0.020  0.00  0.00    +0.230 A 
ENDROOT
BRANCH   5   6
ATOM      6  C   LIG    1       -0.017   1.391   0.010  0.00  0.00    -0.010 A 
ATOM      7  C   LIG    1        0.002  -0.004   0.002  0.00  0.00    +0.070 A 
ATOM      8  C   LIG    1        1.208  -0.675  -0.013  0.00  0.00    +0.040 A 
ATOM      9  C   LIG    1        2.397   0.032  -0.021  0.00  0.00    +0.050 A 
ATOM     10  C   LIG    1        2.385   1.417  -0.013  0.00  0.00    -0.030 A 
ATOM     11 CL   LIG    1        3.883   2.295  -0.023  0.00  0.00    -0.060 Cl
ATOM     12  C   LIG    1        1.186   2.100   0.002  0.00  0.00    +0.040 A 
ENDBRANCH   5   6
BRANCH   1  16
ATOM     13  C   LIG    1        1.429   6.239   1.355  0.00  0.00    +0.160 A 
ATOM     14  C   LIG    1        0.721   6.385   0.171  0.00  0.00    +0.010 A 
ATOM     15  C   LIG    1       -0.246   5.462  -0.174  0.00  0.00    +0.080 A 
ATOM     16  C   LIG    1       -0.510   4.387   0.664  0.00  0.00    +0.050 A 
ATOM     17  C   LIG    1        0.196   4.244   1.851  0.00  0.00    +0.080 A 
ATOM     18  C   LIG    1        1.167   5.164   2.192  0.00  0.00    -0.060 A 
BRANCH  13  19
ATOM     19  O   LIG    1        2.381   7.148   1.694  0.00  0.00    -0.310 OA
BRANCH  19  21
ATOM     20  C   LIG    1        4.097   8.051   3.136  0.00  0.00    +0.070 C 
ATOM     21  C   LIG    1        3.072   6.935   2.926  0.00  0.00    +0.190 C 
ENDBRANCH  19  21
ENDBRANCH  13  19
ENDBRANCH   1  16
BRANCH   2  22
ATOM     22  S   LIG    1       -3.677   5.193   0.454  0.00  0.00    +0.030 S 
BRANCH  22  23
ATOM     23  C   LIG    1       -5.379   4.678   0.114  0.00  0.00    +0.220 C 
BRANCH  23  24
ATOM     24  C   LIG    1       -6.303   5.857   0.278  0.00  0.00    +0.050 A 
ATOM     25  C   LIG    1       -6.923   6.218   1.414  0.00  0.00    +0.170 A 
ATOM     26  N   LIG    1       -7.674   7.355   1.137  0.00  0.00    -0.420 N 
ATOM     27  C   LIG    1       -8.517   8.225   1.789  0.00  0.00    +0.220 A 
ATOM     28  C   LIG    1       -9.050   9.224   1.107  0.00  0.00    +0.020 A 
ATOM     29  S   LIG    1       -8.426   9.060  -0.544  0.00  0.00    +0.160 S 
ATOM     30  C   LIG    1       -7.467   7.617  -0.182  0.00  0.00    +0.160 A 
ATOM     31  N   LIG    1       -6.650   6.722  -0.686  0.00  0.00    -0.430 NA
ENDBRANCH  23  24
ENDBRANCH  22  23
ENDBRANCH   2  22
TORSDOF 7
