REMARK  Name = ZINCqH0000001LrH.0
REMARK                            x       y       z     vdW  Elec       q    Type
REMARK                         _______ _______ _______ _____ _____    ______ ____
ROOT
ATOM      1  C   LIG    1        2.313   5.274  -0.387  0.00  0.00    +0.300 A 
ATOM      2  N   LIG    1        1.254   6.011  -0.268  0.00  0.00    -0.330 NA
ATOM      3  N   LIG    1        1.466   7.371  -0.320  0.00  0.00    -0.260 NA
ATOM      4  C   LIG    1        2.699   7.740  -0.482  0.00  0.00    +0.010 A 
ATOM      5  S   LIG    1        3.723   6.311  -0.575  0.00  0.00    +0.100 S 
ENDROOT
BRANCH   1   6
ATOM      6  N   LIG    1        2.334   3.883  -0.363  0.00  0.00    -0.620 N 
ATOM      7  H   LIG    1        3.181   3.410  -0.380  0.00  0.00    +0.430 HD
BRANCH   6  11
ATOM      8  C   LIG    1       -1.240   1.752  -0.214  0.00  0.00    -0.090 A 
ATOM      9  C   LIG    1       -1.207   3.003  -0.804  0.00  0.00    +0.040 A 
ATOM     10  C   LIG    1       -0.024   3.713  -0.853  0.00  0.00    +0.020 A 
ATOM     11  C   LIG    1        1.135   3.168  -0.314  0.00  0.00    +0.150 A 
ATOM     12  C   LIG    1        1.099   1.909   0.273  0.00  0.00    -0.010 A 
ATOM     13  C   LIG    1       -0.088   1.204   0.319  0.00  0.00    +0.040 A 
BRANCH   8  15
ATOM     14  C   LIG    1       -2.373  -0.345  -0.898  0.00  0.00    +0.040 C 
ATOM     15  C   LIG    1       -2.535   0.983  -0.156  0.00  0.00    +0.020 C 
ATOM     16  C   LIG    1       -2.901   0.709   1.304  0.00  0.00    +0.040 C 
ENDBRANCH   8  15
ENDBRANCH   6  11
ENDBRANCH   1   6
BRANCH   4  17
ATOM     17  S   LIG    1        3.260   9.407  -0.584  0.00  0.00    +0.090 S 
BRANCH  17  18
ATOM     18  C   LIG    1        1.753  10.366  -0.267  0.00  0.00    +0.020 C 
BRANCH  18  19
ATOM     19  C   LIG    1        0.792  10.183  -1.413  0.00  0.00    +0.530 C 
ATOM     20  N   LIG    1       -0.518  10.449  -1.242  0.00  0.00    -0.680 N 
ATOM     21  H   LIG    1       -0.843  10.757  -0.382  0.00  0.00    +0.410 HD
ATOM     22  C   LIG    1       -1.378  10.286  -2.268  0.00  0.00    +0.700 C 
ATOM     23  O   LIG    1       -0.972   9.900  -3.346  0.00  0.00    -0.530 OA
ATOM     24  N   LIG    1       -2.688  10.551  -2.097  0.00  0.00    -0.860 N 
ATOM     25  H   LIG    1       -3.307  10.434  -2.834  0.00  0.00    +0.420 HD
ATOM     26  H   LIG    1       -3.013  10.859  -1.236  0.00  0.00    +0.400 HD
ATOM     27  O   LIG    1        1.197   9.798  -2.489  0.00  0.00    -0.440 OA
ENDBRANCH  18  19
BRANCH  18  28
ATOM     28  C   LIG    1        2.110  11.847  -0.131  0.00  0.00    +0.020 C 
ATOM     29  C   LIG    1        3.079  12.033   1.038  0.00  0.00    +0.060 C 
ATOM     30  C   LIG    1        0.838  12.656   0.128  0.00  0.00    +0.050 C 
ENDBRANCH  18  28
ENDBRANCH  17  18
ENDBRANCH   4  17
TORSDOF 7
