REMARK  Name = ZINCBu0000000b42.0
REMARK                            x       y       z     vdW  Elec       q    Type
REMARK                         _______ _______ _______ _____ _____    ______ ____
ROOT
ATOM      1  C   LIG    1       -1.678   0.711  -7.033  0.00  0.00    +0.570 C 
ATOM      2  N   LIG    1       -2.282   1.011  -5.866  0.00  0.00    -0.520 N 
ATOM      3  H   LIG    1       -3.059   1.592  -5.856  0.00  0.00    +0.430 HD
ATOM      4  O   LIG    1       -0.705  -0.016  -7.044  0.00  0.00    -0.520 OA
ENDROOT
BRANCH   1   9
ATOM      5  C   LIG    1       -2.072   1.479 -10.688  0.00  0.00    -0.680 A 
ATOM      6  C   LIG    1       -3.180   2.307 -10.672  0.00  0.00    +0.160 A 
ATOM      7  C   LIG    1       -3.802   2.616  -9.475  0.00  0.00    +0.010 A 
ATOM      8  C   LIG    1       -3.323   2.097  -8.290  0.00  0.00    +0.110 A 
ATOM      9  C   LIG    1       -2.201   1.266  -8.299  0.00  0.00    -0.160 A 
ATOM     10  C   LIG    1       -1.579   0.957  -9.510  0.00  0.00    +0.210 A 
BRANCH   5  11
ATOM     11  S   LIG    1       -1.288   1.091 -12.217  0.00  0.00    +2.680 S 
ATOM     12  O   LIG    1        0.051   0.732 -11.902  0.00  0.00    -0.930 OA
ATOM     13  O   LIG    1       -1.620   2.140 -13.117  0.00  0.00    -0.940 OA
BRANCH  11  15
ATOM     14  C   LIG    1       -3.251  -0.174 -13.582  0.00  0.00    +0.320 C 
ATOM     15  N   LIG    1       -2.012  -0.277 -12.806  0.00  0.00    -0.950 N 
BRANCH  15  16
ATOM     16  C   LIG    1       -1.442  -1.529 -12.564  0.00  0.00    +0.130 A 
ATOM     17  C   LIG    1       -0.160  -1.810 -13.020  0.00  0.00    +0.030 A 
ATOM     18  C   LIG    1        0.403  -3.047 -12.774  0.00  0.00    +0.030 A 
ATOM     19  C   LIG    1       -0.312  -4.009 -12.085  0.00  0.00    +0.020 A 
ATOM     20  C   LIG    1       -1.590  -3.734 -11.634  0.00  0.00    +0.020 A 
ATOM     21  C   LIG    1       -2.157  -2.497 -11.872  0.00  0.00    +0.010 A 
ENDBRANCH  15  16
ENDBRANCH  11  15
ENDBRANCH   5  11
ENDBRANCH   1   9
BRANCH   2  22
ATOM     22  N   LIG    1       -1.786   0.485  -4.665  0.00  0.00    -0.510 N 
ATOM     23  H   LIG    1       -1.009  -0.096  -4.675  0.00  0.00    +0.440 HD
ATOM     24  C   LIG    1       -2.389   0.785  -3.498  0.00  0.00    +0.520 C 
ATOM     25  O   LIG    1       -3.361   1.511  -3.487  0.00  0.00    -0.530 OA
BRANCH  24  26
ATOM     26  C   LIG    1       -1.856   0.219  -2.207  0.00  0.00    +0.090 C 
BRANCH  26  27
ATOM     27  C   LIG    1       -2.716   0.711  -1.041  0.00  0.00    +0.290 C 
BRANCH  27  28
ATOM     28  N   LIG    1       -2.196   0.160   0.217  0.00  0.00    -0.390 N 
ATOM     29  C   LIG    1       -3.091   0.533   1.321  0.00  0.00    +0.280 C 
ATOM     30  C   LIG    1       -2.560  -0.057   2.630  0.00  0.00    +0.230 C 
ATOM     31  N   LIG    1       -1.205   0.453   2.880  0.00  0.00    -0.490 N 
ATOM     32  C   LIG    1       -0.304   0.108   1.771  0.00  0.00    +0.220 C 
ATOM     33  C   LIG    1       -0.853   0.697   0.470  0.00  0.00    +0.270 C 
ATOM     34  H   LIG    1       -2.149  -0.846   0.149  0.00  0.00    +0.420 HD
BRANCH  31  35
ATOM     35  C   LIG    1       -0.708  -0.022   4.095  0.00  0.00    +0.080 A 
ATOM     36  C   LIG    1        0.491  -0.724   4.130  0.00  0.00    -0.030 A 
ATOM     37  C   LIG    1        0.982  -1.188   5.335  0.00  0.00    +0.040 A 
ATOM     38  C   LIG    1        0.277  -0.965   6.503  0.00  0.00    +0.000 A 
ATOM     39  C   LIG    1       -0.919  -0.272   6.471  0.00  0.00    +0.040 A 
ATOM     40  C   LIG    1       -1.413   0.200   5.271  0.00  0.00    +0.000 A 
ENDBRANCH  31  35
ENDBRANCH  27  28
ENDBRANCH  26  27
ENDBRANCH  24  26
ENDBRANCH   2  22
TORSDOF 9
