REMARK  Name = ZINCtV000002Jfea.0
REMARK                            x       y       z     vdW  Elec       q    Type
REMARK                         _______ _______ _______ _____ _____    ______ ____
ROOT
ATOM      1  C   LIG    1       -0.057   1.492  -0.010  0.00  0.00    +0.560 C 
ATOM      2  N   LIG    1       -1.239   2.139  -0.003  0.00  0.00    -0.520 N 
ATOM      3  O   LIG    1        0.982   2.124   0.012  0.00  0.00    -0.450 OA
ENDROOT
BRANCH   2   4
ATOM      4  C   LIG    1       -1.274   3.520  -0.093  0.00  0.00    +0.340 A 
ATOM      5  N   LIG    1       -0.236   4.277  -0.187  0.00  0.00    -0.460 NA
ATOM      6  C   LIG    1       -0.431   5.608  -0.268  0.00  0.00    +0.110 A 
ATOM      7  C   LIG    1        0.529   6.636  -0.377  0.00  0.00    -0.020 A 
ATOM      8  C   LIG    1        0.136   7.949  -0.449  0.00  0.00    +0.030 A 
ATOM      9  C   LIG    1       -1.209   8.286  -0.414  0.00  0.00    +0.040 A 
ATOM     10  C   LIG    1       -2.164   7.299  -0.308  0.00  0.00    +0.060 A 
ATOM     11  C   LIG    1       -1.783   5.962  -0.234  0.00  0.00    -0.180 A 
ATOM     12  S   LIG    1       -2.741   4.489  -0.102  0.00  0.00    +0.060 S 
BRANCH   7  13
ATOM     13  C   LIG    1        1.995   6.290  -0.416  0.00  0.00    +0.030 C 
ATOM     14  C   LIG    1        2.708   6.957   0.763  0.00  0.00    +0.030 C 
ATOM     15  C   LIG    1        2.603   6.790  -1.728  0.00  0.00    +0.030 C 
ENDBRANCH   7  13
ENDBRANCH   2   4
BRANCH   1  22
ATOM     16  C   LIG    1        1.419   0.040   2.011  0.00  0.00    +0.100 C 
ATOM     17  C   LIG    1        0.687  -0.696   0.919  0.00  0.00    -0.030 A 
ATOM     18  C   LIG    1        0.710  -2.075   0.878  0.00  0.00    +0.010 A 
ATOM     19  C   LIG    1        0.042  -2.752  -0.127  0.00  0.00    +0.040 A 
ATOM     20  C   LIG    1       -0.657  -2.053  -1.095  0.00  0.00    +0.000 A 
ATOM     21  C   LIG    1       -0.693  -0.674  -1.062  0.00  0.00    +0.040 A 
ATOM     22  C   LIG    1       -0.022   0.015  -0.051  0.00  0.00    -0.130 A 
ENDBRANCH   1  22
BRANCH   2  23
ATOM     23  C   LIG    1       -2.488   1.380   0.101  0.00  0.00    +0.350 C 
BRANCH  23  24
ATOM     24  C   LIG    1       -2.798   1.119   1.552  0.00  0.00    -0.120 A 
ATOM     25  C   LIG    1       -2.249   0.022   2.190  0.00  0.00    +0.030 A 
ATOM     26  C   LIG    1       -2.530  -0.215   3.522  0.00  0.00    +0.000 A 
ATOM     27  C   LIG    1       -3.368   0.639   4.215  0.00  0.00    +0.010 A 
ATOM     28  C   LIG    1       -3.922   1.732   3.575  0.00  0.00    +0.010 A 
ATOM     29  C   LIG    1       -3.637   1.972   2.244  0.00  0.00    +0.020 A 
ENDBRANCH  23  24
ENDBRANCH   2  23
TORSDOF 5
