REMARK  Name = ZINCtV00000L6kye.0
REMARK                            x       y       z     vdW  Elec       q    Type
REMARK                         _______ _______ _______ _____ _____    ______ ____
ROOT
ATOM      1  C   LIG    1       -3.840   1.569   2.065  0.00  0.00    +0.430 A 
ATOM      2  C   LIG    1       -2.727   0.896   1.612  0.00  0.00    -0.160 A 
ATOM      3  C   LIG    1       -2.231  -0.203   2.298  0.00  0.00    +0.060 A 
ATOM      4  C   LIG    1       -2.874  -0.634   3.459  0.00  0.00    -0.050 A 
ATOM      5  C   LIG    1       -4.061   0.095   3.918  0.00  0.00    +0.340 A 
ATOM      6  N   LIG    1       -4.851  -0.087   4.961  0.00  0.00    -0.490 NA
ATOM      7  C   LIG    1       -5.827   0.852   4.963  0.00  0.00    +0.100 A 
ATOM      8  C   LIG    1       -6.902   1.115   5.819  0.00  0.00    +0.060 A 
ATOM      9  C   LIG    1       -7.746   2.169   5.553  0.00  0.00    +0.040 A 
ATOM     10  C   LIG    1       -7.539   2.974   4.442  0.00  0.00    +0.010 A 
ATOM     11  C   LIG    1       -6.483   2.729   3.588  0.00  0.00    +0.040 A 
ATOM     12  C   LIG    1       -5.622   1.672   3.839  0.00  0.00    +0.010 A 
ATOM     13  C   LIG    1       -1.009  -0.926   1.794  0.00  0.00    +0.130 C 
ATOM     14  N   LIG    1       -4.502   1.175   3.193  0.00  0.00    -0.410 N 
ENDROOT
BRANCH   1  15
ATOM     15  N   LIG    1       -4.299   2.657   1.362  0.00  0.00    -0.770 N 
ATOM     16  H   LIG    1       -4.656   2.541   0.468  0.00  0.00    +0.410 HD
BRANCH  15  17
ATOM     17  C   LIG    1       -4.250   3.991   1.964  0.00  0.00    +0.250 C 
BRANCH  17  18
ATOM     18  C   LIG    1       -4.952   4.992   1.044  0.00  0.00    +0.010 C 
BRANCH  18  20
ATOM     19  C   LIG    1       -5.601   7.387   0.752  0.00  0.00    +0.030 C 
ATOM     20  C   LIG    1       -4.900   6.386   1.672  0.00  0.00    +0.020 C 
ENDBRANCH  18  20
ENDBRANCH  17  18
ENDBRANCH  15  17
ENDBRANCH   1  15
BRANCH   4  21
ATOM     21  C   LIG    1       -2.385  -1.766   4.187  0.00  0.00    +0.270 C 
ATOM     22  N   LIG    1       -1.996  -2.663   4.765  0.00  0.00    -0.400 NA
ENDBRANCH   4  21
BRANCH   2  23
ATOM     23  C   LIG    1       -2.035   1.364   0.358  0.00  0.00    +0.170 C 
BRANCH  23  24
ATOM     24  C   LIG    1       -0.898   2.283   0.724  0.00  0.00    -0.070 A 
ATOM     25  C   LIG    1        0.364   1.765   0.951  0.00  0.00    +0.030 A 
ATOM     26  C   LIG    1        1.408   2.607   1.281  0.00  0.00    +0.020 A 
ATOM     27  C   LIG    1        1.190   3.969   1.391  0.00  0.00    -0.040 A 
ATOM     28  C   LIG    1       -0.074   4.487   1.170  0.00  0.00    +0.020 A 
ATOM     29 CL   LIG    1        2.501   5.028   1.805  0.00  0.00    -0.070 Cl
ATOM     30  C   LIG    1       -1.118   3.643   0.839  0.00  0.00    +0.030 A 
ENDBRANCH  23  24
ENDBRANCH   2  23
TORSDOF 7
