REMARK  Name = ZINCpe000000USLz.0
REMARK                            x       y       z     vdW  Elec       q    Type
REMARK                         _______ _______ _______ _____ _____    ______ ____
ROOT
ATOM      1  N   LIG    1       -2.601   0.342   1.359  0.00  0.00    -0.720 N 
ATOM      2  H   LIG    1       -3.191   0.666   2.057  0.00  0.00    +0.410 HD
ATOM      3  C   LIG    1       -1.825  -0.737   1.581  0.00  0.00    +0.510 C 
ATOM      4  O   LIG    1       -1.153  -1.196   0.681  0.00  0.00    -0.530 OA
ENDROOT
BRANCH   1   5
ATOM      5  C   LIG    1       -2.554   1.024   0.064  0.00  0.00    +0.320 C 
BRANCH   5   6
ATOM      6  C   LIG    1       -3.816   1.825  -0.128  0.00  0.00    -0.100 A 
ATOM      7  C   LIG    1       -4.366   2.515   0.937  0.00  0.00    +0.000 A 
ATOM      8  C   LIG    1       -5.521   3.253   0.760  0.00  0.00    +0.000 A 
ATOM      9  C   LIG    1       -6.131   3.295  -0.480  0.00  0.00    +0.010 A 
ATOM     10  C   LIG    1       -5.585   2.601  -1.543  0.00  0.00    +0.000 A 
ATOM     11  C   LIG    1       -4.427   1.866  -1.367  0.00  0.00    +0.070 A 
ENDBRANCH   5   6
BRANCH   5  12
ATOM     12  C   LIG    1       -1.345   1.961   0.024  0.00  0.00    +0.050 C 
BRANCH  12  16
ATOM     13  C   LIG    1       -0.149   4.061  -2.944  0.00  0.00    +0.290 C 
ATOM     14  N   LIG    1       -0.285   3.497  -1.599  0.00  0.00    -0.740 N 
ATOM     15  H   LIG    1        0.283   3.815  -0.880  0.00  0.00    +0.400 HD
ATOM     16  C   LIG    1       -1.200   2.537  -1.361  0.00  0.00    +0.520 C 
ATOM     17  O   LIG    1       -1.911   2.139  -2.260  0.00  0.00    -0.530 OA
ENDBRANCH  12  16
ENDBRANCH   5  12
ENDBRANCH   1   5
BRANCH   3  18
ATOM     18  C   LIG    1       -1.790  -1.373   2.946  0.00  0.00    +0.320 C 
BRANCH  18  19
ATOM     19  N   LIG    1       -0.878  -2.520   2.929  0.00  0.00    -0.710 N 
ATOM     20  H   LIG    1       -0.411  -2.756   2.111  0.00  0.00    +0.410 HD
ATOM     21  C   LIG    1       -0.687  -3.246   4.047  0.00  0.00    +0.560 C 
ATOM     22  O   LIG    1       -1.272  -2.951   5.071  0.00  0.00    -0.530 OA
BRANCH  21  23
ATOM     23  C   LIG    1        0.235  -4.405   4.029  0.00  0.00    -0.090 A 
ATOM     24  C   LIG    1        0.913  -4.766   2.861  0.00  0.00    +0.000 A 
ATOM     25  C   LIG    1        1.768  -5.851   2.890  0.00  0.00    +0.260 A 
ATOM     26  N   LIG    1        1.940  -6.548   3.996  0.00  0.00    -0.470 NA
ATOM     27  C   LIG    1        1.316  -6.245   5.117  0.00  0.00    +0.270 A 
ATOM     28  C   LIG    1        0.448  -5.173   5.179  0.00  0.00    +0.040 A 
ENDBRANCH  21  23
ENDBRANCH  18  19
ENDBRANCH   3  18
TORSDOF 7
