REMARK  Name = ZINCkj000005haCZ.1
REMARK                            x       y       z     vdW  Elec       q    Type
REMARK                         _______ _______ _______ _____ _____    ______ ____
ROOT
ATOM      1  N   LIG    1        2.323   3.765  -0.001  0.00  0.00    -0.670 NA
ATOM      2  H   LIG    1        2.333   4.735   0.004  0.00  0.00    +0.440 HD
ENDROOT
BRANCH   1   7
ATOM      3  C   LIG    1       -1.187   3.154   0.030  0.00  0.00    +0.510 C 
ATOM      4  C   LIG    1       -1.214   1.758   0.017  0.00  0.00    -0.090 C 
ATOM      5  C   LIG    1       -0.013   1.076   0.008  0.00  0.00    +0.420 C 
ATOM      6  N   LIG    1        1.121   1.761   0.001  0.00  0.00    -0.580 NA
ATOM      7  C   LIG    1        1.117   3.086   0.008  0.00  0.00    +0.660 C 
ATOM      8  H   LIG    1        1.967   1.286  -0.010  0.00  0.00    +0.440 HD
ATOM      9  N   LIG    1       -0.013   3.777   0.022  0.00  0.00    -0.580 NA
BRANCH   3  11
ATOM     10  C   LIG    1       -3.652   3.185   0.164  0.00  0.00    +0.330 C 
ATOM     11  N   LIG    1       -2.368   3.879   0.045  0.00  0.00    -0.550 NA
ATOM     12  C   LIG    1       -2.331   5.340  -0.059  0.00  0.00    +0.330 C 
ENDBRANCH   3  11
ENDBRANCH   1   7
BRANCH   1  13
ATOM     13  C   LIG    1        3.583   3.019  -0.017  0.00  0.00    +0.280 C 
BRANCH  13  14
ATOM     14  C   LIG    1        4.757   4.000  -0.023  0.00  0.00    +0.050 C 
BRANCH  14  15
ATOM     15  C   LIG    1        6.074   3.221  -0.040  0.00  0.00    +0.190 C 
BRANCH  15  16
ATOM     16  O   LIG    1        7.170   4.138  -0.046  0.00  0.00    -0.380 OA
BRANCH  16  17
ATOM     17  C   LIG    1        8.453   3.509  -0.062  0.00  0.00    +0.190 C 
BRANCH  17  18
ATOM     18  C   LIG    1        9.545   4.580  -0.067  0.00  0.00    -0.020 C 
ATOM     19  C   LIG    1       10.951   3.936  -0.136  0.00  0.00    +0.010 C 
ATOM     20  C   LIG    1       11.800   4.774   0.840  0.00  0.00    +0.200 C 
ATOM     21  O   LIG    1       10.953   5.814   1.357  0.00  0.00    -0.380 OA
ATOM     22  C   LIG    1        9.596   5.326   1.291  0.00  0.00    +0.220 C 
ENDBRANCH  17  18
ENDBRANCH  16  17
ENDBRANCH  15  16
ENDBRANCH  14  15
ENDBRANCH  13  14
ENDBRANCH   1  13
TORSDOF 8
