REMARK  Name = ZINCpk000004AN46.0
REMARK                            x       y       z     vdW  Elec       q    Type
REMARK                         _______ _______ _______ _____ _____    ______ ____
ROOT
ATOM      1  C   LIG    1       -4.093   0.978  -2.617  0.00  0.00    +0.560 C 
ATOM      2  N   LIG    1       -2.929   1.598  -2.339  0.00  0.00    -0.720 N 
ATOM      3  H   LIG    1       -2.555   2.232  -2.970  0.00  0.00    +0.410 HD
ATOM      4  O   LIG    1       -4.563   0.183  -1.827  0.00  0.00    -0.520 OA
ENDROOT
BRANCH   2   5
ATOM      5  C   LIG    1       -2.230   1.313  -1.084  0.00  0.00    +0.240 C 
ATOM      6  C   LIG    1       -0.736   1.604  -1.255  0.00  0.00    +0.040 C 
ATOM      7  C   LIG    1        0.024   1.091  -0.024  0.00  0.00    +0.180 C 
ATOM      8  C   LIG    1       -0.688   1.589   1.210  0.00  0.00    +0.270 A 
ATOM      9  N   LIG    1       -0.238   1.630   2.432  0.00  0.00    -0.530 NA
ATOM     10  C   LIG    1       -1.171   2.139   3.239  0.00  0.00    +0.220 A 
ATOM     11  N   LIG    1       -2.235   2.429   2.532  0.00  0.00    -0.310 NA
ATOM     12  C   LIG    1       -1.024   2.347   4.725  0.00  0.00    +0.190 C 
ATOM     13  N   LIG    1       -1.943   2.078   1.211  0.00  0.00    -0.370 N 
ATOM     14  C   LIG    1       -2.799   2.199   0.030  0.00  0.00    +0.310 C 
ENDBRANCH   2   5
BRANCH   1  18
ATOM     15  C   LIG    1       -6.122   1.804  -6.256  0.00  0.00    +0.170 A 
ATOM     16  C   LIG    1       -6.661   0.893  -5.352  0.00  0.00    +0.020 A 
ATOM     17  C   LIG    1       -6.005   0.623  -4.172  0.00  0.00    +0.100 A 
ATOM     18  C   LIG    1       -4.798   1.265  -3.882  0.00  0.00    -0.140 A 
ATOM     19  C   LIG    1       -4.263   2.183  -4.789  0.00  0.00    +0.060 A 
ATOM     20  C   LIG    1       -4.921   2.445  -5.970  0.00  0.00    +0.000 A 
BRANCH  15  22
ATOM     21  C   LIG    1       -6.928   1.108  -8.378  0.00  0.00    +0.550 C 
ATOM     22  N   LIG    1       -6.788   2.075  -7.450  0.00  0.00    -0.580 N 
ATOM     23  C   LIG    1       -7.335   3.412  -7.697  0.00  0.00    +0.300 C 
ATOM     24  O   LIG    1       -6.560  -0.026  -8.135  0.00  0.00    -0.520 OA
BRANCH  21  26
ATOM     25  C   LIG    1       -7.664   0.468 -10.599  0.00  0.00    +0.160 C 
ATOM     26  C   LIG    1       -7.526   1.423  -9.684  0.00  0.00    -0.090 C 
ENDBRANCH  21  26
ENDBRANCH  15  22
ENDBRANCH   1  18
TORSDOF 4
