REMARK  Name = ZINCrH000004n5BP.0
REMARK                            x       y       z     vdW  Elec       q    Type
REMARK                         _______ _______ _______ _____ _____    ______ ____
ROOT
ATOM      1  C   LIG    1       -2.401   8.259  -2.932  0.00  0.00    +0.280 C 
ATOM      2  C   LIG    1       -3.389   9.423  -2.707  0.00  0.00    +0.050 C 
ATOM      3  C   LIG    1       -3.033   9.909  -1.277  0.00  0.00    +0.040 C 
ATOM      4  C   LIG    1       -2.675   8.572  -0.576  0.00  0.00    +0.240 C 
ATOM      5  N   LIG    1       -1.977   7.784  -1.607  0.00  0.00    -0.620 N 
ATOM      6  C   LIG    1       -1.099   6.787  -1.374  0.00  0.00    +0.530 C 
ATOM      7  O   LIG    1       -0.587   6.201  -2.303  0.00  0.00    -0.510 OA
ENDROOT
BRANCH   1  11
ATOM      8  C   LIG    1       -4.339   5.095  -5.060  0.00  0.00    +0.170 A 
ATOM      9  C   LIG    1       -4.313   5.090  -3.673  0.00  0.00    -0.110 A 
ATOM     10  C   LIG    1       -3.682   6.111  -2.988  0.00  0.00    +0.090 A 
ATOM     11  C   LIG    1       -3.084   7.144  -3.682  0.00  0.00    -0.150 A 
ATOM     12  C   LIG    1       -3.107   7.155  -5.070  0.00  0.00    +0.180 A 
ATOM     13  C   LIG    1       -3.735   6.129  -5.759  0.00  0.00    -0.100 A 
BRANCH   8  15
ATOM     14  C   LIG    1       -5.556   3.056  -4.948  0.00  0.00    +0.250 C 
ATOM     15  O   LIG    1       -4.955   4.088  -5.733  0.00  0.00    -0.320 OA
ENDBRANCH   8  15
BRANCH  12  16
ATOM     16  O   LIG    1       -2.513   8.169  -5.752  0.00  0.00    -0.310 OA
ATOM     17  C   LIG    1       -2.576   8.115  -7.179  0.00  0.00    +0.250 C 
ENDBRANCH  12  16
ENDBRANCH   1  11
BRANCH   6  18
ATOM     18  C   LIG    1       -0.755   6.403   0.042  0.00  0.00    +0.170 C 
BRANCH  18  19
ATOM     19  C   LIG    1        0.241   5.272   0.027  0.00  0.00    +0.150 A 
ATOM     20  N   LIG    1        1.533   5.386   0.016  0.00  0.00    -0.270 NA
ATOM     21  O   LIG    1        2.126   4.103   0.004  0.00  0.00    -0.090 OA
ATOM     22  C   LIG    1        1.159   3.164   0.007  0.00  0.00    +0.090 A 
ATOM     23  C   LIG    1        1.175   1.775   0.000  0.00  0.00    +0.020 A 
ATOM     24  C   LIG    1       -0.013   1.076   0.008  0.00  0.00    +0.080 A 
ATOM     25  C   LIG    1       -1.227   1.747   0.017  0.00  0.00    -0.010 A 
ATOM     26  C   LIG    1       -1.265   3.113   0.030  0.00  0.00    +0.090 A 
ATOM     27  C   LIG    1       -0.073   3.840   0.022  0.00  0.00    -0.190 A 
ENDBRANCH  18  19
ENDBRANCH   6  18
TORSDOF 5
