REMARK  Name = ZINCqH0000000uEh.0
REMARK                            x       y       z     vdW  Elec       q    Type
REMARK                         _______ _______ _______ _____ _____    ______ ____
ROOT
ATOM      1  C   LIG    1        0.175   5.620   0.054  0.00  0.00    +0.430 C 
ATOM      2  O   LIG    1        1.277   6.128   0.030  0.00  0.00    -0.440 OA
ENDROOT
BRANCH   1   3
ATOM      3  C   LIG    1       -1.021   6.465   0.083  0.00  0.00    -0.240 A 
ATOM      4  C   LIG    1       -1.063   7.847   0.092  0.00  0.00    +0.120 A 
ATOM      5  N   LIG    1       -2.357   8.227   0.116  0.00  0.00    -0.360 N 
ATOM      6  C   LIG    1       -3.174   7.130   0.133  0.00  0.00    +0.040 A 
ATOM      7  C   LIG    1       -4.680   7.163   0.167  0.00  0.00    +0.150 C 
ATOM      8  C   LIG    1        0.129   8.769   0.074  0.00  0.00    +0.160 C 
ATOM      9  C   LIG    1       -2.420   6.018   0.114  0.00  0.00    +0.010 A 
BRANCH   5  10
ATOM     10  C   LIG    1       -2.798   9.548   0.128  0.00  0.00    +0.220 A 
ATOM     11  N   LIG    1       -3.668  10.032   0.958  0.00  0.00    -0.460 NA
ATOM     12  C   LIG    1       -3.969  11.310   0.831  0.00  0.00    +0.240 A 
ATOM     13  C   LIG    1       -3.329  11.934  -0.162  0.00  0.00    -0.060 A 
ATOM     14  S   LIG    1       -2.276  10.765  -0.954  0.00  0.00    +0.190 S 
ENDBRANCH   5  10
ENDBRANCH   1   3
BRANCH   1  15
ATOM     15  C   LIG    1        0.037   4.120   0.054  0.00  0.00    +0.220 C 
BRANCH  15  16
ATOM     16  O   LIG    1        1.335   3.522   0.024  0.00  0.00    -0.300 OA
BRANCH  16  22
ATOM     17  C   LIG    1        2.621   1.513  -0.009  0.00  0.00    +0.120 A 
ATOM     18  C   LIG    1        2.669   0.128  -0.013  0.00  0.00    +0.060 A 
ATOM     19  C   LIG    1        1.497  -0.605   0.012  0.00  0.00    +0.000 A 
ATOM     20  C   LIG    1        0.275   0.040   0.041  0.00  0.00    +0.030 A 
ATOM     21  C   LIG    1        0.219   1.422   0.045  0.00  0.00    -0.060 A 
ATOM     22  C   LIG    1        1.389   2.163   0.020  0.00  0.00    +0.100 A 
BRANCH  17  25
ATOM     23  C   LIG    1        6.179   2.556  -0.669  0.00  0.00    +0.110 C 
ATOM     24  C   LIG    1        4.927   1.725  -0.562  0.00  0.00    +0.510 C 
ATOM     25  N   LIG    1        3.807   2.258  -0.033  0.00  0.00    -0.660 N 
ATOM     26  H   LIG    1        3.823   3.157   0.330  0.00  0.00    +0.420 HD
ATOM     27  O   LIG    1        4.926   0.576  -0.951  0.00  0.00    -0.530 OA
ENDBRANCH  17  25
ENDBRANCH  16  22
ENDBRANCH  15  16
ENDBRANCH   1  15
TORSDOF 6
