REMARK  Name = ZINCtV00000L6l4W.0
REMARK                            x       y       z     vdW  Elec       q    Type
REMARK                         _______ _______ _______ _____ _____    ______ ____
ROOT
ATOM      1  C   LIG    1        0.072   2.468   4.824  0.00  0.00    +0.130 A 
ATOM      2  C   LIG    1       -0.203   3.608   5.618  0.00  0.00    -0.040 A 
ATOM      3  C   LIG    1       -1.213   4.522   5.304  0.00  0.00    +0.050 A 
ATOM      4  C   LIG    1       -1.423   5.595   6.120  0.00  0.00    +0.050 A 
ATOM      5  C   LIG    1       -0.652   5.789   7.263  0.00  0.00    +0.040 A 
ATOM      6  C   LIG    1        0.337   4.913   7.602  0.00  0.00    +0.070 A 
ATOM      7  C   LIG    1        0.579   3.802   6.786  0.00  0.00    -0.080 A 
ATOM      8  C   LIG    1        1.584   2.851   7.069  0.00  0.00    +0.290 A 
ATOM      9  N   LIG    1        1.749   1.830   6.248  0.00  0.00    -0.310 NA
ATOM     10  N   LIG    1        1.042   1.649   5.196  0.00  0.00    -0.210 NA
ENDROOT
BRANCH   1  15
ATOM     11  C   LIG    1       -2.953   1.425   0.038  0.00  0.00    +0.090 C 
ATOM     12  C   LIG    1       -2.163   1.699   1.292  0.00  0.00    -0.070 A 
ATOM     13  C   LIG    1       -1.716   2.980   1.559  0.00  0.00    +0.010 A 
ATOM     14  C   LIG    1       -0.988   3.236   2.703  0.00  0.00    +0.030 A 
ATOM     15  C   LIG    1       -0.709   2.200   3.594  0.00  0.00    -0.040 A 
ATOM     16  C   LIG    1       -1.167   0.911   3.323  0.00  0.00    +0.060 A 
ATOM     17  C   LIG    1       -1.894   0.668   2.175  0.00  0.00    -0.090 A 
ATOM     18  C   LIG    1       -2.390  -0.724   1.880  0.00  0.00    +0.090 C 
ENDBRANCH   1  15
BRANCH   8  19
ATOM     19  O   LIG    1        2.366   2.984   8.167  0.00  0.00    -0.230 OA
BRANCH  19  20
ATOM     20  C   LIG    1        3.389   2.105   8.333  0.00  0.00    +0.090 A 
ATOM     21  C   LIG    1        3.280   1.079   9.260  0.00  0.00    +0.060 A 
ATOM     22  C   LIG    1        4.319   0.183   9.423  0.00  0.00    +0.050 A 
ATOM     23  C   LIG    1        5.471   0.315   8.670  0.00  0.00    +0.080 A 
ATOM     24  C   LIG    1        5.584   1.340   7.748  0.00  0.00    -0.170 A 
ATOM     25  C   LIG    1        4.546   2.235   7.578  0.00  0.00    +0.070 A 
BRANCH  24  26
ATOM     26  C   LIG    1        6.842   1.480   6.929  0.00  0.00    +0.510 C 
ATOM     27  F   LIG    1        6.530   2.051   5.691  0.00  0.00    -0.170 F 
ATOM     28  F   LIG    1        7.413   0.219   6.731  0.00  0.00    -0.170 F 
ATOM     29  F   LIG    1        7.749   2.302   7.606  0.00  0.00    -0.170 F 
ENDBRANCH  24  26
ENDBRANCH  19  20
ENDBRANCH   8  19
TORSDOF 4
