REMARK  Name = ZINCqH0000038BMs.0
REMARK                            x       y       z     vdW  Elec       q    Type
REMARK                         _______ _______ _______ _____ _____    ______ ____
ROOT
ATOM      1  C   LIG    1       -2.415  -0.379  -0.786  0.00  0.00    +0.600 C 
ATOM      2  N   LIG    1       -2.418   0.957  -0.969  0.00  0.00    -0.660 N 
ATOM      3  H   LIG    1       -3.237   1.461  -0.844  0.00  0.00    +0.420 HD
ATOM      4  O   LIG    1       -1.369  -0.999  -0.850  0.00  0.00    -0.490 OA
ENDROOT
BRANCH   2   5
ATOM      5  C   LIG    1       -1.240   1.615  -1.340  0.00  0.00    +0.160 A 
ATOM      6  C   LIG    1       -0.995   2.905  -0.887  0.00  0.00    +0.010 A 
ATOM      7  C   LIG    1        0.170   3.557  -1.247  0.00  0.00    +0.040 A 
ATOM      8  C   LIG    1        1.091   2.924  -2.065  0.00  0.00    +0.080 A 
ATOM      9  N   LIG    1        2.279   3.571  -2.439  0.00  0.00    -0.660 N 
ATOM     10  H   LIG    1        2.580   4.362  -1.965  0.00  0.00    +0.420 HD
ATOM     11  C   LIG    1        2.998   3.075  -3.470  0.00  0.00    +0.490 C 
ATOM     12  C   LIG    1        2.495   1.867  -4.219  0.00  0.00    +0.300 C 
ATOM     13  O   LIG    1        1.757   1.023  -3.331  0.00  0.00    -0.300 OA
ATOM     14  O   LIG    1        4.043   3.599  -3.792  0.00  0.00    -0.510 OA
ATOM     15  C   LIG    1        0.844   1.631  -2.527  0.00  0.00    +0.100 A 
ATOM     16  C   LIG    1       -0.321   0.980  -2.166  0.00  0.00    +0.040 A 
ENDBRANCH   2   5
BRANCH   1  20
ATOM     17  C   LIG    1       -7.306  -0.716  -0.233  0.00  0.00    +0.180 C 
ATOM     18  C   LIG    1       -5.887  -1.222  -0.263  0.00  0.00    +0.040 A 
ATOM     19  N   LIG    1       -4.861  -0.494  -0.521  0.00  0.00    -0.450 NA
ATOM     20  C   LIG    1       -3.673  -1.086  -0.510  0.00  0.00    +0.010 A 
ATOM     21  C   LIG    1       -3.738  -2.432  -0.218  0.00  0.00    -0.110 A 
ATOM     22  S   LIG    1       -5.432  -2.840   0.042  0.00  0.00    +0.190 S 
BRANCH  21  23
ATOM     23  C   LIG    1       -2.594  -3.363  -0.136  0.00  0.00    -0.030 A 
ATOM     24  C   LIG    1       -2.572  -4.518  -0.921  0.00  0.00    +0.020 A 
ATOM     25  C   LIG    1       -1.498  -5.380  -0.843  0.00  0.00    +0.010 A 
ATOM     26  C   LIG    1       -0.450  -5.109   0.018  0.00  0.00    +0.030 A 
ATOM     27  C   LIG    1       -0.467  -3.969   0.802  0.00  0.00    +0.010 A 
ATOM     28  C   LIG    1       -1.532  -3.095   0.730  0.00  0.00    +0.070 A 
ENDBRANCH  21  23
ENDBRANCH   1  20
TORSDOF 3
