REMARK  Name = ZINCrH000004tlEt.0
REMARK                            x       y       z     vdW  Elec       q    Type
REMARK                         _______ _______ _______ _____ _____    ______ ____
ROOT
ATOM      1  N   LIG    1        2.729   4.344  -1.377  0.00  0.00    -0.740 N 
ATOM      2  H   LIG    1        2.153   4.070  -2.108  0.00  0.00    +0.400 HD
ATOM      3  C   LIG    1        3.842   5.061  -1.629  0.00  0.00    +0.740 C 
ATOM      4  N   LIG    1        4.154   5.398  -2.897  0.00  0.00    -0.640 N 
ATOM      5  C   LIG    1        3.402   5.063  -4.113  0.00  0.00    +0.280 C 
ATOM      6  C   LIG    1        4.145   5.662  -5.278  0.00  0.00    +0.000 C 
ATOM      7  C   LIG    1        5.229   6.284  -4.845  0.00  0.00    -0.090 C 
ATOM      8  C   LIG    1        5.320   6.171  -3.346  0.00  0.00    +0.320 C 
ATOM      9  O   LIG    1        4.565   5.404  -0.714  0.00  0.00    -0.580 OA
ENDROOT
BRANCH   7  10
ATOM     10  C   LIG    1        6.204   6.984  -5.703  0.00  0.00    -0.030 A 
ATOM     11  C   LIG    1        6.225   8.369  -5.754  0.00  0.00    +0.040 A 
ATOM     12  C   LIG    1        7.146   9.034  -6.555  0.00  0.00    +0.010 A 
ATOM     13  C   LIG    1        8.041   8.349  -7.320  0.00  0.00    +0.030 A 
ATOM     14  C   LIG    1        8.052   6.943  -7.304  0.00  0.00    -0.050 A 
ATOM     15  C   LIG    1        8.966   6.214  -8.083  0.00  0.00    +0.030 A 
ATOM     16  C   LIG    1        8.950   4.853  -8.043  0.00  0.00    +0.000 A 
ATOM     17  C   LIG    1        8.038   4.171  -7.241  0.00  0.00    +0.010 A 
ATOM     18  C   LIG    1        7.138   4.846  -6.473  0.00  0.00    +0.020 A 
ATOM     19  C   LIG    1        7.126   6.248  -6.489  0.00  0.00    -0.030 A 
ENDBRANCH   7  10
BRANCH   1  20
ATOM     20  C   LIG    1        2.391   3.977   0.000  0.00  0.00    +0.370 C 
BRANCH  20  24
ATOM     21  C   LIG    1       -1.224   1.778   0.017  0.00  0.00    -0.070 A 
ATOM     22  C   LIG    1       -0.013   1.076   0.008  0.00  0.00    +0.120 A 
ATOM     23  C   LIG    1        1.166   1.802   0.001  0.00  0.00    +0.000 A 
ATOM     24  C   LIG    1        1.110   3.184   0.008  0.00  0.00    +0.130 A 
ATOM     25  N   LIG    1       -0.047   3.819   0.022  0.00  0.00    -0.460 NA
ATOM     26  C   LIG    1       -1.195   3.174   0.030  0.00  0.00    +0.330 A 
BRANCH  21  28
ATOM     27  N   LIG    1       -3.463   0.519   0.022  0.00  0.00    -0.400 NA
ATOM     28  C   LIG    1       -2.472   1.076   0.020  0.00  0.00    +0.250 C 
ENDBRANCH  21  28
ENDBRANCH  20  24
ENDBRANCH   1  20
TORSDOF 4
