REMARK  Name = ZINCvU00000006tv.0
REMARK                            x       y       z     vdW  Elec       q    Type
REMARK                         _______ _______ _______ _____ _____    ______ ____
ROOT
ATOM      1  C   LIG    1        3.521   6.179   0.566  0.00  0.00    +0.120 A 
ATOM      2  C   LIG    1        4.717   5.539   0.268  0.00  0.00    +0.060 A 
ATOM      3  C   LIG    1        5.906   6.240   0.320  0.00  0.00    -0.030 A 
ATOM      4  C   LIG    1        5.907   7.579   0.680  0.00  0.00    +0.100 A 
ATOM      5  C   LIG    1        4.713   8.218   0.983  0.00  0.00    -0.070 A 
ATOM      6  C   LIG    1        3.523   7.521   0.927  0.00  0.00    +0.040 A 
ENDROOT
BRANCH   1   8
ATOM      7  C   LIG    1        2.151   4.493  -0.402  0.00  0.00    +0.580 C 
ATOM      8  N   LIG    1        2.315   5.472   0.509  0.00  0.00    -0.650 N 
ATOM      9  H   LIG    1        1.597   5.686   1.126  0.00  0.00    +0.420 HD
ATOM     10  O   LIG    1        3.011   4.288  -1.236  0.00  0.00    -0.480 OA
BRANCH   7  14
ATOM     11  O   LIG    1       -0.552   0.854  -1.950  0.00  0.00    -0.440 OA
ATOM     12  C   LIG    1       -0.447   1.883  -1.306  0.00  0.00    +0.420 A 
ATOM     13  C   LIG    1        0.786   2.689  -1.317  0.00  0.00    -0.030 A 
ATOM     14  C   LIG    1        0.922   3.666  -0.387  0.00  0.00    +0.090 A 
ATOM     15  O   LIG    1       -0.008   3.915   0.544  0.00  0.00    -0.220 OA
ATOM     16  C   LIG    1       -1.260   3.430   0.443  0.00  0.00    +0.150 A 
ATOM     17  C   LIG    1       -2.284   3.938   1.235  0.00  0.00    +0.010 A 
ATOM     18  C   LIG    1       -3.559   3.425   1.125  0.00  0.00    +0.090 A 
ATOM     19  C   LIG    1       -3.839   2.401   0.231  0.00  0.00    +0.000 A 
ATOM     20  C   LIG    1       -2.841   1.885  -0.566  0.00  0.00    +0.110 A 
ATOM     21  C   LIG    1       -1.551   2.401  -0.472  0.00  0.00    -0.220 A 
ENDBRANCH   7  14
ENDBRANCH   1   8
BRANCH   5  22
ATOM     22  C   LIG    1        4.716   9.674   1.375  0.00  0.00    +0.150 C 
BRANCH  22  23
ATOM     23  C   LIG    1        4.691  10.527   0.133  0.00  0.00    -0.080 A 
ATOM     24  C   LIG    1        5.876  10.927  -0.455  0.00  0.00    +0.010 A 
ATOM     25  C   LIG    1        5.852  11.707  -1.597  0.00  0.00    +0.000 A 
ATOM     26  C   LIG    1        4.644  12.094  -2.144  0.00  0.00    +0.000 A 
ATOM     27  C   LIG    1        3.458  11.699  -1.553  0.00  0.00    +0.000 A 
ATOM     28  C   LIG    1        3.482  10.915  -0.414  0.00  0.00    +0.010 A 
ENDBRANCH  22  23
ENDBRANCH   5  22
BRANCH   4  29
ATOM     29  O   LIG    1        7.079   8.267   0.735  0.00  0.00    -0.310 OA
BRANCH  29  30
ATOM     30  C   LIG    1        8.270   7.547   0.410  0.00  0.00    +0.590 C 
ATOM     31  F   LIG    1        8.179   7.063  -0.900  0.00  0.00    -0.200 F 
ATOM     32  F   LIG    1        8.421   6.473   1.294  0.00  0.00    -0.200 F 
ENDBRANCH  29  30
ENDBRANCH   4  29
TORSDOF 6
