REMARK  Name = ZINCpk00000xI9Fn.0
REMARK                            x       y       z     vdW  Elec       q    Type
REMARK                         _______ _______ _______ _____ _____    ______ ____
ROOT
ATOM      1  C   LIG    1        3.555   2.059  -0.020  0.00  0.00    +0.520 C 
ATOM      2  N   LIG    1        4.807   1.561  -0.038  0.00  0.00    -0.660 N 
ATOM      3  H   LIG    1        4.949   0.603   0.026  0.00  0.00    +0.430 HD
ATOM      4  O   LIG    1        3.379   3.258   0.003  0.00  0.00    -0.490 OA
ENDROOT
BRANCH   2   5
ATOM      5  C   LIG    1        5.897   2.421  -0.147  0.00  0.00    +0.220 A 
ATOM      6  C   LIG    1        5.746   3.665  -0.745  0.00  0.00    +0.010 A 
ATOM      7  C   LIG    1        6.828   4.516  -0.853  0.00  0.00    +0.090 A 
ATOM      8  C   LIG    1        8.069   4.138  -0.367  0.00  0.00    -0.010 A 
ATOM      9  C   LIG    1        8.238   2.907   0.229  0.00  0.00    +0.100 A 
ATOM     10  C   LIG    1        7.152   2.037   0.350  0.00  0.00    -0.170 A 
BRANCH  10  11
ATOM     11  C   LIG    1        7.323   0.721   0.992  0.00  0.00    +0.520 C 
ATOM     12  O   LIG    1        6.402  -0.071   1.012  0.00  0.00    -0.520 OA
BRANCH  11  13
ATOM     13  O   LIG    1        8.503   0.396   1.557  0.00  0.00    -0.350 OA
BRANCH  13  14
ATOM     14  C   LIG    1        8.600  -0.917   2.171  0.00  0.00    +0.200 C 
ATOM     15  C   LIG    1       10.002  -1.104   2.755  0.00  0.00    +0.070 C 
ENDBRANCH  13  14
ENDBRANCH  11  13
ENDBRANCH  10  11
ENDBRANCH   2   5
BRANCH   1  16
ATOM     16  C   LIG    1        2.372   1.124  -0.027  0.00  0.00    +0.270 C 
BRANCH  16  17
ATOM     17  O   LIG    1        1.144   1.898  -0.004  0.00  0.00    -0.320 OA
BRANCH  17  18
ATOM     18  C   LIG    1       -0.014   1.209  -0.007  0.00  0.00    +0.500 C 
ATOM     19  O   LIG    1        0.003  -0.005  -0.028  0.00  0.00    -0.490 OA
BRANCH  18  21
ATOM     20  C   LIG    1       -2.456   1.242   0.000  0.00  0.00    +0.070 C 
ATOM     21  C   LIG    1       -1.302   1.929   0.009  0.00  0.00    +0.070 C 
BRANCH  20  22
ATOM     22  C   LIG    1       -3.744   1.962   0.016  0.00  0.00    +0.490 C 
ATOM     23  O   LIG    1       -3.760   3.176   0.037  0.00  0.00    -0.490 OA
BRANCH  22  24
ATOM     24  O   LIG    1       -4.901   1.272   0.007  0.00  0.00    -0.350 OA
BRANCH  24  26
ATOM     25  C   LIG    1       -7.330   1.098   0.011  0.00  0.00    +0.070 C 
ATOM     26  C   LIG    1       -6.130   2.046   0.024  0.00  0.00    +0.200 C 
ENDBRANCH  24  26
ENDBRANCH  22  24
ENDBRANCH  20  22
ENDBRANCH  18  21
ENDBRANCH  17  18
ENDBRANCH  16  17
ENDBRANCH   1  16
TORSDOF 11
