REMARK  Name = ZINCpe000000Yxza.0
REMARK                            x       y       z     vdW  Elec       q    Type
REMARK                         _______ _______ _______ _____ _____    ______ ____
ROOT
ATOM      1  C   LIG    1       -2.057   3.710  -2.381  0.00  0.00    +0.230 C 
ENDROOT
BRANCH   1   2
ATOM      2  C   LIG    1       -1.321   3.216  -1.162  0.00  0.00    +0.520 C 
ATOM      3  N   LIG    1       -0.734   2.003  -1.175  0.00  0.00    -0.720 N 
ATOM      4  H   LIG    1       -0.785   1.448  -1.968  0.00  0.00    +0.400 HD
ATOM      5  O   LIG    1       -1.258   3.910  -0.169  0.00  0.00    -0.520 OA
BRANCH   3   6
ATOM      6  C   LIG    1       -0.019   1.523   0.010  0.00  0.00    +0.290 C 
ATOM      7  C   LIG    1        0.002  -0.004   0.002  0.00  0.00    +0.020 C 
ATOM      8  C   LIG    1        0.933  -0.481   1.123  0.00  0.00    +0.030 C 
ATOM      9  C   LIG    1        2.370  -0.139   0.733  0.00  0.00    +0.080 C 
ATOM     10  C   LIG    1        2.481   1.310   0.335  0.00  0.00    -0.070 A 
ATOM     11  C   LIG    1        3.747   1.879   0.311  0.00  0.00    -0.010 A 
ATOM     12  C   LIG    1        3.916   3.200  -0.049  0.00  0.00    +0.010 A 
ATOM     13  C   LIG    1        2.815   3.964  -0.389  0.00  0.00    -0.010 A 
ATOM     14  C   LIG    1        1.556   3.401  -0.364  0.00  0.00    +0.020 A 
ATOM     15  C   LIG    1        1.384   2.072   0.000  0.00  0.00    -0.100 A 
ENDBRANCH   3   6
ENDBRANCH   1   2
BRANCH   1  16
ATOM     16  O   LIG    1       -2.588   5.011  -2.122  0.00  0.00    -0.240 OA
BRANCH  16  18
ATOM     17  C   LIG    1       -3.831   6.742  -3.103  0.00  0.00    +0.370 C 
ATOM     18  N   LIG    1       -3.302   5.569  -3.211  0.00  0.00    -0.400 NA
BRANCH  17  19
ATOM     19  N   LIG    1       -3.701   7.451  -1.929  0.00  0.00    -0.870 N 
ATOM     20  H   LIG    1       -4.099   8.332  -1.848  0.00  0.00    +0.400 HD
ATOM     21  H   LIG    1       -3.212   7.069  -1.183  0.00  0.00    +0.410 HD
ENDBRANCH  17  19
BRANCH  17  22
ATOM     22  C   LIG    1       -4.591   7.335  -4.261  0.00  0.00    +0.290 C 
BRANCH  22  23
ATOM     23  N   LIG    1       -4.586   6.390  -5.385  0.00  0.00    -0.520 NA
ATOM     24  C   LIG    1       -3.228   6.215  -5.920  0.00  0.00    +0.160 C 
ATOM     25  C   LIG    1       -3.258   5.180  -7.048  0.00  0.00    +0.230 C 
ATOM     26  O   LIG    1       -4.185   5.604  -8.052  0.00  0.00    -0.390 OA
ATOM     27  C   LIG    1       -5.518   5.784  -7.566  0.00  0.00    +0.220 C 
ATOM     28  C   LIG    1       -5.510   6.825  -6.443  0.00  0.00    +0.160 C 
ENDBRANCH  22  23
ENDBRANCH  17  22
ENDBRANCH  16  18
ENDBRANCH   1  16
TORSDOF 7
