REMARK  Name = ZINCrg00000SjSGm.0
REMARK                            x       y       z     vdW  Elec       q    Type
REMARK                         _______ _______ _______ _____ _____    ______ ____
ROOT
ATOM      1  N   LIG    1       -1.978   0.524  -4.015  0.00  0.00    -0.390 N 
ATOM      2  C   LIG    1       -1.050   1.327  -3.459  0.00  0.00    +0.300 A 
ATOM      3  N   LIG    1       -0.996   2.459  -4.114  0.00  0.00    -0.490 NA
ATOM      4  C   LIG    1       -1.881   2.446  -5.113  0.00  0.00    +0.320 A 
ATOM      5  N   LIG    1       -2.235   3.358  -6.094  0.00  0.00    -0.510 N 
ATOM      6  C   LIG    1       -1.567   4.660  -6.158  0.00  0.00    +0.340 C 
ATOM      7  C   LIG    1       -3.193   3.050  -6.989  0.00  0.00    +0.710 A 
ATOM      8  O   LIG    1       -3.490   3.863  -7.843  0.00  0.00    -0.540 OA
ATOM      9  N   LIG    1       -3.828   1.865  -6.963  0.00  0.00    -0.550 N 
ATOM     10  C   LIG    1       -4.863   1.579  -7.959  0.00  0.00    +0.340 C 
ATOM     11  C   LIG    1       -3.528   0.937  -6.031  0.00  0.00    +0.580 A 
ATOM     12  O   LIG    1       -4.111  -0.133  -6.017  0.00  0.00    -0.470 OA
ATOM     13  C   LIG    1       -2.530   1.218  -5.074  0.00  0.00    -0.150 A 
ENDROOT
BRANCH   1  14
ATOM     14  C   LIG    1       -2.337  -0.827  -3.578  0.00  0.00    +0.220 C 
ATOM     15  C   LIG    1       -3.832  -0.879  -3.256  0.00  0.00    +0.080 C 
BRANCH  14  17
ATOM     16  C   LIG    1       -0.669  -2.463  -4.742  0.00  0.00    +0.070 C 
ATOM     17  C   LIG    1       -2.026  -1.810  -4.677  0.00  0.00    +0.330 C 
ATOM     18  O   LIG    1       -2.863  -2.074  -5.506  0.00  0.00    -0.390 OA
ENDBRANCH  14  17
ENDBRANCH   1  14
BRANCH   2  19
ATOM     19  C   LIG    1       -0.199   0.972  -2.267  0.00  0.00    +0.310 C 
BRANCH  19  20
ATOM     20  N   LIG    1       -0.868   1.418  -1.038  0.00  0.00    -0.530 NA
ATOM     21  C   LIG    1       -0.191   0.885   0.152  0.00  0.00    +0.180 C 
ATOM     22  C   LIG    1       -0.996   1.247   1.403  0.00  0.00    -0.010 C 
ATOM     23  C   LIG    1       -1.119   2.770   1.502  0.00  0.00    +0.020 C 
ATOM     24  C   LIG    1       -1.782   3.304   0.229  0.00  0.00    -0.020 C 
ATOM     25  C   LIG    1       -3.195   2.729   0.110  0.00  0.00    +0.030 C 
ATOM     26  C   LIG    1       -0.279   0.711   2.644  0.00  0.00    +0.020 C 
ATOM     27  C   LIG    1       -0.955   2.883  -0.987  0.00  0.00    +0.180 C 
ENDBRANCH  19  20
ENDBRANCH   2  19
TORSDOF 4
