REMARK  Name = ZINCpk00000y2FKF.0
REMARK                            x       y       z     vdW  Elec       q    Type
REMARK                         _______ _______ _______ _____ _____    ______ ____
ROOT
ATOM      1  C   LIG    1        1.189  -4.662   0.977  0.00  0.00    +0.260 C 
ATOM      2  C   LIG    1        2.129  -4.001  -0.040  0.00  0.00    +0.210 C 
ATOM      3  N   LIG    1        1.234  -2.829  -0.025  0.00  0.00    -0.420 N 
ATOM      4  C   LIG    1        0.848  -3.212   1.345  0.00  0.00    +0.170 C 
ENDROOT
BRANCH   3   5
ATOM      5  C   LIG    1        1.960  -1.651  -0.025  0.00  0.00    +0.340 A 
ATOM      6  C   LIG    1        1.309  -0.409  -0.013  0.00  0.00    +0.030 A 
ATOM      7  C   LIG    1        2.096   0.757  -0.014  0.00  0.00    +0.070 A 
ATOM      8  C   LIG    1        1.205   1.852   0.001  0.00  0.00    +0.290 A 
ATOM      9  N   LIG    1       -0.017   1.397   0.010  0.00  0.00    -0.220 NA
ATOM     10  N   LIG    1        3.429   0.635  -0.027  0.00  0.00    -0.460 NA
ATOM     11  C   LIG    1        3.991  -0.551  -0.039  0.00  0.00    +0.490 A 
ATOM     12  N   LIG    1        0.002  -0.004   0.002  0.00  0.00    -0.370 N 
ATOM     13  C   LIG    1       -1.171  -0.881   0.008  0.00  0.00    +0.360 C 
ATOM     14  N   LIG    1        3.288  -1.671  -0.038  0.00  0.00    -0.520 NA
ENDBRANCH   3   5
BRANCH   1  15
ATOM     15  N   LIG    1        1.878  -5.404   2.037  0.00  0.00    -0.730 N 
ATOM     16  H   LIG    1        2.787  -5.169   2.281  0.00  0.00    +0.410 HD
BRANCH  15  21
ATOM     17  C   LIG    1        1.220  -8.193   4.353  0.00  0.00    -0.080 A 
ATOM     18  C   LIG    1       -0.088  -8.523   3.994  0.00  0.00    +0.020 A 
ATOM     19  C   LIG    1       -0.728  -7.818   2.995  0.00  0.00    +0.050 A 
ATOM     20  C   LIG    1       -0.080  -6.782   2.350  0.00  0.00    -0.030 A 
ATOM     21  C   LIG    1        1.225  -6.449   2.695  0.00  0.00    +0.200 A 
ATOM     22  C   LIG    1        1.877  -7.151   3.698  0.00  0.00    +0.010 A 
BRANCH  17  23
ATOM     23  C   LIG    1        1.908  -8.947   5.422  0.00  0.00    +0.510 C 
ATOM     24  O   LIG    1        3.046  -8.659   5.732  0.00  0.00    -0.500 OA
BRANCH  23  26
ATOM     25  C   LIG    1        2.009 -10.649   7.093  0.00  0.00    +0.260 C 
ATOM     26  O   LIG    1        1.272  -9.953   6.053  0.00  0.00    -0.350 OA
ENDBRANCH  23  26
ENDBRANCH  17  23
ENDBRANCH  15  21
ENDBRANCH   1  15
TORSDOF 5
