REMARK  Name = ZINCpe000000TOLg.0
REMARK                            x       y       z     vdW  Elec       q    Type
REMARK                         _______ _______ _______ _____ _____    ______ ____
ROOT
ATOM      1  N   LIG    1        0.811  -2.601   0.538  0.00  0.00    -0.460 N 
ATOM      2  C   LIG    1        0.975  -2.255  -0.879  0.00  0.00    +0.230 C 
ATOM      3  C   LIG    1        0.669  -0.769  -1.081  0.00  0.00    +0.070 C 
ATOM      4  C   LIG    1       -0.766  -0.482  -0.630  0.00  0.00    +0.090 C 
ATOM      5  C   LIG    1       -0.925  -0.897   0.836  0.00  0.00    +0.050 C 
ATOM      6  C   LIG    1       -0.571  -2.379   0.982  0.00  0.00    +0.220 C 
ENDROOT
BRANCH   1  10
ATOM      7  C   LIG    1        1.969  -6.429   1.245  0.00  0.00    -0.280 A 
ATOM      8  C   LIG    1        2.040  -5.882  -0.044  0.00  0.00    +0.420 A 
ATOM      9  N   LIG    1        1.653  -4.634  -0.231  0.00  0.00    -0.560 NA
ATOM     10  C   LIG    1        1.204  -3.901   0.778  0.00  0.00    +0.530 A 
ATOM     11  N   LIG    1        1.126  -4.380   2.014  0.00  0.00    -0.540 NA
ATOM     12  C   LIG    1        1.488  -5.619   2.284  0.00  0.00    +0.270 A 
ATOM     13  C   LIG    1        1.391  -6.155   3.689  0.00  0.00    +0.160 C 
BRANCH   7  14
ATOM     14  C   LIG    1        2.389  -7.818   1.501  0.00  0.00    +0.530 C 
ATOM     15  O   LIG    1        2.426  -8.241   2.640  0.00  0.00    -0.500 OA
BRANCH  14  16
ATOM     16  O   LIG    1        2.732  -8.619   0.473  0.00  0.00    -0.360 OA
BRANCH  16  18
ATOM     17  C   LIG    1        3.486 -10.727  -0.486  0.00  0.00    +0.070 C 
ATOM     18  C   LIG    1        3.136  -9.975   0.800  0.00  0.00    +0.200 C 
ENDBRANCH  16  18
ENDBRANCH  14  16
ENDBRANCH   7  14
ENDBRANCH   1  10
BRANCH   4  19
ATOM     19  C   LIG    1       -1.053   0.991  -0.770  0.00  0.00    +0.260 C 
ATOM     20  N   LIG    1       -0.139   1.962  -0.757  0.00  0.00    -0.580 NA
ATOM     21  C   LIG    1       -0.730   3.128  -0.904  0.00  0.00    +0.530 C 
ATOM     22  N   LIG    1       -2.057   2.909  -1.015  0.00  0.00    -0.420 NA
ATOM     23  C   LIG    1       -3.102   3.921  -1.194  0.00  0.00    +0.350 C 
ATOM     24  N   LIG    1       -2.236   1.519  -0.930  0.00  0.00    -0.330 NA
BRANCH  21  25
ATOM     25  N   LIG    1       -0.102   4.360  -0.938  0.00  0.00    -0.830 NA
ATOM     26  H   LIG    1       -0.626   5.169  -1.051  0.00  0.00    +0.410 HD
ATOM     27  H   LIG    1        0.863   4.416  -0.849  0.00  0.00    +0.420 HD
ENDBRANCH  21  25
ENDBRANCH   4  19
TORSDOF 6
