REMARK  Name = ZINCrH000004ur6g.0
REMARK                            x       y       z     vdW  Elec       q    Type
REMARK                         _______ _______ _______ _____ _____    ______ ____
ROOT
ATOM      1  O   LIG    1        7.458   3.414  -3.179  0.00  0.00    -0.520 OA
ATOM      2  C   LIG    1        7.429   2.199  -3.195  0.00  0.00    +0.600 C 
ATOM      3  N   LIG    1        6.502   1.538  -2.475  0.00  0.00    -0.710 N 
ATOM      4  H   LIG    1        6.479   0.568  -2.488  0.00  0.00    +0.410 HD
ENDROOT
BRANCH   2   5
ATOM      5  C   LIG    1        8.415   1.445  -4.008  0.00  0.00    -0.030 A 
ATOM      6  N   LIG    1        8.509   0.142  -4.118  0.00  0.00    -0.330 NA
ATOM      7  O   LIG    1        9.411  -0.181  -4.856  0.00  0.00    +0.140 OA
ATOM      8  C   LIG    1       10.063   0.889  -5.343  0.00  0.00    +0.010 A 
ATOM      9  C   LIG    1        9.446   1.989  -4.816  0.00  0.00    +0.030 A 
BRANCH   8  10
ATOM     10  C   LIG    1       11.217   0.878  -6.267  0.00  0.00    -0.070 A 
ATOM     11  C   LIG    1       11.201   1.666  -7.418  0.00  0.00    +0.080 A 
ATOM     12  C   LIG    1       12.283   1.656  -8.274  0.00  0.00    +0.010 A 
ATOM     13  C   LIG    1       13.379   0.857  -7.999  0.00  0.00    +0.070 A 
ATOM     14  C   LIG    1       13.402   0.068  -6.863  0.00  0.00    +0.000 A 
ATOM     15  C   LIG    1       12.327   0.073  -5.994  0.00  0.00    +0.130 A 
ATOM     16  F   LIG    1       12.349  -0.698  -4.885  0.00  0.00    -0.130 F 
ENDBRANCH   8  10
ENDBRANCH   2   5
BRANCH   3  17
ATOM     17  C   LIG    1        5.529   2.283  -1.672  0.00  0.00    +0.290 C 
BRANCH  17  18
ATOM     18  C   LIG    1        4.598   1.301  -0.959  0.00  0.00    -0.010 C 
ATOM     19  C   LIG    1        3.713   0.534  -1.977  0.00  0.00    +0.020 C 
ATOM     20  C   LIG    1        2.466   0.165  -1.146  0.00  0.00    +0.200 C 
ATOM     21  N   LIG    1        2.401   1.108  -0.015  0.00  0.00    -0.480 N 
ATOM     22  C   LIG    1        3.532   2.053  -0.123  0.00  0.00    +0.210 C 
BRANCH  21  23
ATOM     23  C   LIG    1        1.180   1.788   0.000  0.00  0.00    +0.110 A 
ATOM     24  C   LIG    1        1.130   3.119   0.391  0.00  0.00    -0.040 A 
ATOM     25  C   LIG    1       -0.079   3.787   0.410  0.00  0.00    +0.030 A 
ATOM     26  C   LIG    1       -1.237   3.134   0.029  0.00  0.00    -0.030 A 
ATOM     27  C   LIG    1       -1.190   1.808  -0.361  0.00  0.00    +0.030 A 
ATOM     28  C   LIG    1        0.015   1.133  -0.376  0.00  0.00    -0.040 A 
ENDBRANCH  21  23
ENDBRANCH  17  18
ENDBRANCH   3  17
TORSDOF 5
