REMARK  Name = ZINCb80000003W7J.0
REMARK                            x       y       z     vdW  Elec       q    Type
REMARK                         _______ _______ _______ _____ _____    ______ ____
ROOT
ATOM      1  C   LIG    1       -0.754   3.425   1.277  0.00  0.00    +0.180 A 
ATOM      2  N   LIG    1        0.282   4.213   1.179  0.00  0.00    -0.280 NA
ATOM      3  N   LIG    1       -0.102   5.440   1.221  0.00  0.00    -0.280 NA
ATOM      4  C   LIG    1       -1.400   5.490   1.347  0.00  0.00    +0.210 A 
ATOM      5  N   LIG    1       -1.851   4.213   1.381  0.00  0.00    -0.580 N 
ATOM      6  H   LIG    1       -2.773   3.921   1.465  0.00  0.00    +0.430 HD
ENDROOT
BRANCH   4   7
ATOM      7  C   LIG    1       -2.242   6.737   1.434  0.00  0.00    +0.060 C 
ATOM      8  C   LIG    1       -3.746   6.592   1.194  0.00  0.00    +0.030 C 
ATOM      9  C   LIG    1       -2.864   7.260   0.138  0.00  0.00    +0.060 C 
ENDBRANCH   4   7
BRANCH   1  10
ATOM     10  C   LIG    1       -0.733   1.918   1.269  0.00  0.00    +0.170 C 
BRANCH  10  11
ATOM     11  C   LIG    1       -0.017   1.425   0.010  0.00  0.00    +0.190 C 
BRANCH  11  12
ATOM     12  O   LIG    1        0.002  -0.004   0.002  0.00  0.00    -0.570 OA
ATOM     13  H   LIG    1        0.442  -0.387  -0.769  0.00  0.00    +0.390 HD
ENDBRANCH  11  12
ENDBRANCH  10  11
ENDBRANCH   1  10
TORSDOF 4
