REMARK  Name = ZINCb80000003W7J.2
REMARK                            x       y       z     vdW  Elec       q    Type
REMARK                         _______ _______ _______ _____ _____    ______ ____
ROOT
ATOM      1  C   LIG    1        1.395   2.047  -0.000  0.00  0.00    +0.230 A 
ATOM      2  N   LIG    1        2.097   2.316  -1.069  0.00  0.00    -0.310 NA
ATOM      3  N   LIG    1        3.349   2.775  -0.628  0.00  0.00    -0.480 N 
ATOM      4  H   LIG    1        4.095   3.054  -1.182  0.00  0.00    +0.440 HD
ATOM      5  C   LIG    1        3.310   2.748   0.716  0.00  0.00    +0.320 A 
ATOM      6  N   LIG    1        2.130   2.315   1.079  0.00  0.00    -0.530 NA
ENDROOT
BRANCH   5   7
ATOM      7  C   LIG    1        4.427   3.153   1.642  0.00  0.00    +0.050 C 
ATOM      8  C   LIG    1        5.831   3.273   1.046  0.00  0.00    +0.030 C 
ATOM      9  C   LIG    1        5.489   2.101   1.970  0.00  0.00    +0.060 C 
ENDBRANCH   5   7
BRANCH   1  10
ATOM     10  C   LIG    1       -0.019   1.526   0.010  0.00  0.00    +0.170 C 
BRANCH  10  11
ATOM     11  C   LIG    1        0.002  -0.004   0.002  0.00  0.00    +0.190 C 
BRANCH  11  12
ATOM     12  O   LIG    1       -1.339  -0.499   0.012  0.00  0.00    -0.570 OA
ATOM     13  H   LIG    1       -1.402  -1.464   0.008  0.00  0.00    +0.390 HD
ENDBRANCH  11  12
ENDBRANCH  10  11
ENDBRANCH   1  10
TORSDOF 4
