REMARK  Name = ZINCb80000003W7J.1
REMARK                            x       y       z     vdW  Elec       q    Type
REMARK                         _______ _______ _______ _____ _____    ______ ____
ROOT
ATOM      1  C   LIG    1       -3.359   0.032  -3.008  0.00  0.00    +0.290 A 
ATOM      2  N   LIG    1       -2.431   0.914  -2.740  0.00  0.00    -0.530 NA
ATOM      3  C   LIG    1       -2.164   0.907  -1.435  0.00  0.00    +0.260 A 
ATOM      4  N   LIG    1       -2.928   0.021  -0.850  0.00  0.00    -0.310 NA
ATOM      5  N   LIG    1       -3.716  -0.561  -1.856  0.00  0.00    -0.480 N 
ATOM      6  H   LIG    1       -4.385  -1.255  -1.742  0.00  0.00    +0.440 HD
ENDROOT
BRANCH   3   7
ATOM      7  C   LIG    1       -1.150   1.781  -0.743  0.00  0.00    +0.050 C 
ATOM      8  C   LIG    1       -0.013   1.086   0.008  0.00  0.00    +0.050 C 
ATOM      9  C   LIG    1       -1.136   1.773   0.788  0.00  0.00    +0.050 C 
ENDBRANCH   3   7
BRANCH   1  10
ATOM     10  C   LIG    1       -3.933  -0.262  -4.370  0.00  0.00    +0.170 C 
BRANCH  10  11
ATOM     11  C   LIG    1       -5.209   0.556  -4.574  0.00  0.00    +0.190 C 
BRANCH  11  12
ATOM     12  O   LIG    1       -5.753   0.277  -5.866  0.00  0.00    -0.570 OA
ATOM     13  H   LIG    1       -6.565   0.763  -6.064  0.00  0.00    +0.390 HD
ENDBRANCH  11  12
ENDBRANCH  10  11
ENDBRANCH   1  10
TORSDOF 4
