REMARK  Name = ZINCrH000004sJhi.0
REMARK                            x       y       z     vdW  Elec       q    Type
REMARK                         _______ _______ _______ _____ _____    ______ ____
ROOT
ATOM      1  C   LIG    1       -2.561  -5.077  -0.002  0.00  0.00    +0.290 A 
ATOM      2  N   LIG    1       -2.417  -3.764   0.004  0.00  0.00    -0.470 NA
ATOM      3  C   LIG    1       -1.083  -3.548  -0.007  0.00  0.00    +0.250 A 
ATOM      4  N   LIG    1       -0.498  -4.720  -0.025  0.00  0.00    -0.390 NA
ATOM      5  O   LIG    1       -1.327  -5.605  -0.018  0.00  0.00    +0.080 OA
ENDROOT
BRANCH   3   6
ATOM      6  C   LIG    1       -0.409  -2.231  -0.006  0.00  0.00    +0.130 A 
ATOM      7  C   LIG    1       -1.038  -1.030   0.006  0.00  0.00    +0.030 A 
ATOM      8  C   LIG    1        0.002  -0.004   0.002  0.00  0.00    -0.120 A 
ATOM      9  C   LIG    1       -0.017   1.394   0.010  0.00  0.00    +0.070 A 
ATOM     10  C   LIG    1        1.159   2.088   0.002  0.00  0.00    -0.020 A 
ATOM     11  C   LIG    1        2.375   1.417  -0.013  0.00  0.00    +0.040 A 
ATOM     12  C   LIG    1        2.417   0.040  -0.021  0.00  0.00    -0.010 A 
ATOM     13  C   LIG    1        1.232  -0.689  -0.013  0.00  0.00    +0.120 A 
ATOM     14  N   LIG    1        0.954  -2.037  -0.018  0.00  0.00    -0.470 N 
ATOM     15  C   LIG    1        1.956  -3.105  -0.033  0.00  0.00    +0.310 C 
ENDBRANCH   3   6
BRANCH   1  21
ATOM     16  C   LIG    1       -2.867  -8.235  -0.019  0.00  0.00    +0.170 C 
ATOM     17  C   LIG    1       -3.986  -7.225  -0.002  0.00  0.00    +0.120 A 
ATOM     18  N   LIG    1       -5.263  -7.496   0.008  0.00  0.00    -0.290 NA
ATOM     19  N   LIG    1       -5.980  -6.294   0.023  0.00  0.00    -0.350 N 
ATOM     20  C   LIG    1       -5.102  -5.276   0.027  0.00  0.00    +0.330 A 
ATOM     21  C   LIG    1       -3.836  -5.822   0.005  0.00  0.00    -0.200 A 
BRANCH  19  22
ATOM     22  C   LIG    1       -7.439  -6.168   0.039  0.00  0.00    +0.270 C 
ATOM     23  C   LIG    1       -7.856  -4.938  -0.773  0.00  0.00    +0.010 C 
ATOM     24  C   LIG    1       -9.374  -4.767  -0.684  0.00  0.00    +0.240 C 
ATOM     25  O   LIG    1       -9.761  -4.650   0.686  0.00  0.00    -0.380 OA
ATOM     26  C   LIG    1       -9.440  -5.793   1.483  0.00  0.00    +0.230 C 
ATOM     27  C   LIG    1       -7.924  -6.003   1.482  0.00  0.00    -0.000 C 
ENDBRANCH  19  22
ENDBRANCH   1  21
TORSDOF 3
