REMARK  Name = ZINCkj00000dDwXe.0
REMARK                            x       y       z     vdW  Elec       q    Type
REMARK                         _______ _______ _______ _____ _____    ______ ____
ROOT
ATOM      1  C   LIG    1        1.027   3.536   0.011  0.00  0.00    +0.090 C 
ENDROOT
BRANCH   1   2
ATOM      2  C   LIG    1        2.360   4.238   0.002  0.00  0.00    +0.540 C 
ATOM      3  N   LIG    1        2.413   5.585   0.009  0.00  0.00    -0.620 N 
ATOM      4  C   LIG    1        1.252   6.487   0.018  0.00  0.00    +0.280 C 
ATOM      5  C   LIG    1        1.795   7.931   0.053  0.00  0.00    +0.070 C 
ATOM      6  C   LIG    1        3.227   7.753   0.624  0.00  0.00    +0.170 C 
ATOM      7  C   LIG    1        3.643   6.397   0.002  0.00  0.00    +0.290 C 
ATOM      8  O   LIG    1        3.386   3.591  -0.011  0.00  0.00    -0.520 OA
BRANCH   6   9
ATOM      9  N   LIG    1        4.112   8.834   0.172  0.00  0.00    -0.630 N 
ATOM     10  H   LIG    1        5.061   8.629   0.448  0.00  0.00    +0.440 HD
ATOM     11  H   LIG    1        3.821   9.705   0.590  0.00  0.00    +0.440 HD
ATOM     12  H   LIG    1        4.063   8.911  -0.833  0.00  0.00    +0.440 HD
ENDBRANCH   6   9
ENDBRANCH   1   2
BRANCH   1  13
ATOM     13  C   LIG    1        1.248   2.022   0.001  0.00  0.00    +0.210 C 
BRANCH  13  14
ATOM     14  O   LIG    1       -0.016   1.356   0.009  0.00  0.00    -0.310 OA
BRANCH  14  21
ATOM     15  C   LIG    1       -1.193  -0.718   0.015  0.00  0.00    +0.110 A 
ATOM     16  C   LIG    1       -1.169  -2.103   0.001  0.00  0.00    -0.030 A 
ATOM     17  C   LIG    1        0.041  -2.773  -0.014  0.00  0.00    -0.080 A 
ATOM     18  C   LIG    1        1.227  -2.064  -0.021  0.00  0.00    +0.010 A 
ATOM     19  C   LIG    1        1.210  -0.682  -0.013  0.00  0.00    -0.030 A 
ATOM     20  C   LIG    1        0.065  -4.280  -0.023  0.00  0.00    +0.090 C 
ATOM     21  C   LIG    1        0.002  -0.004   0.002  0.00  0.00    +0.090 A 
BRANCH  15  23
ATOM     22  C   LIG    1       -3.567  -0.855   0.049  0.00  0.00    +0.240 C 
ATOM     23  O   LIG    1       -2.381  -0.057   0.036  0.00  0.00    -0.310 OA
ENDBRANCH  15  23
ENDBRANCH  14  21
ENDBRANCH  13  14
ENDBRANCH   1  13
TORSDOF 6
