REMARK  Name = ZINCqH0000005nTx.1
REMARK                            x       y       z     vdW  Elec       q    Type
REMARK                         _______ _______ _______ _____ _____    ______ ____
ROOT
ATOM      1  N   LIG    1       -3.676   1.670   0.028  0.00  0.00    -0.660 N 
ATOM      2  H   LIG    1       -2.913   1.325  -0.461  0.00  0.00    +0.410 HD
ATOM      3  C   LIG    1       -3.607   2.878   0.620  0.00  0.00    +0.560 C 
ATOM      4  O   LIG    1       -4.589   3.348   1.161  0.00  0.00    -0.510 OA
ENDROOT
BRANCH   1   8
ATOM      5  C   LIG    1       -7.173  -0.587   0.300  0.00  0.00    +0.100 A 
ATOM      6  C   LIG    1       -7.245   0.798   0.213  0.00  0.00    +0.010 A 
ATOM      7  C   LIG    1       -6.087   1.545   0.123  0.00  0.00    +0.050 A 
ATOM      8  C   LIG    1       -4.851   0.912   0.119  0.00  0.00    +0.110 A 
ATOM      9  C   LIG    1       -4.779  -0.473   0.201  0.00  0.00    +0.020 A 
ATOM     10  C   LIG    1       -5.936  -1.219   0.296  0.00  0.00    -0.020 A 
BRANCH   5  15
ATOM     11  C   LIG    1      -11.395  -3.941   1.733  0.00  0.00    +0.190 C 
ATOM     12  N   LIG    1      -10.164  -3.146   1.637  0.00  0.00    -0.550 NA
ATOM     13  C   LIG    1       -9.348  -3.575   0.491  0.00  0.00    +0.170 C 
ATOM     14  C   LIG    1       -8.041  -2.779   0.473  0.00  0.00    +0.200 C 
ATOM     15  N   LIG    1       -8.346  -1.343   0.391  0.00  0.00    -0.490 N 
ATOM     16  C   LIG    1       -9.161  -0.915   1.536  0.00  0.00    +0.200 C 
ATOM     17  C   LIG    1      -10.468  -1.711   1.555  0.00  0.00    +0.190 C 
ENDBRANCH   5  15
ENDBRANCH   1   8
BRANCH   3  18
ATOM     18  C   LIG    1       -2.336   3.634   0.611  0.00  0.00    -0.100 A 
ATOM     19  C   LIG    1       -2.260   4.886   1.224  0.00  0.00    +0.090 A 
ATOM     20  C   LIG    1       -1.070   5.582   1.217  0.00  0.00    +0.080 A 
ATOM     21  C   LIG    1        0.047   5.045   0.601  0.00  0.00    -0.160 A 
ATOM     22  C   LIG    1       -0.023   3.807  -0.013  0.00  0.00    +0.070 A 
ATOM     23  C   LIG    1       -1.208   3.100  -0.014  0.00  0.00    +0.050 A 
BRANCH  21  24
ATOM     24  C   LIG    1        1.344   5.811   0.599  0.00  0.00    +0.510 C 
ATOM     25  F   LIG    1        1.075   7.184   0.617  0.00  0.00    -0.170 F 
ATOM     26  F   LIG    1        2.071   5.494  -0.553  0.00  0.00    -0.170 F 
ATOM     27  F   LIG    1        2.091   5.468   1.731  0.00  0.00    -0.170 F 
ENDBRANCH  21  24
ENDBRANCH   3  18
TORSDOF 4
