REMARK  Name = ZINCqH0000006MwC.0
REMARK                            x       y       z     vdW  Elec       q    Type
REMARK                         _______ _______ _______ _____ _____    ______ ____
ROOT
ATOM      1  N   LIG    1       -0.675   2.041   1.227  0.00  0.00    -0.500 NA
ATOM      2  C   LIG    1        0.111   1.707   2.423  0.00  0.00    +0.200 C 
ENDROOT
BRANCH   1   3
ATOM      3  C   LIG    1       -0.019   1.542   0.011  0.00  0.00    +0.180 C 
ATOM      4  C   LIG    1        0.002  -0.004   0.002  0.00  0.00    +0.070 C 
ATOM      5  C   LIG    1        1.373  -0.297  -0.647  0.00  0.00    +0.260 C 
ATOM      6  N   LIG    1        2.199   0.884  -0.367  0.00  0.00    -0.580 N 
ATOM      7  C   LIG    1        1.442   1.933  -0.001  0.00  0.00    +0.500 C 
ATOM      8  O   LIG    1        1.870   3.033   0.278  0.00  0.00    -0.510 OA
BRANCH   6   9
ATOM      9  C   LIG    1        3.595   0.913  -0.469  0.00  0.00    +0.110 A 
ATOM     10  C   LIG    1        4.198   1.264  -1.669  0.00  0.00    +0.050 A 
ATOM     11  C   LIG    1        5.576   1.293  -1.766  0.00  0.00    +0.020 A 
ATOM     12  C   LIG    1        6.356   0.973  -0.670  0.00  0.00    +0.060 A 
ATOM     13  C   LIG    1        5.760   0.622   0.528  0.00  0.00    -0.010 A 
ATOM     14  C   LIG    1        4.381   0.597   0.634  0.00  0.00    +0.110 A 
ATOM     15  F   LIG    1        3.799   0.261   1.806  0.00  0.00    -0.130 F 
ENDBRANCH   6   9
ENDBRANCH   1   3
BRANCH   1  16
ATOM     16  C   LIG    1       -0.914   3.487   1.141  0.00  0.00    +0.230 C 
BRANCH  16  19
ATOM     17  C   LIG    1       -3.987   4.313   3.175  0.00  0.00    +0.150 A 
ATOM     18  C   LIG    1       -3.173   3.922   2.127  0.00  0.00    -0.040 A 
ATOM     19  C   LIG    1       -1.798   3.919   2.282  0.00  0.00    -0.040 A 
ATOM     20  C   LIG    1       -1.233   4.317   3.479  0.00  0.00    -0.010 A 
ATOM     21  C   LIG    1       -2.039   4.715   4.530  0.00  0.00    +0.030 A 
ATOM     22  C   LIG    1       -3.419   4.715   4.383  0.00  0.00    -0.120 A 
BRANCH  17  24
ATOM     23  C   LIG    1       -5.851   3.888   1.761  0.00  0.00    +0.250 C 
ATOM     24  O   LIG    1       -5.339   4.312   3.026  0.00  0.00    -0.310 OA
ENDBRANCH  17  24
BRANCH  22  25
ATOM     25  S   LIG    1       -4.449   5.221   5.720  0.00  0.00    -0.090 S 
ATOM     26  C   LIG    1       -3.255   5.633   7.022  0.00  0.00    +0.120 C 
ENDBRANCH  22  25
ENDBRANCH  16  19
ENDBRANCH   1  16
TORSDOF 6
