REMARK  Name = ZINCrD00000hQ4zU.0
REMARK                            x       y       z     vdW  Elec       q    Type
REMARK                         _______ _______ _______ _____ _____    ______ ____
ROOT
ATOM      1  N   LIG    1       -5.843   2.867   0.264  0.00  0.00    -0.520 N 
ATOM      2  C   LIG    1       -4.929   3.834   0.537  0.00  0.00    +0.550 C 
ATOM      3  C   LIG    1       -3.576   3.163   0.552  0.00  0.00    +0.030 C 
ATOM      4  C   LIG    1       -3.846   1.993  -0.442  0.00  0.00    +0.020 C 
ATOM      5  S   LIG    1       -2.697   0.682   0.018  0.00  0.00    +0.040 S 
ATOM      6  C   LIG    1       -1.211   1.637   0.017  0.00  0.00    +0.230 C 
ATOM      7  C   LIG    1       -1.183   2.985   0.029  0.00  0.00    -0.210 C 
ATOM      8  C   LIG    1       -2.368   3.913   0.052  0.00  0.00    +0.230 C 
ATOM      9  O   LIG    1       -5.149   5.012   0.718  0.00  0.00    -0.420 OA
ATOM     10  C   LIG    1       -5.291   1.697  -0.145  0.00  0.00    +0.560 C 
ATOM     11  O   LIG    1       -5.850   0.627  -0.250  0.00  0.00    -0.430 OA
ENDROOT
BRANCH   1  16
ATOM     12  C   LIG    1      -11.441   3.651   0.782  0.00  0.00    +0.110 C 
ATOM     13  C   LIG    1       -9.955   3.443   0.644  0.00  0.00    -0.080 A 
ATOM     14  C   LIG    1       -9.084   4.473   0.942  0.00  0.00    +0.050 A 
ATOM     15  C   LIG    1       -7.720   4.284   0.821  0.00  0.00    +0.030 A 
ATOM     16  C   LIG    1       -7.226   3.060   0.391  0.00  0.00    +0.120 A 
ATOM     17  C   LIG    1       -8.103   2.026   0.093  0.00  0.00    +0.030 A 
ATOM     18  C   LIG    1       -9.465   2.220   0.220  0.00  0.00    -0.020 A 
ATOM     19 CL   LIG    1      -10.563   0.927  -0.152  0.00  0.00    -0.050 Cl
ENDBRANCH   1  16
BRANCH   8  20
ATOM     20  C   LIG    1       -2.078   5.071   0.972  0.00  0.00    -0.020 A 
ATOM     21  C   LIG    1       -2.060   6.369   0.621  0.00  0.00    -0.030 A 
ATOM     22  C   LIG    1       -1.746   7.105   1.787  0.00  0.00    -0.060 A 
ATOM     23  C   LIG    1       -1.592   6.212   2.781  0.00  0.00    +0.170 A 
ATOM     24  O   LIG    1       -1.799   4.982   2.283  0.00  0.00    -0.170 OA
ENDBRANCH   8  20
BRANCH   6  25
ATOM     25  N   LIG    1       -0.011   0.966   0.007  0.00  0.00    -0.830 N 
ATOM     26  H   LIG    1        0.822   1.462   0.002  0.00  0.00    +0.410 HD
ATOM     27  H   LIG    1        0.002  -0.004   0.002  0.00  0.00    +0.410 HD
ENDBRANCH   6  25
BRANCH   7  28
ATOM     28  C   LIG    1        0.111   3.598   0.014  0.00  0.00    +0.260 C 
ATOM     29  N   LIG    1        1.137   4.085   0.002  0.00  0.00    -0.430 NA
ENDBRANCH   7  28
TORSDOF 4
