REMARK  Name = ZINCrH000004syxV.0
REMARK                            x       y       z     vdW  Elec       q    Type
REMARK                         _______ _______ _______ _____ _____    ______ ____
ROOT
ATOM      1  C   LIG    1        0.064  -2.030   3.643  0.00  0.00    +0.580 C 
ATOM      2  N   LIG    1       -0.018  -2.734   4.790  0.00  0.00    -0.610 N 
ATOM      3  C   LIG    1       -0.007  -4.203   4.769  0.00  0.00    +0.290 C 
ATOM      4  C   LIG    1        1.101  -4.697   5.711  0.00  0.00    +0.020 C 
ATOM      5  C   LIG    1        0.890  -4.090   7.100  0.00  0.00    +0.280 C 
ATOM      6  C   LIG    1        0.978  -2.565   7.011  0.00  0.00    +0.020 C 
ATOM      7  C   LIG    1       -0.126  -2.047   6.084  0.00  0.00    +0.310 C 
ATOM      8  O   LIG    1        0.155  -0.818   3.679  0.00  0.00    -0.500 OA
ENDROOT
BRANCH   1  16
ATOM      9  C   LIG    1        4.072  -1.930  -1.479  0.00  0.00    +0.160 C 
ATOM     10  C   LIG    1        2.982  -2.161  -0.464  0.00  0.00    +0.120 A 
ATOM     11  N   LIG    1        2.005  -2.995  -0.739  0.00  0.00    -0.420 NA
ATOM     12  C   LIG    1        1.034  -3.197   0.159  0.00  0.00    +0.100 A 
ATOM     13  C   LIG    1       -0.028  -4.079  -0.111  0.00  0.00    +0.060 A 
ATOM     14  C   LIG    1       -1.010  -4.272   0.816  0.00  0.00    +0.120 A 
ATOM     15  C   LIG    1       -0.985  -3.608   2.039  0.00  0.00    +0.060 A 
ATOM     16  C   LIG    1        0.043  -2.730   2.345  0.00  0.00    -0.060 A 
ATOM     17  F   LIG    1       -2.024  -5.122   0.542  0.00  0.00    -0.120 F 
ATOM     18  C   LIG    1        1.075  -2.513   1.398  0.00  0.00    +0.100 A 
ATOM     19  N   LIG    1        2.081  -1.675   1.657  0.00  0.00    -0.410 NA
ATOM     20  C   LIG    1        3.025  -1.492   0.760  0.00  0.00    +0.120 A 
ATOM     21  C   LIG    1        4.160  -0.545   1.054  0.00  0.00    +0.160 C 
ENDBRANCH   1  16
BRANCH   5  22
ATOM     22  N   LIG    1        1.924  -4.586   8.012  0.00  0.00    -0.360 N 
ATOM     23  C   LIG    1        3.207  -4.855   7.688  0.00  0.00    +0.250 A 
ATOM     24  C   LIG    1        3.833  -5.290   8.807  0.00  0.00    -0.190 A 
ATOM     25  C   LIG    1        2.900  -5.287   9.850  0.00  0.00    +0.260 A 
ATOM     26 CL   LIG    1        5.497  -5.767   8.926  0.00  0.00    -0.040 Cl
ATOM     27  N   LIG    1        1.757  -4.860   9.376  0.00  0.00    -0.280 NA
ENDBRANCH   5  22
TORSDOF 2
