REMARK  Name = ZINCvU0000000F06.0
REMARK                            x       y       z     vdW  Elec       q    Type
REMARK                         _______ _______ _______ _____ _____    ______ ____
ROOT
ATOM      1  C   LIG    1       -2.916   4.633  -1.743  0.00  0.00    +0.240 A 
ATOM      2  N   LIG    1       -2.848   3.333  -1.920  0.00  0.00    -0.280 NA
ATOM      3  N   LIG    1       -2.221   2.789  -0.939  0.00  0.00    -0.290 NA
ATOM      4  C   LIG    1       -1.849   3.707  -0.076  0.00  0.00    +0.150 A 
ATOM      5  N   LIG    1       -2.282   4.912  -0.554  0.00  0.00    -0.460 N 
ATOM      6  C   LIG    1       -2.107   6.226   0.068  0.00  0.00    +0.360 C 
ENDROOT
BRANCH   1  10
ATOM      7  C   LIG    1       -4.756   7.443  -4.345  0.00  0.00    +0.240 A 
ATOM      8  C   LIG    1       -3.841   7.876  -3.392  0.00  0.00    -0.070 A 
ATOM      9  C   LIG    1       -3.242   6.967  -2.547  0.00  0.00    +0.070 A 
ATOM     10  C   LIG    1       -3.556   5.610  -2.648  0.00  0.00    -0.090 A 
ATOM     11  C   LIG    1       -4.472   5.178  -3.609  0.00  0.00    +0.110 A 
ATOM     12  C   LIG    1       -5.072   6.093  -4.448  0.00  0.00    -0.070 A 
BRANCH   7  13
ATOM     13  N   LIG    1       -5.361   8.366  -5.200  0.00  0.00    -0.620 N 
BRANCH  13  15
ATOM     14  C   LIG    1       -7.733   7.931  -5.604  0.00  0.00    +0.020 C 
ATOM     15  C   LIG    1       -6.326   7.912  -6.204  0.00  0.00    +0.270 C 
ENDBRANCH  13  15
BRANCH  13  16
ATOM     16  C   LIG    1       -5.030   9.789  -5.092  0.00  0.00    +0.280 C 
ATOM     17  C   LIG    1       -3.844  10.107  -6.004  0.00  0.00    +0.020 C 
ENDBRANCH  13  16
ENDBRANCH   7  13
ENDBRANCH   1  10
BRANCH   4  18
ATOM     18  S   LIG    1       -0.962   3.435   1.422  0.00  0.00    +0.050 S 
BRANCH  18  19
ATOM     19  C   LIG    1       -0.770   1.637   1.351  0.00  0.00    -0.010 C 
ATOM     20  C   LIG    1        0.114   1.265   0.159  0.00  0.00    +0.090 C 
BRANCH  19  21
ATOM     21  C   LIG    1       -0.127   1.149   2.624  0.00  0.00    +0.450 C 
ATOM     22  O   LIG    1        0.570   1.899   3.278  0.00  0.00    -0.450 OA
BRANCH  21  23
ATOM     23  C   LIG    1       -0.336  -0.183   3.059  0.00  0.00    -0.270 A 
ATOM     24  C   LIG    1       -1.100  -1.147   2.436  0.00  0.00    +0.340 A 
ATOM     25  N   LIG    1       -1.054  -2.290   3.146  0.00  0.00    -0.560 N 
ATOM     26  H   LIG    1       -1.512  -3.110   2.903  0.00  0.00    +0.420 HD
ATOM     27  C   LIG    1       -0.270  -2.134   4.272  0.00  0.00    +0.070 A 
ATOM     28  C   LIG    1        0.085  -2.991   5.308  0.00  0.00    +0.000 A 
ATOM     29  C   LIG    1        0.903  -2.542   6.323  0.00  0.00    +0.030 A 
ATOM     30  C   LIG    1        1.380  -1.240   6.322  0.00  0.00    +0.000 A 
ATOM     31  C   LIG    1        1.041  -0.376   5.303  0.00  0.00    +0.060 A 
ATOM     32  C   LIG    1        0.215  -0.817   4.273  0.00  0.00    -0.060 A 
ENDBRANCH  21  23
ENDBRANCH  19  21
ENDBRANCH  18  19
ENDBRANCH   4  18
TORSDOF 8
