REMARK  Name = ZINCpe00000gNa0l.0
REMARK                            x       y       z     vdW  Elec       q    Type
REMARK                         _______ _______ _______ _____ _____    ______ ____
ROOT
ATOM      1  C   LIG    1       -6.005   4.653   1.708  0.00  0.00    +0.520 C 
ATOM      2  N   LIG    1       -4.920   4.541   0.917  0.00  0.00    -0.620 N 
ATOM      3  C   LIG    1       -4.844   3.497  -0.116  0.00  0.00    +0.310 C 
ATOM      4  C   LIG    1       -3.519   2.744   0.050  0.00  0.00    +0.230 C 
ATOM      5  N   LIG    1       -2.409   3.706   0.044  0.00  0.00    -0.460 N 
ATOM      6  C   LIG    1       -2.499   4.630   1.183  0.00  0.00    +0.210 C 
ATOM      7  C   LIG    1       -3.781   5.460   1.063  0.00  0.00    +0.300 C 
ATOM      8  O   LIG    1       -6.936   3.886   1.574  0.00  0.00    -0.510 OA
ENDROOT
BRANCH   5   9
ATOM      9  C   LIG    1       -1.188   3.054   0.029  0.00  0.00    +0.490 A 
ATOM     10  N   LIG    1       -1.162   1.730   0.017  0.00  0.00    -0.550 NA
ATOM     11  C   LIG    1       -0.013   1.076   0.008  0.00  0.00    +0.350 A 
ATOM     12  C   LIG    1        1.173   1.793   0.001  0.00  0.00    -0.110 A 
ATOM     13  C   LIG    1        1.110   3.178   0.008  0.00  0.00    +0.350 A 
ATOM     14  N   LIG    1       -0.073   3.770   0.022  0.00  0.00    -0.530 NA
ENDBRANCH   5   9
BRANCH   1  15
ATOM     15  C   LIG    1       -6.063   5.730   2.761  0.00  0.00    +0.260 C 
BRANCH  15  16
ATOM     16  O   LIG    1       -7.324   5.642   3.475  0.00  0.00    -0.330 OA
BRANCH  16  18
ATOM     17  O   LIG    1       -6.692   7.367   4.703  0.00  0.00    -0.510 OA
ATOM     18  C   LIG    1       -7.534   6.537   4.453  0.00  0.00    +0.470 C 
BRANCH  18  19
ATOM     19  C   LIG    1       -8.820   6.508   5.238  0.00  0.00    +0.120 C 
BRANCH  19  20
ATOM     20  C   LIG    1       -8.805   7.625   6.283  0.00  0.00    +0.160 C 
BRANCH  20  21
ATOM     21  C   LIG    1      -10.091   7.595   7.068  0.00  0.00    -0.020 A 
ATOM     22  C   LIG    1      -10.308   6.895   8.196  0.00  0.00    -0.050 A 
ATOM     23  C   LIG    1      -11.639   7.159   8.592  0.00  0.00    -0.060 A 
ATOM     24  C   LIG    1      -12.159   7.997   7.678  0.00  0.00    +0.160 A 
ATOM     25  O   LIG    1      -11.217   8.258   6.757  0.00  0.00    -0.180 OA
ENDBRANCH  20  21
ENDBRANCH  19  20
ENDBRANCH  18  19
ENDBRANCH  16  18
ENDBRANCH  15  16
ENDBRANCH   1  15
TORSDOF 7
