REMARK  Name = ZINCrH00000ashGY.0
REMARK                            x       y       z     vdW  Elec       q    Type
REMARK                         _______ _______ _______ _____ _____    ______ ____
ROOT
ATOM      1  C   LIG    1       -0.010   1.070   0.009  0.00  0.00    +0.100 C 
ATOM      2  C   LIG    1       -0.727   1.574   1.263  0.00  0.00    +0.280 C 
ENDROOT
BRANCH   2   3
ATOM      3  N   LIG    1       -2.102   1.070   1.275  0.00  0.00    -0.280 N 
ATOM      4  C   LIG    1       -2.507  -0.135   0.812  0.00  0.00    +0.160 A 
ATOM      5  C   LIG    1       -3.854  -0.187   1.023  0.00  0.00    +0.040 A 
ATOM      6  N   LIG    1       -4.191   0.985   1.591  0.00  0.00    -0.250 NA
ATOM      7  N   LIG    1       -3.130   1.701   1.724  0.00  0.00    -0.070 NA
BRANCH   5   8
ATOM      8  C   LIG    1       -4.766  -1.309   0.688  0.00  0.00    -0.070 A 
ATOM      9  C   LIG    1       -4.263  -2.464   0.094  0.00  0.00    +0.070 A 
ATOM     10  C   LIG    1       -5.111  -3.508  -0.211  0.00  0.00    -0.080 A 
ATOM     11  C   LIG    1       -6.469  -3.404   0.064  0.00  0.00    +0.220 A 
ATOM     12  C   LIG    1       -6.974  -2.250   0.651  0.00  0.00    -0.080 A 
ATOM     13  C   LIG    1       -6.129  -1.207   0.963  0.00  0.00    +0.090 A 
BRANCH  11  14
ATOM     14  N   LIG    1       -7.327  -4.460  -0.251  0.00  0.00    -0.880 N 
ATOM     15  H   LIG    1       -6.975  -5.266  -0.661  0.00  0.00    +0.400 HD
ATOM     16  H   LIG    1       -8.275  -4.388  -0.059  0.00  0.00    +0.400 HD
ENDBRANCH  11  14
ENDBRANCH   5   8
ENDBRANCH   2   3
BRANCH   2  17
ATOM     17  C   LIG    1       -0.001   1.081   2.489  0.00  0.00    +0.510 C 
ATOM     18  N   LIG    1        1.288   1.422   2.691  0.00  0.00    -0.670 N 
ATOM     19  H   LIG    1        1.768   1.927   2.016  0.00  0.00    +0.420 HD
ATOM     20  O   LIG    1       -0.575   0.379   3.293  0.00  0.00    -0.490 OA
BRANCH  18  21
ATOM     21  C   LIG    1        1.933   1.046   3.874  0.00  0.00    +0.170 A 
ATOM     22  C   LIG    1        2.880   1.886   4.447  0.00  0.00    +0.000 A 
ATOM     23  C   LIG    1        3.512   1.514   5.617  0.00  0.00    +0.090 A 
ATOM     24  C   LIG    1        3.211   0.303   6.213  0.00  0.00    -0.200 A 
ATOM     25  C   LIG    1        2.273  -0.537   5.642  0.00  0.00    +0.090 A 
ATOM     26  C   LIG    1        1.633  -0.169   4.474  0.00  0.00    +0.030 A 
BRANCH  24  27
ATOM     27  C   LIG    1        3.907  -0.102   7.487  0.00  0.00    +0.510 C 
ATOM     28  F   LIG    1        3.056  -0.913   8.245  0.00  0.00    -0.180 F 
ATOM     29  F   LIG    1        4.237   1.042   8.221  0.00  0.00    -0.180 F 
ATOM     30  F   LIG    1        5.073  -0.810   7.177  0.00  0.00    -0.180 F 
ENDBRANCH  24  27
ENDBRANCH  18  21
ENDBRANCH   2  17
TORSDOF 6
