REMARK  Name = ZINCrD00000727vL.0
REMARK                            x       y       z     vdW  Elec       q    Type
REMARK                         _______ _______ _______ _____ _____    ______ ____
ROOT
ATOM      1  C   LIG    1        3.934  -7.068  -1.510  0.00  0.00    +0.260 C 
ENDROOT
BRANCH   1   3
ATOM      2  C   LIG    1        4.883  -8.601  -3.149  0.00  0.00    +0.560 C 
ATOM      3  N   LIG    1        4.114  -7.525  -2.890  0.00  0.00    -0.730 N 
ATOM      4  H   LIG    1        3.680  -7.053  -3.618  0.00  0.00    +0.400 HD
ATOM      5  O   LIG    1        5.427  -9.193  -2.237  0.00  0.00    -0.510 OA
BRANCH   2  11
ATOM      6  C   LIG    1        5.868 -10.176  -4.823  0.00  0.00    +0.380 A 
ATOM      7  N   LIG    1        6.024 -10.588  -6.070  0.00  0.00    -0.550 NA
ATOM      8  C   LIG    1        5.449  -9.969  -7.083  0.00  0.00    +0.340 A 
ATOM      9  C   LIG    1        4.647  -8.860  -6.884  0.00  0.00    -0.070 A 
ATOM     10  C   LIG    1        4.445  -8.389  -5.598  0.00  0.00    +0.130 A 
ATOM     11  C   LIG    1        5.065  -9.061  -4.539  0.00  0.00    -0.220 A 
BRANCH   6  12
ATOM     12  O   LIG    1        6.482 -10.838  -3.814  0.00  0.00    -0.270 OA
BRANCH  12  14
ATOM     13  C   LIG    1        7.892 -12.579  -2.908  0.00  0.00    +0.070 C 
ATOM     14  C   LIG    1        7.285 -11.965  -4.171  0.00  0.00    +0.200 C 
ENDBRANCH  12  14
ENDBRANCH   6  12
ENDBRANCH   2  11
ENDBRANCH   1   3
BRANCH   1  15
ATOM     15  C   LIG    1        3.023  -5.839  -1.495  0.00  0.00    +0.010 C 
BRANCH  15  16
ATOM     16  C   LIG    1        2.834  -5.362  -0.053  0.00  0.00    +0.110 C 
BRANCH  16  17
ATOM     17  C   LIG    1        1.937  -4.151  -0.038  0.00  0.00    -0.220 A 
ATOM     18  C   LIG    1        2.342  -2.860  -0.035  0.00  0.00    +0.240 A 
ATOM     19  N   LIG    1        1.237  -2.082  -0.021  0.00  0.00    -0.320 N 
ATOM     20  N   LIG    1        0.118  -2.925  -0.008  0.00  0.00    -0.290 NA
ATOM     21  C   LIG    1        0.538  -4.164  -0.024  0.00  0.00    +0.090 A 
ATOM     22  C   LIG    1       -0.334  -5.393  -0.021  0.00  0.00    +0.160 C 
BRANCH  19  23
ATOM     23  C   LIG    1        1.214  -0.680  -0.013  0.00  0.00    +0.160 A 
ATOM     24  C   LIG    1        0.002  -0.004   0.002  0.00  0.00    +0.020 A 
ATOM     25  C   LIG    1       -0.017   1.377   0.010  0.00  0.00    +0.040 A 
ATOM     26  C   LIG    1        1.171   2.086   0.002  0.00  0.00    +0.000 A 
ATOM     27  C   LIG    1        2.380   1.415  -0.013  0.00  0.00    +0.040 A 
ATOM     28  C   LIG    1        2.405   0.034  -0.021  0.00  0.00    -0.010 A 
ENDBRANCH  19  23
ENDBRANCH  16  17
ENDBRANCH  15  16
ENDBRANCH   1  15
TORSDOF 8
