REMARK  Name = ZINCrH000004m5xD.2
REMARK                            x       y       z     vdW  Elec       q    Type
REMARK                         _______ _______ _______ _____ _____    ______ ____
ROOT
ATOM      1  N   LIG    1       -0.018   1.464   0.010  0.00  0.00    -0.530 NA
ATOM      2  C   LIG    1        0.002  -0.004   0.002  0.00  0.00    +0.160 C 
ATOM      3  C   LIG    1        0.704  -0.513   1.263  0.00  0.00    +0.040 C 
ATOM      4  C   LIG    1        2.133   0.035   1.302  0.00  0.00    +0.040 C 
ATOM      5  C   LIG    1        2.086   1.565   1.261  0.00  0.00    +0.100 C 
ATOM      6  C   LIG    1        1.344   2.014   0.000  0.00  0.00    +0.200 C 
ENDROOT
BRANCH   5   7
ATOM      7  C   LIG    1        3.490   2.111   1.240  0.00  0.00    +0.150 A 
ATOM      8  N   LIG    1        4.398   1.876   0.328  0.00  0.00    -0.240 NA
ATOM      9  N   LIG    1        5.488   2.498   0.613  0.00  0.00    -0.290 NA
ATOM     10  C   LIG    1        5.330   3.174   1.739  0.00  0.00    +0.190 A 
ATOM     11  C   LIG    1        6.175   4.008   2.495  0.00  0.00    +0.080 A 
ATOM     12  C   LIG    1        5.702   4.570   3.640  0.00  0.00    +0.060 A 
ATOM     13  C   LIG    1        4.383   4.312   4.051  0.00  0.00    +0.030 A 
ATOM     14  C   LIG    1        3.584   3.511   3.315  0.00  0.00    +0.230 A 
ATOM     15  N   LIG    1        4.043   2.945   2.163  0.00  0.00    -0.390 N 
ENDBRANCH   5   7
BRANCH   1  16
ATOM     16  C   LIG    1       -0.804   1.986  -1.115  0.00  0.00    +0.230 C 
BRANCH  16  19
ATOM     17  C   LIG    1       -4.437   2.104  -0.082  0.00  0.00    +0.120 A 
ATOM     18  C   LIG    1       -3.105   2.450  -0.248  0.00  0.00    -0.030 A 
ATOM     19  C   LIG    1       -2.252   1.607  -0.935  0.00  0.00    -0.030 A 
ATOM     20  C   LIG    1       -2.724   0.420  -1.462  0.00  0.00    +0.010 A 
ATOM     21  C   LIG    1       -4.051   0.065  -1.296  0.00  0.00    -0.020 A 
ATOM     22 CL   LIG    1       -4.640  -1.429  -1.954  0.00  0.00    -0.040 Cl
ATOM     23  C   LIG    1       -4.912   0.907  -0.608  0.00  0.00    +0.070 A 
BRANCH  17  25
ATOM     24  C   LIG    1       -4.720   4.145   1.106  0.00  0.00    +0.240 C 
ATOM     25  O   LIG    1       -5.277   2.933   0.594  0.00  0.00    -0.300 OA
ENDBRANCH  17  25
BRANCH  23  26
ATOM     26  O   LIG    1       -6.218   0.562  -0.447  0.00  0.00    -0.320 OA
ATOM     27  C   LIG    1       -7.131   0.992  -1.458  0.00  0.00    +0.230 C 
ENDBRANCH  23  26
ENDBRANCH  16  19
ENDBRANCH   1  16
TORSDOF 5
