REMARK  Name = ZINCtj0000000HWK.0
REMARK                            x       y       z     vdW  Elec       q    Type
REMARK                         _______ _______ _______ _____ _____    ______ ____
ROOT
ATOM      1  C   LIG    1       -1.144   2.254   0.054  0.00  0.00    -0.180 A 
ATOM      2  C   LIG    1       -1.245   3.299   0.950  0.00  0.00    +0.520 A 
ATOM      3  N   LIG    1       -2.401   4.045   0.984  0.00  0.00    -0.530 N 
ATOM      4  C   LIG    1       -3.424   3.752   0.161  0.00  0.00    +0.710 A 
ATOM      5  N   LIG    1       -3.345   2.734  -0.715  0.00  0.00    -0.660 N 
ATOM      6  H   LIG    1       -4.096   2.543  -1.298  0.00  0.00    +0.440 HD
ATOM      7  O   LIG    1       -4.439   4.420   0.210  0.00  0.00    -0.510 OA
ATOM      8  C   LIG    1       -2.233   1.976  -0.792  0.00  0.00    +0.570 A 
ATOM      9  O   LIG    1       -2.172   1.056  -1.589  0.00  0.00    -0.520 OA
ENDROOT
BRANCH   1  10
ATOM     10  N   LIG    1        0.030   1.474  -0.008  0.00  0.00    -0.490 N 
ATOM     11  C   LIG    1        1.193   2.035  -0.401  0.00  0.00    +0.490 C 
ATOM     12  O   LIG    1        1.252   3.230  -0.605  0.00  0.00    -0.520 OA
BRANCH  10  14
ATOM     13  C   LIG    1        0.330  -0.112   1.829  0.00  0.00    +0.020 C 
ATOM     14  C   LIG    1       -0.014   0.053   0.347  0.00  0.00    +0.270 C 
ENDBRANCH  10  14
BRANCH  11  15
ATOM     15  C   LIG    1        2.419   1.178  -0.585  0.00  0.00    +0.290 C 
BRANCH  15  16
ATOM     16  N   LIG    1        3.545   2.019  -1.013  0.00  0.00    -0.370 N 
ATOM     17  C   LIG    1        3.217   2.615  -2.326  0.00  0.00    +0.250 C 
ATOM     18  C   LIG    1        4.420   3.166  -3.040  0.00  0.00    +0.050 C 
ATOM     19  C   LIG    1        4.952   2.078  -3.999  0.00  0.00    +0.020 C 
ATOM     20  C   LIG    1        5.723   1.058  -3.299  0.00  0.00    +0.020 C 
ATOM     21  C   LIG    1        4.882   0.316  -2.239  0.00  0.00    +0.050 C 
ATOM     22  C   LIG    1        4.772   1.196  -1.023  0.00  0.00    +0.250 C 
ATOM     23  H   LIG    1        3.662   2.764  -0.342  0.00  0.00    +0.430 HD
ENDBRANCH  15  16
ENDBRANCH  11  15
ENDBRANCH   1  10
BRANCH   2  24
ATOM     24  N   LIG    1       -0.203   3.594   1.796  0.00  0.00    -0.820 N 
ATOM     25  H   LIG    1       -0.245   4.380   2.362  0.00  0.00    +0.410 HD
ATOM     26  H   LIG    1        0.576   3.016   1.825  0.00  0.00    +0.420 HD
ENDBRANCH   2  24
BRANCH   3  27
ATOM     27  C   LIG    1       -2.520   5.160   1.925  0.00  0.00    +0.380 C 
BRANCH  27  28
ATOM     28  C   LIG    1       -3.095   4.661   3.226  0.00  0.00    -0.130 A 
ATOM     29  C   LIG    1       -4.463   4.660   3.421  0.00  0.00    +0.050 A 
ATOM     30  C   LIG    1       -4.990   4.197   4.613  0.00  0.00    +0.010 A 
ATOM     31  C   LIG    1       -4.149   3.746   5.612  0.00  0.00    +0.030 A 
ATOM     32  C   LIG    1       -2.780   3.753   5.419  0.00  0.00    +0.010 A 
ATOM     33  C   LIG    1       -2.253   4.210   4.226  0.00  0.00    +0.010 A 
ENDBRANCH  27  28
ENDBRANCH   3  27
TORSDOF 7
