REMARK  Name = ZINCrD000006VqwZ.0
REMARK                            x       y       z     vdW  Elec       q    Type
REMARK                         _______ _______ _______ _____ _____    ______ ____
ROOT
ATOM      1  O   LIG    1       -1.565   3.662  -5.900  0.00  0.00    -0.530 OA
ATOM      2  C   LIG    1       -0.993   4.703  -5.654  0.00  0.00    +0.520 C 
ATOM      3  N   LIG    1       -0.114   5.214  -6.538  0.00  0.00    -0.720 N 
ATOM      4  H   LIG    1        0.344   6.046  -6.342  0.00  0.00    +0.400 HD
ENDROOT
BRANCH   3   5
ATOM      5  C   LIG    1        0.151   4.513  -7.797  0.00  0.00    +0.290 C 
ATOM      6  C   LIG    1        0.613   5.520  -8.848  0.00  0.00    +0.020 C 
ATOM      7  C   LIG    1        1.091   4.747 -10.082  0.00  0.00    +0.030 C 
ATOM      8  C   LIG    1        2.394   4.033  -9.728  0.00  0.00    +0.080 C 
ATOM      9  C   LIG    1        2.235   3.240  -8.457  0.00  0.00    -0.070 A 
ATOM     10  C   LIG    1        3.173   2.252  -8.190  0.00  0.00    -0.010 A 
ATOM     11  C   LIG    1        3.086   1.495  -7.039  0.00  0.00    +0.010 A 
ATOM     12  C   LIG    1        2.057   1.722  -6.145  0.00  0.00    -0.010 A 
ATOM     13  C   LIG    1        1.123   2.702  -6.410  0.00  0.00    +0.020 A 
ATOM     14  C   LIG    1        1.208   3.463  -7.568  0.00  0.00    -0.100 A 
ENDBRANCH   3   5
BRANCH   2  15
ATOM     15  C   LIG    1       -1.265   5.425  -4.359  0.00  0.00    -0.010 C 
ATOM     16  C   LIG    1       -2.293   4.638  -3.543  0.00  0.00    +0.050 C 
ATOM     17  C   LIG    1       -2.593   5.392  -2.244  0.00  0.00    +0.300 C 
ATOM     18  N   LIG    1       -1.328   5.642  -1.540  0.00  0.00    -0.990 NA
ATOM     19  C   LIG    1       -0.240   6.317  -2.260  0.00  0.00    +0.300 C 
ATOM     20  C   LIG    1        0.035   5.548  -3.561  0.00  0.00    +0.030 C 
BRANCH  18  21
ATOM     21  S   LIG    1       -1.135   5.179   0.038  0.00  0.00    +2.720 S 
ATOM     22  O   LIG    1       -0.112   6.005   0.577  0.00  0.00    -0.950 OA
ATOM     23  O   LIG    1       -2.440   5.095   0.595  0.00  0.00    -0.950 OA
BRANCH  21  24
ATOM     24  C   LIG    1       -0.494   3.538   0.025  0.00  0.00    -0.800 A 
ATOM     25  C   LIG    1        0.801   3.218   0.011  0.00  0.00    +0.160 A 
ATOM     26  C   LIG    1        1.067   1.859   0.002  0.00  0.00    -0.010 A 
ATOM     27  C   LIG    1       -0.013   1.076   0.008  0.00  0.00    +0.000 A 
ATOM     28  S   LIG    1       -1.463   2.070   0.019  0.00  0.00    +0.220 S 
ENDBRANCH  21  24
ENDBRANCH  18  21
ENDBRANCH   2  15
TORSDOF 4
