REMARK  Name = ZINCqH0000007S2U.0
REMARK                            x       y       z     vdW  Elec       q    Type
REMARK                         _______ _______ _______ _____ _____    ______ ____
ROOT
ATOM      1  C   LIG    1        4.900  -4.076   0.251  0.00  0.00    +0.390 C 
ENDROOT
BRANCH   1   7
ATOM      2  C   LIG    1        6.135  -5.696   1.714  0.00  0.00    +0.140 A 
ATOM      3  C   LIG    1        7.261  -6.072   2.432  0.00  0.00    -0.080 A 
ATOM      4  C   LIG    1        8.359  -5.235   2.481  0.00  0.00    +0.060 A 
ATOM      5  C   LIG    1        8.338  -4.026   1.810  0.00  0.00    -0.020 A 
ATOM      6  C   LIG    1        7.220  -3.652   1.089  0.00  0.00    +0.070 A 
ATOM      7  C   LIG    1        6.119  -4.485   1.037  0.00  0.00    -0.120 A 
BRANCH   2   9
ATOM      8  C   LIG    1        5.138  -7.746   2.390  0.00  0.00    +0.250 C 
ATOM      9  O   LIG    1        5.051  -6.515   1.670  0.00  0.00    -0.310 OA
ENDBRANCH   2   9
ENDBRANCH   1   7
BRANCH   1  10
ATOM     10  C   LIG    1        4.984  -4.650  -1.140  0.00  0.00    +0.120 A 
ATOM     11  C   LIG    1        3.951  -5.433  -1.618  0.00  0.00    +0.000 A 
ATOM     12  C   LIG    1        4.035  -5.953  -2.901  0.00  0.00    +0.060 A 
ATOM     13  C   LIG    1        5.165  -5.672  -3.654  0.00  0.00    -0.040 A 
ATOM     14  C   LIG    1        6.160  -4.884  -3.106  0.00  0.00    +0.250 A 
ATOM     15  N   LIG    1        6.044  -4.403  -1.884  0.00  0.00    -0.470 NA
ENDBRANCH   1  10
BRANCH   1  16
ATOM     16  N   LIG    1        4.836  -2.615   0.174  0.00  0.00    -0.730 N 
ATOM     17  H   LIG    1        5.654  -2.092   0.187  0.00  0.00    +0.400 HD
ATOM     18  C   LIG    1        3.642  -1.996   0.083  0.00  0.00    +0.710 C 
ATOM     19  N   LIG    1        3.584  -0.651   0.012  0.00  0.00    -0.680 N 
ATOM     20  H   LIG    1        4.402  -0.132  -0.032  0.00  0.00    +0.410 HD
ATOM     21  O   LIG    1        2.618  -2.651   0.066  0.00  0.00    -0.560 OA
BRANCH  19  22
ATOM     22  C   LIG    1        2.347  -0.006   0.000  0.00  0.00    +0.210 A 
ATOM     23  C   LIG    1        1.240  -0.593  -0.613  0.00  0.00    -0.020 A 
ATOM     24  C   LIG    1        0.035   0.077  -0.602  0.00  0.00    +0.270 A 
ATOM     25  N   LIG    1       -0.079   1.257  -0.021  0.00  0.00    -0.490 NA
ATOM     26  C   LIG    1        0.945   1.844   0.570  0.00  0.00    +0.280 A 
ATOM     27  C   LIG    1        2.184   1.240   0.602  0.00  0.00    -0.170 A 
ATOM     28  C   LIG    1        3.348   1.919   1.279  0.00  0.00    +0.100 C 
ENDBRANCH  19  22
ENDBRANCH   1  16
TORSDOF 5
