REMARK  Name = ZINCnE000001Txer.1
REMARK                            x       y       z     vdW  Elec       q    Type
REMARK                         _______ _______ _______ _____ _____    ______ ____
ROOT
ATOM      1  C   LIG    1       -8.764   1.064   2.345  0.00  0.00    +0.220 C 
ATOM      2  C   LIG    1       -9.334   1.738   3.610  0.00  0.00    +0.050 C 
ATOM      3  C   LIG    1       -8.062   2.063   4.436  0.00  0.00    +0.020 C 
ATOM      4  C   LIG    1       -7.048   2.416   3.320  0.00  0.00    +0.230 C 
ATOM      5  N   LIG    1       -7.362   1.488   2.218  0.00  0.00    -0.600 N 
ATOM      6  C   LIG    1       -6.507   1.099   1.252  0.00  0.00    +0.530 C 
ATOM      7  O   LIG    1       -6.876   0.328   0.391  0.00  0.00    -0.520 OA
ENDROOT
BRANCH   1   9
ATOM      8  O   LIG    1       -8.988   2.111   0.241  0.00  0.00    -0.560 OA
ATOM      9  C   LIG    1       -9.543   1.502   1.131  0.00  0.00    +0.460 C 
ATOM     10  N   LIG    1      -10.857   1.216   1.035  0.00  0.00    -0.690 NA
BRANCH  10  11
ATOM     11  C   LIG    1      -11.576   1.620  -0.084  0.00  0.00    +0.350 A 
ATOM     12  N   LIG    1      -11.082   2.279  -1.085  0.00  0.00    -0.570 NA
ATOM     13  C   LIG    1      -11.909   2.578  -2.069  0.00  0.00    +0.230 A 
ATOM     14  C   LIG    1      -13.164   2.161  -1.886  0.00  0.00    -0.220 A 
ATOM     15  S   LIG    1      -13.241   1.327  -0.336  0.00  0.00    -0.000 S 
ENDBRANCH  10  11
ENDBRANCH   1   9
BRANCH   6  16
ATOM     16  C   LIG    1       -5.093   1.620   1.241  0.00  0.00    +0.050 C 
BRANCH  16  17
ATOM     17  C   LIG    1       -4.340   1.027   0.049  0.00  0.00    +0.040 C 
BRANCH  17  18
ATOM     18  C   LIG    1       -2.904   1.556   0.038  0.00  0.00    -0.020 C 
ATOM     19  C   LIG    1       -2.188   1.063  -1.221  0.00  0.00    +0.000 C 
ATOM     20  C   LIG    1       -0.753   1.593  -1.232  0.00  0.00    +0.000 C 
ATOM     21  C   LIG    1       -0.013   1.086   0.008  0.00  0.00    +0.000 C 
ATOM     22  C   LIG    1       -0.729   1.579   1.267  0.00  0.00    +0.000 C 
ATOM     23  C   LIG    1       -2.164   1.050   1.278  0.00  0.00    +0.000 C 
ENDBRANCH  17  18
ENDBRANCH  16  17
ENDBRANCH   6  16
TORSDOF 5
