REMARK  Name = ZINC650000003WzB.0
REMARK                            x       y       z     vdW  Elec       q    Type
REMARK                         _______ _______ _______ _____ _____    ______ ____
ROOT
ATOM      1  S   LIG    1        0.002  -0.004   0.002  0.00  0.00    -0.640 S 
ATOM      2  C   LIG    1       -0.021   1.708   0.011  0.00  0.00    +0.570 C 
ATOM      3  N   LIG    1       -1.154   2.423   0.020  0.00  0.00    -0.680 N 
ATOM      4  H   LIG    1       -2.051   2.054   0.022  0.00  0.00    +0.450 HD
ATOM      5  C   LIG    1       -0.821   3.855   0.031  0.00  0.00    +0.270 C 
ATOM      6  C   LIG    1        0.720   3.876   0.016  0.00  0.00    +0.270 C 
ATOM      7  N   LIG    1        1.092   2.453   0.005  0.00  0.00    -0.680 N 
ATOM      8  H   LIG    1        1.999   2.109  -0.006  0.00  0.00    +0.450 HD
ENDROOT
TORSDOF 0
