REMARK  Name = ZINCpk00000y6yZY.0
REMARK                            x       y       z     vdW  Elec       q    Type
REMARK                         _______ _______ _______ _____ _____    ______ ____
ROOT
ATOM      1  N   LIG    1        2.120   1.159   1.207  0.00  0.00    -0.540 NA
ATOM      2  C   LIG    1        1.435   1.633   2.417  0.00  0.00    +0.200 C 
ATOM      3  C   LIG    1       -0.001   1.103   2.428  0.00  0.00    +0.200 C 
ATOM      4  N   LIG    1       -0.698   1.560   1.218  0.00  0.00    -0.540 NA
ATOM      5  C   LIG    1       -0.013   1.086   0.008  0.00  0.00    +0.280 C 
ATOM      6  C   LIG    1       -2.104   1.134   1.228  0.00  0.00    +0.200 C 
ATOM      7  C   LIG    1        1.423   1.616  -0.003  0.00  0.00    +0.210 C 
ENDROOT
BRANCH   5   8
ATOM      8  C   LIG    1       -0.742   1.585  -1.212  0.00  0.00    +0.190 A 
ATOM      9  N   LIG    1       -1.041   0.890  -2.283  0.00  0.00    -0.470 NA
ATOM     10  C   LIG    1       -1.687   1.741  -3.099  0.00  0.00    +0.200 A 
ATOM     11  N   LIG    1       -1.741   2.892  -2.498  0.00  0.00    -0.380 NA
ATOM     12  O   LIG    1       -1.204   2.824  -1.412  0.00  0.00    +0.100 OA
BRANCH  10  13
ATOM     13  C   LIG    1       -2.242   1.421  -4.463  0.00  0.00    +0.060 C 
ATOM     14  C   LIG    1       -2.754   2.589  -5.309  0.00  0.00    +0.050 C 
ATOM     15  C   LIG    1       -3.746   1.609  -4.676  0.00  0.00    +0.050 C 
ENDBRANCH  10  13
ENDBRANCH   5   8
BRANCH   1  16
ATOM     16  C   LIG    1        3.526   1.585   1.197  0.00  0.00    +0.320 C 
BRANCH  16  19
ATOM     17  C   LIG    1        5.017  -1.164   1.072  0.00  0.00    +0.340 C 
ATOM     18  N   LIG    1        4.907  -0.292   2.244  0.00  0.00    -0.460 N 
ATOM     19  C   LIG    1        4.267   0.900   2.317  0.00  0.00    +0.180 A 
ATOM     20  N   LIG    1        4.415   1.347   3.534  0.00  0.00    -0.280 NA
ATOM     21  N   LIG    1        5.098   0.505   4.224  0.00  0.00    -0.290 NA
ATOM     22  C   LIG    1        5.426  -0.514   3.477  0.00  0.00    +0.210 A 
BRANCH  22  23
ATOM     23  C   LIG    1        6.231  -1.714   3.904  0.00  0.00    +0.030 C 
ATOM     24  C   LIG    1        6.545  -1.859   5.394  0.00  0.00    +0.070 C 
ATOM     25  C   LIG    1        7.652  -1.466   4.414  0.00  0.00    +0.050 C 
ENDBRANCH  22  23
ENDBRANCH  16  19
ENDBRANCH   1  16
TORSDOF 5
