REMARK  Name = ZINCpe000000VLyc.0
REMARK                            x       y       z     vdW  Elec       q    Type
REMARK                         _______ _______ _______ _____ _____    ______ ____
ROOT
ATOM      1  C   LIG    1        2.353   1.390  -0.039  0.00  0.00    -0.160 A 
ATOM      2  C   LIG    1        2.060   0.565   1.027  0.00  0.00    +0.490 A 
ATOM      3  N   LIG    1        0.870  -0.125   1.035  0.00  0.00    -0.540 N 
ATOM      4  C   LIG    1        0.002   0.003   0.015  0.00  0.00    +0.710 A 
ATOM      5  N   LIG    1        0.270   0.803  -1.032  0.00  0.00    -0.660 N 
ATOM      6  H   LIG    1       -0.370   0.875  -1.757  0.00  0.00    +0.430 HD
ATOM      7  O   LIG    1       -1.044  -0.616   0.041  0.00  0.00    -0.530 OA
ATOM      8  C   LIG    1        1.421   1.501  -1.089  0.00  0.00    +0.560 A 
ATOM      9  O   LIG    1        1.655   2.223  -2.043  0.00  0.00    -0.500 OA
ENDROOT
BRANCH   1  10
ATOM     10  N   LIG    1        3.565   2.112  -0.077  0.00  0.00    -0.520 N 
ATOM     11  C   LIG    1        3.551   3.459   0.003  0.00  0.00    +0.560 C 
ATOM     12  O   LIG    1        4.581   4.085  -0.132  0.00  0.00    -0.530 OA
BRANCH  11  13
ATOM     13  C   LIG    1        2.256   4.185   0.259  0.00  0.00    -0.060 C 
ATOM     14  C   LIG    1        1.623   4.937  -0.914  0.00  0.00    +0.070 C 
ATOM     15  C   LIG    1        2.285   5.714   0.226  0.00  0.00    -0.010 C 
ATOM     16  C   LIG    1        1.368   6.459   1.198  0.00  0.00    +0.070 C 
ENDBRANCH  11  13
BRANCH  10  17
ATOM     17  C   LIG    1        4.838   1.398  -0.201  0.00  0.00    +0.270 C 
BRANCH  17  18
ATOM     18  C   LIG    1        5.129   1.128  -1.679  0.00  0.00    +0.020 C 
BRANCH  18  19
ATOM     19  C   LIG    1        6.459   0.383  -1.809  0.00  0.00    +0.160 C 
BRANCH  19  21
ATOM     20  C   LIG    1        7.957  -0.564  -3.423  0.00  0.00    +0.200 C 
ATOM     21  O   LIG    1        6.731   0.131  -3.189  0.00  0.00    -0.390 OA
ENDBRANCH  19  21
ENDBRANCH  18  19
ENDBRANCH  17  18
ENDBRANCH  10  17
ENDBRANCH   1  10
BRANCH   2  22
ATOM     22  N   LIG    1        2.947   0.433   2.068  0.00  0.00    -0.830 N 
ATOM     23  H   LIG    1        3.813   0.867   2.025  0.00  0.00    +0.430 HD
ATOM     24  H   LIG    1        2.706  -0.093   2.847  0.00  0.00    +0.410 HD
ENDBRANCH   2  22
BRANCH   3  25
ATOM     25  C   LIG    1        0.546  -1.005   2.161  0.00  0.00    +0.310 C 
BRANCH  25  26
ATOM     26  C   LIG    1        1.069  -2.414   1.873  0.00  0.00    -0.040 C 
ATOM     27  C   LIG    1        0.322  -3.000   0.674  0.00  0.00    +0.040 C 
ATOM     28  C   LIG    1        0.842  -3.302   3.099  0.00  0.00    +0.040 C 
ENDBRANCH  25  26
ENDBRANCH   3  25
TORSDOF 9
