REMARK  Name = ZINCpe000000XuHu.0
REMARK                            x       y       z     vdW  Elec       q    Type
REMARK                         _______ _______ _______ _____ _____    ______ ____
ROOT
ATOM      1  C   LIG    1        1.121   6.019  -0.314  0.00  0.00    +0.320 C 
ENDROOT
BRANCH   1  11
ATOM      2  C   LIG    1       -3.705   5.828   0.384  0.00  0.00    +0.100 C 
ATOM      3  C   LIG    1       -2.434   5.056   0.746  0.00  0.00    +0.180 C 
ATOM      4  O   LIG    1       -2.419   3.809   0.046  0.00  0.00    -0.300 OA
ATOM      5  C   LIG    1       -1.240   3.132   0.030  0.00  0.00    +0.080 A 
ATOM      6  C   LIG    1       -1.222   1.748   0.017  0.00  0.00    +0.030 A 
ATOM      7  C   LIG    1       -0.013   1.076   0.008  0.00  0.00    +0.030 A 
ATOM      8  C   LIG    1        1.177   1.780   0.000  0.00  0.00    +0.020 A 
ATOM      9  C   LIG    1        1.166   3.164   0.008  0.00  0.00    +0.000 A 
ATOM     10  C   LIG    1       -0.041   3.843   0.022  0.00  0.00    +0.090 A 
ATOM     11  N   LIG    1       -0.075   5.244   0.029  0.00  0.00    -0.550 N 
ATOM     12  C   LIG    1       -1.226   5.870   0.358  0.00  0.00    +0.490 C 
ATOM     13  O   LIG    1       -1.287   7.081   0.342  0.00  0.00    -0.500 OA
ENDBRANCH   1  11
BRANCH   1  14
ATOM     14  C   LIG    1        1.140   6.286  -1.821  0.00  0.00    +0.040 C 
BRANCH  14  15
ATOM     15  C   LIG    1        2.369   7.082  -2.174  0.00  0.00    +0.530 C 
ATOM     16  N   LIG    1        2.598   7.436  -3.454  0.00  0.00    -0.610 N 
ATOM     17  C   LIG    1        1.651   7.047  -4.502  0.00  0.00    +0.290 C 
ATOM     18  O   LIG    1        3.153   7.405  -1.306  0.00  0.00    -0.530 OA
BRANCH  16  19
ATOM     19  C   LIG    1        3.793   8.211  -3.798  0.00  0.00    +0.280 C 
ATOM     20  C   LIG    1        3.377   9.548  -4.435  0.00  0.00    +0.060 C 
ATOM     21  C   LIG    1        4.657  10.155  -5.067  0.00  0.00    -0.310 C 
ATOM     22  S   LIG    1        5.441   8.699  -5.856  0.00  0.00    +2.400 S 
ATOM     23  O   LIG    1        6.839   8.719  -5.597  0.00  0.00    -0.930 OA
ATOM     24  O   LIG    1        4.970   8.575  -7.191  0.00  0.00    -0.930 OA
ATOM     25  C   LIG    1        4.647   7.424  -4.812  0.00  0.00    -0.330 C 
ENDBRANCH  16  19
ENDBRANCH  14  15
ENDBRANCH   1  14
TORSDOF 4
