REMARK  Name = ZINCpk00000ki9fj.0
REMARK                            x       y       z     vdW  Elec       q    Type
REMARK                         _______ _______ _______ _____ _____    ______ ____
ROOT
ATOM      1  N   LIG    1        0.373   3.988   1.253  0.00  0.00    -0.620 N 
ATOM      2  C   LIG    1       -1.007   3.902   1.736  0.00  0.00    +0.300 C 
ATOM      3  C   LIG    1       -1.001   3.569   3.233  0.00  0.00    +0.090 C 
ATOM      4  C   LIG    1       -0.012   4.466   3.934  0.00  0.00    +0.520 C 
ATOM      5  N   LIG    1        1.118   4.840   3.306  0.00  0.00    -0.570 N 
ATOM      6  O   LIG    1       -0.235   4.850   5.062  0.00  0.00    -0.490 OA
ATOM      7  C   LIG    1        1.344   4.499   2.027  0.00  0.00    +0.710 C 
ATOM      8  O   LIG    1        2.454   4.656   1.558  0.00  0.00    -0.540 OA
ENDROOT
BRANCH   1   9
ATOM      9  C   LIG    1        0.697   3.516  -0.096  0.00  0.00    +0.380 C 
BRANCH   9  14
ATOM     10  C   LIG    1        1.666   0.022  -1.157  0.00  0.00    +0.130 A 
ATOM     11  C   LIG    1        1.775  -0.617   0.069  0.00  0.00    -0.080 A 
ATOM     12  C   LIG    1        1.535   0.083   1.236  0.00  0.00    +0.040 A 
ATOM     13  C   LIG    1        1.187   1.420   1.181  0.00  0.00    -0.020 A 
ATOM     14  C   LIG    1        1.077   2.059  -0.040  0.00  0.00    -0.070 A 
ATOM     15  C   LIG    1        1.316   1.363  -1.209  0.00  0.00    -0.110 A 
ATOM     16  C   LIG    1        1.203   2.062  -2.539  0.00  0.00    +0.100 C 
BRANCH  10  18
ATOM     17  C   LIG    1        2.257  -2.043  -2.177  0.00  0.00    +0.250 C 
ATOM     18  O   LIG    1        1.901  -0.665  -2.306  0.00  0.00    -0.310 OA
ENDBRANCH  10  18
ENDBRANCH   9  14
ENDBRANCH   1   9
BRANCH   5  19
ATOM     19  C   LIG    1        2.117   5.630   4.030  0.00  0.00    +0.440 C 
BRANCH  19  20
ATOM     20  C   LIG    1        1.826   7.097   3.848  0.00  0.00    -0.030 A 
ATOM     21  N   LIG    1        2.205   7.861   2.849  0.00  0.00    -0.260 NA
ATOM     22  N   LIG    1        1.764   9.052   3.049  0.00  0.00    -0.160 N 
ATOM     23  N   LIG    1        1.101   9.113   4.149  0.00  0.00    -0.290 NA
ATOM     24  C   LIG    1        1.986  10.185   2.147  0.00  0.00    +0.400 C 
ATOM     25  C   LIG    1        1.092   7.922   4.703  0.00  0.00    +0.200 A 
ENDBRANCH  19  20
ENDBRANCH   5  19
TORSDOF 5
