REMARK  Name = ZINCrH000004mnPS.0
REMARK                            x       y       z     vdW  Elec       q    Type
REMARK                         _______ _______ _______ _____ _____    ______ ____
ROOT
ATOM      1  C   LIG    1        0.618   3.738  -0.197  0.00  0.00    +0.260 A 
ATOM      2  N   LIG    1       -0.690   3.701  -0.127  0.00  0.00    -0.460 NA
ATOM      3  C   LIG    1       -1.078   2.401  -0.051  0.00  0.00    -0.070 A 
ATOM      4  C   LIG    1        0.052   1.640  -0.067  0.00  0.00    +0.060 A 
ATOM      5  C   LIG    1        0.118   0.136   0.001  0.00  0.00    +0.210 C 
ATOM      6  O   LIG    1        1.095   2.481  -0.161  0.00  0.00    -0.190 OA
ENDROOT
BRANCH   3   7
ATOM      7  C   LIG    1       -2.464   1.907   0.037  0.00  0.00    +0.610 C 
ATOM      8  N   LIG    1       -3.494   2.770  -0.058  0.00  0.00    -0.540 N 
ATOM      9  C   LIG    1       -3.269   4.202  -0.315  0.00  0.00    +0.310 C 
ATOM     10  C   LIG    1       -4.240   4.984   0.581  0.00  0.00    +0.190 C 
ATOM     11  N   LIG    1       -5.616   4.637   0.212  0.00  0.00    -0.500 N 
ATOM     12  C   LIG    1       -5.854   3.262   0.222  0.00  0.00    +0.090 A 
ATOM     13  C   LIG    1       -7.161   2.808   0.370  0.00  0.00    -0.020 A 
ATOM     14  C   LIG    1       -7.430   1.450   0.361  0.00  0.00    +0.010 A 
ATOM     15  C   LIG    1       -6.403   0.536   0.221  0.00  0.00    +0.000 A 
ATOM     16  C   LIG    1       -5.100   0.976   0.081  0.00  0.00    +0.040 A 
ATOM     17  C   LIG    1       -6.582   5.345   1.062  0.00  0.00    +0.220 C 
ATOM     18  C   LIG    1       -4.824   2.335   0.080  0.00  0.00    +0.110 A 
ATOM     19  O   LIG    1       -2.677   0.720   0.195  0.00  0.00    -0.510 OA
ENDBRANCH   3   7
BRANCH   1  23
ATOM     20  C   LIG    1        2.972   7.263  -0.486  0.00  0.00    +0.150 A 
ATOM     21  C   LIG    1        3.590   6.026  -0.352  0.00  0.00    -0.010 A 
ATOM     22  C   LIG    1        2.830   4.881  -0.258  0.00  0.00    +0.100 A 
ATOM     23  C   LIG    1        1.437   4.964  -0.297  0.00  0.00    -0.070 A 
ATOM     24  C   LIG    1        0.819   6.209  -0.438  0.00  0.00    +0.120 A 
ATOM     25  C   LIG    1        1.586   7.350  -0.526  0.00  0.00    -0.070 A 
BRANCH  20  27
ATOM     26  C   LIG    1        3.025   9.628  -0.715  0.00  0.00    +0.240 C 
ATOM     27  O   LIG    1        3.725   8.390  -0.579  0.00  0.00    -0.310 OA
ENDBRANCH  20  27
ENDBRANCH   1  23
TORSDOF 3
