REMARK  Name = ZINCvU0000000Cx1.0
REMARK                            x       y       z     vdW  Elec       q    Type
REMARK                         _______ _______ _______ _____ _____    ______ ____
ROOT
ATOM      1  N   LIG    1      -11.251   3.406   1.750  0.00  0.00    -0.610 N 
ATOM      2  C   LIG    1      -10.233   3.508   2.628  0.00  0.00    +0.520 C 
ATOM      3  O   LIG    1      -10.445   3.884   3.761  0.00  0.00    -0.500 OA
ENDROOT
BRANCH   1   4
ATOM      4  C   LIG    1      -10.994   2.952   0.381  0.00  0.00    +0.280 C 
BRANCH   4   6
ATOM      5  C   LIG    1      -10.855   0.954  -1.113  0.00  0.00    +0.030 C 
ATOM      6  C   LIG    1      -11.123   1.429   0.317  0.00  0.00    +0.000 C 
ENDBRANCH   4   6
ENDBRANCH   1   4
BRANCH   2   7
ATOM      7  C   LIG    1       -8.832   3.155   2.201  0.00  0.00    +0.240 C 
BRANCH   7   8
ATOM      8  O   LIG    1       -7.937   3.344   3.300  0.00  0.00    -0.290 OA
BRANCH   8   9
ATOM      9  C   LIG    1       -6.625   3.068   3.081  0.00  0.00    +0.150 A 
ATOM     10  C   LIG    1       -5.703   3.230   4.107  0.00  0.00    +0.000 A 
ATOM     11  C   LIG    1       -4.371   2.952   3.890  0.00  0.00    +0.080 A 
ATOM     12  C   LIG    1       -3.949   2.507   2.636  0.00  0.00    -0.070 A 
ATOM     13  C   LIG    1       -4.878   2.350   1.605  0.00  0.00    +0.110 A 
ATOM     14  C   LIG    1       -6.209   2.625   1.833  0.00  0.00    -0.080 A 
BRANCH  12  15
ATOM     15  C   LIG    1       -2.521   2.207   2.398  0.00  0.00    +0.130 A 
ATOM     16  N   LIG    1       -2.013   1.792   1.273  0.00  0.00    -0.470 NA
ATOM     17  C   LIG    1       -0.718   1.572   1.248  0.00  0.00    +0.070 A 
ATOM     18  C   LIG    1       -0.064   1.811   2.389  0.00  0.00    -0.070 A 
ATOM     19  C   LIG    1       -0.013   1.086   0.008  0.00  0.00    +0.160 C 
ATOM     20  S   LIG    1       -1.232   2.360   3.589  0.00  0.00    +0.090 S 
ENDBRANCH  12  15
ENDBRANCH   8   9
ENDBRANCH   7   8
ENDBRANCH   2   7
BRANCH   1  21
ATOM     21  C   LIG    1      -12.613   3.749   2.165  0.00  0.00    +0.480 C 
BRANCH  21  22
ATOM     22  C   LIG    1      -12.865   5.211   1.901  0.00  0.00    +0.140 A 
ATOM     23  N   LIG    1      -13.347   5.723   0.804  0.00  0.00    -0.260 NA
ATOM     24  N   LIG    1      -13.431   7.001   0.924  0.00  0.00    -0.270 NA
ATOM     25  C   LIG    1      -13.001   7.353   2.116  0.00  0.00    +0.250 A 
ATOM     26  O   LIG    1      -12.639   6.223   2.759  0.00  0.00    -0.210 OA
BRANCH  25  27
ATOM     27  C   LIG    1      -12.933   8.721   2.651  0.00  0.00    -0.160 A 
ATOM     28  C   LIG    1      -13.308   9.847   1.984  0.00  0.00    +0.100 A 
ATOM     29  C   LIG    1      -13.149  11.013   2.699  0.00  0.00    +0.020 A 
ATOM     30  C   LIG    1      -12.652  10.862   3.931  0.00  0.00    -0.010 A 
ATOM     31  S   LIG    1      -12.360   9.159   4.255  0.00  0.00    +0.180 S 
ENDBRANCH  25  27
ENDBRANCH  21  22
ENDBRANCH   1  21
TORSDOF 9
