REMARK  Name = ZINCvU0000000C2W.0
REMARK                            x       y       z     vdW  Elec       q    Type
REMARK                         _______ _______ _______ _____ _____    ______ ____
ROOT
ATOM      1  C   LIG    1       -2.649   4.548   0.039  0.00  0.00    +0.040 A 
ATOM      2  C   LIG    1       -2.970   5.866   0.048  0.00  0.00    -0.540 A 
ATOM      3  N   LIG    1       -4.307   5.962   0.055  0.00  0.00    -0.370 NA
ATOM      4  C   LIG    1       -4.817   4.750   0.051  0.00  0.00    +0.270 A 
ATOM      5  O   LIG    1       -3.808   3.857   0.035  0.00  0.00    -0.170 OA
ENDROOT
BRANCH   4   6
ATOM      6  C   LIG    1       -6.250   4.424   0.056  0.00  0.00    +0.040 A 
ATOM      7  C   LIG    1       -6.786   3.170   0.046  0.00  0.00    +0.020 A 
ATOM      8  C   LIG    1       -8.185   3.328   0.059  0.00  0.00    -0.060 A 
ATOM      9  C   LIG    1       -8.434   4.652   0.068  0.00  0.00    +0.220 A 
ATOM     10  O   LIG    1       -7.264   5.312   0.066  0.00  0.00    -0.140 OA
ENDBRANCH   4   6
BRANCH   2  11
ATOM     11  S   LIG    1       -1.832   7.211   0.049  0.00  0.00    +2.610 S 
ATOM     12  O   LIG    1       -0.616   6.708   0.585  0.00  0.00    -0.900 OA
ATOM     13  O   LIG    1       -2.524   8.322   0.603  0.00  0.00    -0.900 OA
BRANCH  11  14
ATOM     14  C   LIG    1       -1.504   7.619  -1.633  0.00  0.00    -0.650 A 
ATOM     15  C   LIG    1       -0.457   7.009  -2.300  0.00  0.00    +0.150 A 
ATOM     16  C   LIG    1       -0.203   7.324  -3.622  0.00  0.00    +0.040 A 
ATOM     17  C   LIG    1       -0.989   8.258  -4.274  0.00  0.00    -0.040 A 
ATOM     18  C   LIG    1       -2.032   8.871  -3.604  0.00  0.00    +0.040 A 
ATOM     19 BR   LIG    1       -0.636   8.695  -6.079  0.00  0.00    -0.030 Br
ATOM     20  C   LIG    1       -2.289   8.551  -2.284  0.00  0.00    +0.150 A 
ENDBRANCH  11  14
ENDBRANCH   2  11
BRANCH   1  21
ATOM     21  S   LIG    1       -1.024   3.867   0.028  0.00  0.00    +0.160 S 
BRANCH  21  22
ATOM     22  C   LIG    1       -1.331   2.079   0.020  0.00  0.00    +0.070 C 
BRANCH  22  24
ATOM     23  O   LIG    1        1.026   1.964   0.003  0.00  0.00    -0.510 OA
ATOM     24  C   LIG    1       -0.016   1.344   0.009  0.00  0.00    +0.540 C 
ATOM     25  N   LIG    1        0.002  -0.004   0.002  0.00  0.00    -0.720 N 
ATOM     26  H   LIG    1       -0.831  -0.500   0.007  0.00  0.00    +0.400 HD
BRANCH  25  27
ATOM     27  C   LIG    1        1.281  -0.719  -0.014  0.00  0.00    +0.230 C 
ATOM     28  C   LIG    1        1.773  -0.851  -1.456  0.00  0.00    +0.000 C 
ATOM     29  C   LIG    1        3.108  -1.598  -1.473  0.00  0.00    +0.020 C 
ATOM     30  C   LIG    1        2.921  -2.991  -0.869  0.00  0.00    +0.010 C 
ATOM     31  C   LIG    1        2.428  -2.859   0.573  0.00  0.00    +0.020 C 
ATOM     32  C   LIG    1        1.093  -2.112   0.590  0.00  0.00    +0.010 C 
ENDBRANCH  25  27
ENDBRANCH  22  24
ENDBRANCH  21  22
ENDBRANCH   1  21
TORSDOF 7
