REMARK  Name = ZINCrH000004lDfJ.0
REMARK                            x       y       z     vdW  Elec       q    Type
REMARK                         _______ _______ _______ _____ _____    ______ ____
ROOT
ATOM      1  C   LIG    1        5.959  -0.452  -0.353  0.00  0.00    +0.500 A 
ATOM      2  N   LIG    1        6.919   0.074   0.394  0.00  0.00    -0.550 NA
ATOM      3  C   LIG    1        8.098  -0.517   0.493  0.00  0.00    +0.210 A 
ATOM      4  C   LIG    1        8.323  -1.699  -0.195  0.00  0.00    -0.100 A 
ATOM      5  C   LIG    1        7.296  -2.221  -0.967  0.00  0.00    +0.220 A 
ATOM      6  N   LIG    1        6.139  -1.583  -1.019  0.00  0.00    -0.530 NA
ENDROOT
BRANCH   1  12
ATOM      7  C   LIG    1       -0.016   1.314   0.009  0.00  0.00    +0.320 A 
ATOM      8  N   LIG    1        0.002  -0.004   0.002  0.00  0.00    -0.500 NA
ATOM      9  C   LIG    1        1.148  -0.665  -0.011  0.00  0.00    +0.330 A 
ATOM     10  C   LIG    1        2.339   0.048  -0.016  0.00  0.00    -0.190 A 
ATOM     11  C   LIG    1        3.645  -0.696  -0.021  0.00  0.00    +0.290 C 
ATOM     12  N   LIG    1        4.737   0.193  -0.435  0.00  0.00    -0.460 N 
ATOM     13  C   LIG    1        4.734   1.421   0.376  0.00  0.00    +0.240 C 
ATOM     14  C   LIG    1        3.527   2.270  -0.028  0.00  0.00    +0.140 C 
ATOM     15  C   LIG    1        2.280   1.427  -0.012  0.00  0.00    +0.190 A 
ATOM     16  N   LIG    1        1.095   2.022   0.003  0.00  0.00    -0.500 NA
BRANCH   7  17
ATOM     17  C   LIG    1       -1.342   2.029   0.019  0.00  0.00    +0.290 C 
BRANCH  17  19
ATOM     18  C   LIG    1       -3.008   2.924   1.492  0.00  0.00    +0.220 C 
ATOM     19  O   LIG    1       -1.755   2.248   1.370  0.00  0.00    -0.380 OA
ENDBRANCH  17  19
ENDBRANCH   7  17
ENDBRANCH   1  12
BRANCH   5  20
ATOM     20  C   LIG    1        7.495  -3.504  -1.732  0.00  0.00    +0.050 C 
ATOM     21  C   LIG    1        8.445  -4.440  -0.957  0.00  0.00    +0.030 C 
ATOM     22  C   LIG    1        9.288  -5.125  -2.062  0.00  0.00    +0.020 C 
ATOM     23  C   LIG    1        9.508  -3.981  -3.084  0.00  0.00    +0.010 C 
ATOM     24  C   LIG    1        8.170  -3.212  -3.084  0.00  0.00    +0.020 C 
ENDBRANCH   5  20
BRANCH   3  25
ATOM     25  C   LIG    1        9.185   0.088   1.344  0.00  0.00    +0.040 C 
ATOM     26  C   LIG    1       10.545  -0.167   0.692  0.00  0.00    +0.040 C 
ATOM     27  C   LIG    1        9.159  -0.551   2.734  0.00  0.00    +0.050 C 
ENDBRANCH   3  25
TORSDOF 5
