REMARK  Name = ZINCvU0000000IRG.0
REMARK                            x       y       z     vdW  Elec       q    Type
REMARK                         _______ _______ _______ _____ _____    ______ ____
ROOT
ATOM      1  C   LIG    1        0.999  -1.998  -0.018  0.00  0.00    +0.280 A 
ATOM      2  N   LIG    1        1.137  -0.711  -0.012  0.00  0.00    -0.450 NA
ATOM      3  C   LIG    1        0.002  -0.004   0.002  0.00  0.00    +0.090 A 
ATOM      4  C   LIG    1       -1.136  -0.756   0.014  0.00  0.00    -0.080 A 
ATOM      5  S   LIG    1       -0.711  -2.412  -0.004  0.00  0.00    +0.170 S 
ENDROOT
BRANCH   1   8
ATOM      6  C   LIG    1        4.453  -3.474  -0.057  0.00  0.00    +0.110 C 
ATOM      7  C   LIG    1        3.320  -2.481  -0.042  0.00  0.00    +0.510 C 
ATOM      8  N   LIG    1        2.044  -2.914  -0.032  0.00  0.00    -0.480 N 
ATOM      9  O   LIG    1        3.556  -1.291  -0.037  0.00  0.00    -0.470 OA
BRANCH   8  10
ATOM     10  C   LIG    1        1.771  -4.288  -0.037  0.00  0.00    +0.100 A 
ATOM     11  C   LIG    1        1.619  -4.963  -1.241  0.00  0.00    +0.030 A 
ATOM     12  C   LIG    1        1.355  -6.318  -1.243  0.00  0.00    +0.030 A 
ATOM     13  C   LIG    1        1.231  -7.002  -0.047  0.00  0.00    +0.040 A 
ATOM     14  C   LIG    1        1.377  -6.331   1.154  0.00  0.00    -0.080 A 
ATOM     15  C   LIG    1        1.242  -7.080   2.455  0.00  0.00    +0.100 C 
ATOM     16  C   LIG    1        1.646  -4.977   1.162  0.00  0.00    -0.060 A 
ATOM     17  C   LIG    1        1.805  -4.247   2.471  0.00  0.00    +0.100 C 
ENDBRANCH   8  10
ENDBRANCH   1   8
BRANCH   3  18
ATOM     18  C   LIG    1       -0.018   1.461   0.010  0.00  0.00    +0.170 C 
ATOM     19  C   LIG    1        1.147   2.154   0.003  0.00  0.00    -0.060 C 
BRANCH  19  20
ATOM     20  C   LIG    1        1.128   3.569   0.011  0.00  0.00    +0.430 C 
ATOM     21  O   LIG    1        0.064   4.163   0.024  0.00  0.00    -0.460 OA
BRANCH  20  22
ATOM     22  C   LIG    1        2.397   4.325   0.002  0.00  0.00    -0.170 A 
ATOM     23  C   LIG    1        3.617   3.644  -0.007  0.00  0.00    +0.090 A 
ATOM     24  C   LIG    1        4.798   4.353  -0.019  0.00  0.00    -0.010 A 
ATOM     25  C   LIG    1        4.777   5.743  -0.012  0.00  0.00    +0.140 A 
ATOM     26  C   LIG    1        3.565   6.423   0.003  0.00  0.00    -0.130 A 
ATOM     27  C   LIG    1        2.380   5.722   0.010  0.00  0.00    +0.100 A 
BRANCH  25  28
ATOM     28  O   LIG    1        5.944   6.437  -0.020  0.00  0.00    -0.490 OA
ATOM     29  H   LIG    1        6.290   6.634   0.862  0.00  0.00    +0.390 HD
ENDBRANCH  25  28
BRANCH  26  30
ATOM     30  C   LIG    1        3.548   7.930   0.011  0.00  0.00    +0.090 C 
BRANCH  30  31
ATOM     31  C   LIG    1        3.806   8.435   1.432  0.00  0.00    +0.150 C 
ATOM     32 CL   LIG    1        3.786  10.238   1.442  0.00  0.00    -0.180 Cl
ENDBRANCH  30  31
ENDBRANCH  26  30
ENDBRANCH  20  22
ENDBRANCH  19  20
ENDBRANCH   3  18
TORSDOF 8
