REMARK  Name = ZINCvU00000005ln.0
REMARK                            x       y       z     vdW  Elec       q    Type
REMARK                         _______ _______ _______ _____ _____    ______ ____
ROOT
ATOM      1  N   LIG    1       -2.428   1.037   0.019  0.00  0.00    -0.550 N 
ATOM      2  C   LIG    1       -2.413  -0.306  -0.090  0.00  0.00    +0.540 C 
ATOM      3  O   LIG    1       -1.357  -0.902  -0.098  0.00  0.00    -0.500 OA
ENDROOT
BRANCH   1   7
ATOM      4  C   LIG    1        1.159   3.164   0.027  0.00  0.00    +0.130 A 
ATOM      5  C   LIG    1        0.377   3.119   1.172  0.00  0.00    +0.000 A 
ATOM      6  C   LIG    1       -0.813   2.418   1.169  0.00  0.00    +0.050 A 
ATOM      7  C   LIG    1       -1.224   1.754   0.021  0.00  0.00    +0.100 A 
ATOM      8  C   LIG    1       -0.443   1.802  -1.126  0.00  0.00    +0.060 A 
ATOM      9  C   LIG    1        0.746   2.504  -1.122  0.00  0.00    -0.070 A 
BRANCH   4  11
ATOM     10  C   LIG    1        3.085   3.858  -1.183  0.00  0.00    +0.250 C 
ATOM     11  O   LIG    1        2.330   3.854   0.030  0.00  0.00    -0.320 OA
ENDBRANCH   4  11
ENDBRANCH   1   7
BRANCH   2  12
ATOM     12  C   LIG    1       -3.709  -1.067  -0.201  0.00  0.00    +0.100 C 
BRANCH  12  13
ATOM     13  S   LIG    1       -3.359  -2.838  -0.332  0.00  0.00    +0.160 S 
BRANCH  13  14
ATOM     14  C   LIG    1       -5.001  -3.467  -0.446  0.00  0.00    +0.120 A 
ATOM     15  N   LIG    1       -6.107  -2.760  -0.425  0.00  0.00    -0.290 NA
ATOM     16  N   LIG    1       -7.120  -3.547  -0.533  0.00  0.00    -0.260 NA
ATOM     17  C   LIG    1       -6.702  -4.786  -0.619  0.00  0.00    +0.220 A 
ATOM     18  O   LIG    1       -5.352  -4.762  -0.565  0.00  0.00    -0.200 OA
BRANCH  17  19
ATOM     19  C   LIG    1       -7.551  -5.988  -0.750  0.00  0.00    -0.030 A 
ATOM     20  C   LIG    1       -6.967  -7.253  -0.837  0.00  0.00    +0.040 A 
ATOM     21  C   LIG    1       -7.766  -8.372  -0.954  0.00  0.00    +0.030 A 
ATOM     22  C   LIG    1       -9.142  -8.241  -0.996  0.00  0.00    +0.040 A 
ATOM     23  C   LIG    1       -9.728  -6.990  -0.915  0.00  0.00    -0.090 A 
ATOM     24  C   LIG    1      -11.228  -6.857  -0.961  0.00  0.00    +0.100 C 
ATOM     25  C   LIG    1       -8.941  -5.864  -0.792  0.00  0.00    +0.070 A 
ENDBRANCH  17  19
ENDBRANCH  13  14
ENDBRANCH  12  13
ENDBRANCH   2  12
BRANCH   1  26
ATOM     26  C   LIG    1       -3.704   1.748   0.136  0.00  0.00    +0.390 C 
BRANCH  26  27
ATOM     27  C   LIG    1       -4.207   2.107  -1.239  0.00  0.00    -0.210 A 
ATOM     28  C   LIG    1       -4.997   1.340  -1.992  0.00  0.00    +0.020 A 
ATOM     29  C   LIG    1       -5.331   1.879  -3.223  0.00  0.00    +0.000 A 
ATOM     30  C   LIG    1       -4.812   3.083  -3.469  0.00  0.00    -0.030 A 
ATOM     31  S   LIG    1       -3.847   3.602  -2.093  0.00  0.00    +0.120 S 
ENDBRANCH  26  27
ENDBRANCH   1  26
TORSDOF 8
