REMARK  Name = ZINCrD000000CY0h.0
REMARK                            x       y       z     vdW  Elec       q    Type
REMARK                         _______ _______ _______ _____ _____    ______ ____
ROOT
ATOM      1  N   LIG    1        6.607   2.840  -1.222  0.00  0.00    -0.720 N 
ATOM      2  H   LIG    1        6.275   3.465  -1.886  0.00  0.00    +0.410 HD
ENDROOT
BRANCH   1   5
ATOM      3  O   LIG    1        5.074   0.638   0.354  0.00  0.00    -0.490 OA
ATOM      4  C   LIG    1        4.924   1.837   0.243  0.00  0.00    +0.500 C 
ATOM      5  C   LIG    1        6.047   2.844   0.132  0.00  0.00    +0.250 C 
ATOM      6  C   LIG    1        5.372   4.201   0.435  0.00  0.00    +0.060 C 
ATOM      7  C   LIG    1        3.903   3.913   0.046  0.00  0.00    +0.260 C 
ATOM      8  N   LIG    1        3.736   2.463   0.201  0.00  0.00    -0.560 N 
BRANCH   8   9
ATOM      9  C   LIG    1        2.498   1.816   0.288  0.00  0.00    +0.180 A 
ATOM     10  C   LIG    1        2.439   0.429   0.310  0.00  0.00    +0.010 A 
ATOM     11  C   LIG    1        1.216  -0.208   0.397  0.00  0.00    +0.060 A 
ATOM     12  C   LIG    1        0.051   0.534   0.462  0.00  0.00    +0.000 A 
ATOM     13  C   LIG    1        0.106   1.917   0.441  0.00  0.00    -0.010 A 
ATOM     14 CL   LIG    1       -1.359   2.845   0.516  0.00  0.00    -0.060 Cl
ATOM     15  C   LIG    1        1.327   2.560   0.355  0.00  0.00    -0.010 A 
ENDBRANCH   8   9
ENDBRANCH   1   5
BRANCH   1  16
ATOM     16  C   LIG    1        7.618   1.937  -1.558  0.00  0.00    +0.230 A 
ATOM     17  C   LIG    1        8.023   0.974  -0.643  0.00  0.00    -0.060 A 
ATOM     18  C   LIG    1        9.023   0.082  -0.979  0.00  0.00    +0.050 A 
ATOM     19  C   LIG    1        9.620   0.147  -2.224  0.00  0.00    -0.050 A 
ATOM     20  C   LIG    1        9.218   1.104  -3.138  0.00  0.00    +0.050 A 
ATOM     21  C   LIG    1        8.216   1.996  -2.811  0.00  0.00    -0.150 A 
BRANCH  21  22
ATOM     22  C   LIG    1        7.776   3.035  -3.809  0.00  0.00    +0.230 C 
BRANCH  22  23
ATOM     23  N   LIG    1        6.471   2.656  -4.367  0.00  0.00    -0.530 NA
ATOM     24  C   LIG    1        6.600   1.509  -5.278  0.00  0.00    +0.150 C 
ATOM     25  C   LIG    1        5.213   1.111  -5.788  0.00  0.00    +0.220 C 
ATOM     26  O   LIG    1        4.601   2.238  -6.421  0.00  0.00    -0.380 OA
ATOM     27  C   LIG    1        4.459   3.373  -5.562  0.00  0.00    +0.220 C 
ATOM     28  C   LIG    1        5.838   3.795  -5.049  0.00  0.00    +0.150 C 
ENDBRANCH  22  23
ENDBRANCH  21  22
ENDBRANCH   1  16
TORSDOF 5
