REMARK  Name = ZINCrD00000lb4Sz.0
REMARK                            x       y       z     vdW  Elec       q    Type
REMARK                         _______ _______ _______ _____ _____    ______ ____
ROOT
ATOM      1  O   LIG    1       -3.008   1.012  -1.175  0.00  0.00    -0.320 OA
ENDROOT
BRANCH   1   2
ATOM      2  C   LIG    1       -2.360   1.248  -0.015  0.00  0.00    +0.540 C 
ATOM      3  O   LIG    1       -2.950   1.139   1.044  0.00  0.00    -0.490 OA
BRANCH   2   5
ATOM      4  C   LIG    1        0.086   0.736   0.016  0.00  0.00    +0.050 A 
ATOM      5  C   LIG    1       -0.948   1.635  -0.030  0.00  0.00    -0.200 A 
ATOM      6  C   LIG    1       -0.495   3.008  -0.092  0.00  0.00    -0.050 A 
ATOM      7  C   LIG    1        0.825   3.121  -0.100  0.00  0.00    -0.250 A 
ATOM      8  C   LIG    1        1.571   4.429  -0.165  0.00  0.00    +0.150 C 
ATOM      9  C   LIG    1       -1.429   4.189  -0.147  0.00  0.00    +0.120 C 
ATOM     10  S   LIG    1        1.587   1.542  -0.026  0.00  0.00    +0.320 S 
BRANCH   4  13
ATOM     11  C   LIG    1        0.850  -2.935   0.190  0.00  0.00    +0.130 C 
ATOM     12  C   LIG    1        1.018  -1.439   0.118  0.00  0.00    +0.510 C 
ATOM     13  N   LIG    1       -0.067  -0.640   0.082  0.00  0.00    -0.630 N 
ATOM     14  H   LIG    1       -0.956  -1.029   0.102  0.00  0.00    +0.420 HD
ATOM     15  O   LIG    1        2.129  -0.954   0.093  0.00  0.00    -0.500 OA
ENDBRANCH   4  13
ENDBRANCH   2   5
ENDBRANCH   1   2
BRANCH   1  16
ATOM     16  C   LIG    1       -4.406   0.632  -1.083  0.00  0.00    +0.270 C 
BRANCH  16  17
ATOM     17  C   LIG    1       -4.958   0.411  -2.468  0.00  0.00    +0.520 C 
ATOM     18  N   LIG    1       -6.246   0.049  -2.631  0.00  0.00    -0.670 N 
ATOM     19  H   LIG    1       -6.798  -0.142  -1.856  0.00  0.00    +0.420 HD
ATOM     20  O   LIG    1       -4.243   0.560  -3.437  0.00  0.00    -0.480 OA
BRANCH  18  21
ATOM     21  C   LIG    1       -6.785  -0.051  -3.911  0.00  0.00    +0.180 A 
ATOM     22  C   LIG    1       -6.351   0.809  -4.916  0.00  0.00    +0.000 A 
ATOM     23  C   LIG    1       -6.875   0.711  -6.179  0.00  0.00    +0.090 A 
ATOM     24  C   LIG    1       -7.856  -0.250  -6.455  0.00  0.00    -0.190 A 
ATOM     25  C   LIG    1       -8.294  -1.109  -5.439  0.00  0.00    +0.100 A 
ATOM     26  C   LIG    1       -7.760  -1.007  -4.181  0.00  0.00    -0.030 A 
BRANCH  24  27
ATOM     27  C   LIG    1       -8.425  -0.355  -7.805  0.00  0.00    +0.400 C 
ATOM     28  O   LIG    1       -9.344  -1.117  -8.018  0.00  0.00    -0.460 OA
ATOM     29  C   LIG    1       -7.867   0.484  -8.925  0.00  0.00    +0.070 C 
ENDBRANCH  24  27
ENDBRANCH  18  21
ENDBRANCH  16  17
ENDBRANCH   1  16
TORSDOF 7
