REMARK  Name = ZINCrD0000071MpD.0
REMARK                            x       y       z     vdW  Elec       q    Type
REMARK                         _______ _______ _______ _____ _____    ______ ____
ROOT
ATOM      1  C   LIG    1        0.933  -2.139  -0.353  0.00  0.00    -0.670 A 
ATOM      2  C   LIG    1       -0.303  -2.754  -0.280  0.00  0.00    +0.130 A 
ATOM      3  C   LIG    1       -1.448  -1.997  -0.111  0.00  0.00    +0.000 A 
ATOM      4  C   LIG    1       -1.358  -0.619  -0.014  0.00  0.00    +0.140 A 
ATOM      5  C   LIG    1       -0.113   0.003  -0.087  0.00  0.00    +0.100 A 
ATOM      6  C   LIG    1        1.030  -0.763  -0.262  0.00  0.00    +0.150 A 
ENDROOT
BRANCH   5   7
ATOM      7  N   LIG    1       -0.017   1.397   0.010  0.00  0.00    -0.670 N 
ATOM      8  H   LIG    1       -0.716   1.958  -0.361  0.00  0.00    +0.410 HD
ATOM      9  C   LIG    1        1.050   1.958   0.613  0.00  0.00    +0.510 C 
ATOM     10  O   LIG    1        1.964   1.262   1.000  0.00  0.00    -0.510 OA
BRANCH   9  11
ATOM     11  C   LIG    1        1.106   3.452   0.807  0.00  0.00    +0.070 C 
BRANCH  11  12
ATOM     12  C   LIG    1        2.412   3.826   1.511  0.00  0.00    +0.090 C 
BRANCH  12  13
ATOM     13  C   LIG    1        2.468   5.319   1.705  0.00  0.00    -0.090 A 
ATOM     14  C   LIG    1        3.038   6.121   0.734  0.00  0.00    +0.010 A 
ATOM     15  C   LIG    1        3.085   7.492   0.909  0.00  0.00    +0.000 A 
ATOM     16  C   LIG    1        2.572   8.059   2.061  0.00  0.00    -0.090 A 
ATOM     17  C   LIG    1        2.007   7.256   3.034  0.00  0.00    +0.000 A 
ATOM     18  C   LIG    1        2.629   9.552   2.255  0.00  0.00    +0.090 C 
ATOM     19  C   LIG    1        1.955   5.887   2.856  0.00  0.00    +0.010 A 
ENDBRANCH  12  13
ENDBRANCH  11  12
ENDBRANCH   9  11
ENDBRANCH   5   7
BRANCH   1  20
ATOM     20  S   LIG    1        2.387  -3.110  -0.568  0.00  0.00    +2.690 S 
ATOM     21  O   LIG    1        2.075  -4.411  -0.089  0.00  0.00    -0.950 OA
ATOM     22  O   LIG    1        3.466  -2.334  -0.065  0.00  0.00    -0.940 OA
BRANCH  20  23
ATOM     23  N   LIG    1        2.639  -3.261  -2.198  0.00  0.00    -1.000 NA
BRANCH  23  25
ATOM     24  C   LIG    1        4.897  -2.780  -3.007  0.00  0.00    +0.010 C 
ATOM     25  C   LIG    1        3.457  -2.273  -2.907  0.00  0.00    +0.280 C 
ENDBRANCH  23  25
BRANCH  23  26
ATOM     26  C   LIG    1        2.045  -4.381  -2.931  0.00  0.00    +0.290 C 
ATOM     27  C   LIG    1        0.716  -3.940  -3.547  0.00  0.00    +0.010 C 
ENDBRANCH  23  26
ENDBRANCH  20  23
ENDBRANCH   1  20
BRANCH   4  28
ATOM     28  O   LIG    1       -2.483   0.127   0.152  0.00  0.00    -0.490 OA
ATOM     29  H   LIG    1       -2.894   0.410  -0.677  0.00  0.00    +0.400 HD
ENDBRANCH   4  28
TORSDOF 9
