REMARK  Name = ZINCtV00000L6l2G.0
REMARK                            x       y       z     vdW  Elec       q    Type
REMARK                         _______ _______ _______ _____ _____    ______ ____
ROOT
ATOM      1  C   LIG    1       -8.444   2.814   0.058  0.00  0.00    +0.090 A 
ATOM      2  C   LIG    1       -7.341   1.983   0.043  0.00  0.00    +0.040 A 
ATOM      3  C   LIG    1       -6.055   2.533   0.045  0.00  0.00    -0.130 A 
ATOM      4  C   LIG    1       -5.892   3.921   0.051  0.00  0.00    +0.090 A 
ATOM      5  C   LIG    1       -6.997   4.744   0.061  0.00  0.00    -0.040 A 
ATOM      6  C   LIG    1       -8.273   4.199   0.064  0.00  0.00    +0.140 A 
ENDROOT
BRANCH   1   8
ATOM      7  C   LIG    1       -9.795   0.858   0.056  0.00  0.00    +0.250 C 
ATOM      8  O   LIG    1       -9.695   2.283   0.062  0.00  0.00    -0.300 OA
ENDBRANCH   1   8
BRANCH   3   9
ATOM      9  C   LIG    1       -4.874   1.650   0.035  0.00  0.00    +0.520 C 
ATOM     10  O   LIG    1       -5.017   0.444   0.030  0.00  0.00    -0.500 OA
BRANCH   9  11
ATOM     11  O   LIG    1       -3.636   2.182   0.032  0.00  0.00    -0.350 OA
BRANCH  11  12
ATOM     12  C   LIG    1       -2.520   1.253   0.021  0.00  0.00    +0.290 C 
BRANCH  12  13
ATOM     13  C   LIG    1       -1.225   2.023   0.019  0.00  0.00    -0.110 A 
ATOM     14  C   LIG    1       -1.243   3.405   0.031  0.00  0.00    +0.090 A 
ATOM     15  C   LIG    1       -0.055   4.113   0.024  0.00  0.00    +0.040 A 
ATOM     16  C   LIG    1        1.153   3.438   0.009  0.00  0.00    -0.060 A 
ATOM     17  C   LIG    1        1.173   2.056   0.002  0.00  0.00    +0.030 A 
ATOM     18 BR   LIG    1        2.776   4.408  -0.001  0.00  0.00    -0.030 Br
ATOM     19  C   LIG    1       -0.016   1.347   0.009  0.00  0.00    +0.120 A 
ATOM     20  F   LIG    1        0.002  -0.004   0.002  0.00  0.00    -0.130 F 
ENDBRANCH  12  13
ENDBRANCH  11  12
ENDBRANCH   9  11
ENDBRANCH   3   9
BRANCH   6  21
ATOM     21  O   LIG    1       -9.359   5.014   0.073  0.00  0.00    -0.290 OA
BRANCH  21  22
ATOM     22  C   LIG    1       -9.113   6.422   0.079  0.00  0.00    +0.260 C 
BRANCH  22  23
ATOM     23  C   LIG    1      -10.425   7.162   0.088  0.00  0.00    -0.090 A 
ATOM     24  C   LIG    1      -11.030   7.512  -1.105  0.00  0.00    +0.060 A 
ATOM     25  C   LIG    1      -12.236   8.186  -1.096  0.00  0.00    +0.030 A 
ATOM     26  C   LIG    1      -12.834   8.520   0.106  0.00  0.00    -0.020 A 
ATOM     27  C   LIG    1      -12.226   8.174   1.300  0.00  0.00    +0.030 A 
ATOM     28 CL   LIG    1      -14.345   9.374   0.117  0.00  0.00    -0.060 Cl
ATOM     29  C   LIG    1      -11.022   7.495   1.290  0.00  0.00    +0.060 A 
ENDBRANCH  22  23
ENDBRANCH  21  22
ENDBRANCH   6  21
TORSDOF 8
