REMARK  Name = ZINCpe00000MJJBb.0
REMARK                            x       y       z     vdW  Elec       q    Type
REMARK                         _______ _______ _______ _____ _____    ______ ____
ROOT
ATOM      1  C   LIG    1        2.637  -1.133  -2.333  0.00  0.00    +0.130 C 
ATOM      2  C   LIG    1        2.045  -1.012  -3.740  0.00  0.00    -0.010 C 
ATOM      3  C   LIG    1        3.061  -1.534  -4.760  0.00  0.00    +0.040 C 
ATOM      4  C   LIG    1        3.418  -2.983  -4.420  0.00  0.00    +0.150 C 
ATOM      5  N   LIG    1        3.980  -3.046  -3.065  0.00  0.00    -0.510 NA
ATOM      6  C   LIG    1        3.006  -2.593  -2.064  0.00  0.00    +0.220 C 
ENDROOT
BRANCH   1   7
ATOM      7  O   LIG    1        3.808  -0.319  -2.236  0.00  0.00    -0.530 OA
ATOM      8  H   LIG    1        3.648   0.621  -2.396  0.00  0.00    +0.380 HD
ENDBRANCH   1   7
BRANCH   5   9
ATOM      9  C   LIG    1        4.462  -4.399  -2.757  0.00  0.00    +0.310 C 
BRANCH   9  10
ATOM     10  C   LIG    1        5.262  -4.925  -3.920  0.00  0.00    +0.290 A 
ATOM     11  N   LIG    1        6.528  -4.688  -4.152  0.00  0.00    -0.510 NA
ATOM     12  C   LIG    1        6.908  -5.311  -5.267  0.00  0.00    +0.430 A 
ATOM     13  N   LIG    1        5.885  -5.956  -5.764  0.00  0.00    -0.310 NA
ATOM     14  N   LIG    1        4.801  -5.725  -4.901  0.00  0.00    -0.330 N 
BRANCH  14  15
ATOM     15  C   LIG    1        3.498  -6.225  -5.035  0.00  0.00    +0.140 A 
ATOM     16  C   LIG    1        2.833  -6.739  -3.930  0.00  0.00    +0.000 A 
ATOM     17  C   LIG    1        1.548  -7.225  -4.064  0.00  0.00    +0.040 A 
ATOM     18  C   LIG    1        0.927  -7.212  -5.299  0.00  0.00    +0.020 A 
ATOM     19  C   LIG    1        1.589  -6.706  -6.403  0.00  0.00    +0.040 A 
ATOM     20  C   LIG    1        2.872  -6.213  -6.274  0.00  0.00    +0.030 A 
ENDBRANCH  14  15
ENDBRANCH   9  10
ENDBRANCH   5   9
BRANCH   1  21
ATOM     21  C   LIG    1        1.605  -0.668  -1.304  0.00  0.00    +0.310 C 
BRANCH  21  22
ATOM     22  N   LIG    1        1.164   0.690  -1.633  0.00  0.00    -0.290 N 
ATOM     23  C   LIG    1       -0.117   1.083  -1.820  0.00  0.00    +0.140 A 
ATOM     24  C   LIG    1       -0.068   2.406  -2.102  0.00  0.00    +0.140 A 
ATOM     25  N   LIG    1        1.224   2.752  -2.073  0.00  0.00    -0.260 NA
ATOM     26  N   LIG    1        1.928   1.713  -1.792  0.00  0.00    -0.090 NA
ENDBRANCH  21  22
ENDBRANCH   1  21
TORSDOF 6
