REMARK  Name = ZINCnE00000dCEB1.0
REMARK                            x       y       z     vdW  Elec       q    Type
REMARK                         _______ _______ _______ _____ _____    ______ ____
ROOT
ATOM      1  C   LIG    1       -3.607  -3.342  -2.079  0.00  0.00    +0.530 C 
ATOM      2  O   LIG    1       -3.552  -4.562  -2.064  0.00  0.00    -0.570 OA
ENDROOT
BRANCH   1   8
ATOM      3  N   LIG    1        0.002  -0.004   0.002  0.00  0.00    -0.360 N 
ATOM      4  N   LIG    1        1.001  -0.815   0.549  0.00  0.00    -0.270 NA
ATOM      5  C   LIG    1        0.693  -2.063   0.364  0.00  0.00    +0.120 A 
ATOM      6  C   LIG    1       -0.550  -2.126  -0.339  0.00  0.00    -0.220 A 
ATOM      7  C   LIG    1       -1.452  -3.065  -0.861  0.00  0.00    +0.120 A 
ATOM      8  C   LIG    1       -2.531  -2.550  -1.462  0.00  0.00    -0.190 A 
ATOM      9  S   LIG    1       -2.483  -0.795  -1.411  0.00  0.00    +0.230 S 
ATOM     10  C   LIG    1        1.513  -3.247   0.809  0.00  0.00    +0.160 C 
ATOM     11  C   LIG    1       -0.951  -0.817  -0.547  0.00  0.00    -0.000 A 
BRANCH   3  13
ATOM     12  C   LIG    1       -0.734   1.954   1.269  0.00  0.00    +0.030 C 
ATOM     13  C   LIG    1       -0.018   1.461   0.010  0.00  0.00    +0.320 C 
ENDBRANCH   3  13
ENDBRANCH   1   8
BRANCH   1  14
ATOM     14  N   LIG    1       -4.643  -2.727  -2.655  0.00  0.00    -0.640 NA
ATOM     15  C   LIG    1       -5.621  -3.448  -3.216  0.00  0.00    +0.370 A 
ATOM     16  N   LIG    1       -6.718  -2.990  -3.828  0.00  0.00    -0.580 NA
ATOM     17  C   LIG    1       -7.534  -3.869  -4.300  0.00  0.00    +0.290 A 
ATOM     18  N   LIG    1       -7.218  -5.157  -4.139  0.00  0.00    -0.590 NA
ATOM     19  S   LIG    1       -5.734  -5.164  -3.311  0.00  0.00    +0.100 S 
BRANCH  17  20
ATOM     20  C   LIG    1       -8.799  -3.458  -5.009  0.00  0.00    +0.170 C 
BRANCH  20  21
ATOM     21  C   LIG    1       -8.892  -1.931  -5.042  0.00  0.00    -0.010 C 
ATOM     22  C   LIG    1      -10.056  -1.278  -4.294  0.00  0.00    +0.000 C 
ATOM     23  C   LIG    1      -10.051  -1.310  -5.824  0.00  0.00    -0.010 C 
ENDBRANCH  20  21
ENDBRANCH  17  20
ENDBRANCH   1  14
TORSDOF 5
