REMARK  Name = ZINCvU00000008Zi.0
REMARK                            x       y       z     vdW  Elec       q    Type
REMARK                         _______ _______ _______ _____ _____    ______ ____
ROOT
ATOM      1  C   LIG    1        4.558   1.149  -0.910  0.00  0.00    +0.530 C 
ATOM      2  N   LIG    1        5.288   0.818  -1.994  0.00  0.00    -0.620 N 
ATOM      3  C   LIG    1        4.811   0.835  -3.389  0.00  0.00    +0.250 C 
ATOM      4  C   LIG    1        5.727  -0.164  -4.136  0.00  0.00    +0.040 C 
ATOM      5  C   LIG    1        7.092   0.082  -3.441  0.00  0.00    +0.060 C 
ATOM      6  C   LIG    1        6.690   0.373  -1.980  0.00  0.00    +0.320 C 
ATOM      7  O   LIG    1        5.054   1.092   0.195  0.00  0.00    -0.520 OA
ENDROOT
BRANCH   6   8
ATOM      8  C   LIG    1        7.566   1.460  -1.414  0.00  0.00    +0.090 A 
ATOM      9  N   LIG    1        8.490   1.264  -0.551  0.00  0.00    -0.450 NA
ATOM     10  C   LIG    1        9.197   2.330  -0.132  0.00  0.00    +0.080 A 
ATOM     11  C   LIG    1       10.255   2.401   0.797  0.00  0.00    +0.080 A 
ATOM     12  C   LIG    1       10.843   3.595   1.084  0.00  0.00    +0.030 A 
ATOM     13  C   LIG    1       10.414   4.763   0.469  0.00  0.00    +0.040 A 
ATOM     14  C   LIG    1        9.382   4.725  -0.442  0.00  0.00    +0.060 A 
ATOM     15  C   LIG    1        8.769   3.512  -0.747  0.00  0.00    -0.180 A 
ATOM     16  S   LIG    1        7.456   3.107  -1.848  0.00  0.00    +0.100 S 
ENDBRANCH   6   8
BRANCH   1  17
ATOM     17  C   LIG    1        3.126   1.589  -1.072  0.00  0.00    +0.060 C 
BRANCH  17  18
ATOM     18  C   LIG    1        2.531   1.904   0.302  0.00  0.00    +0.140 C 
BRANCH  18  25
ATOM     19  C   LIG    1       -0.012   0.014   0.324  0.00  0.00    +0.150 C 
ATOM     20  C   LIG    1       -0.025   1.510   0.149  0.00  0.00    +0.090 A 
ATOM     21  N   LIG    1       -1.088   2.254  -0.025  0.00  0.00    -0.290 NA
ATOM     22  N   LIG    1       -0.675   3.587  -0.142  0.00  0.00    -0.330 N 
ATOM     23  C   LIG    1        0.673   3.616  -0.040  0.00  0.00    +0.100 A 
ATOM     24  C   LIG    1        1.544   4.843  -0.115  0.00  0.00    +0.140 C 
ATOM     25  C   LIG    1        1.099   2.344   0.140  0.00  0.00    -0.230 A 
BRANCH  22  26
ATOM     26  C   LIG    1       -1.512   4.696  -0.335  0.00  0.00    +0.150 A 
ATOM     27  C   LIG    1       -2.704   4.799   0.369  0.00  0.00    +0.020 A 
ATOM     28  C   LIG    1       -3.523   5.894   0.180  0.00  0.00    +0.030 A 
ATOM     29  C   LIG    1       -3.163   6.882  -0.718  0.00  0.00    +0.010 A 
ATOM     30  C   LIG    1       -1.979   6.780  -1.424  0.00  0.00    +0.030 A 
ATOM     31  C   LIG    1       -1.152   5.689  -1.236  0.00  0.00    +0.000 A 
ENDBRANCH  22  26
ENDBRANCH  18  25
ENDBRANCH  17  18
ENDBRANCH   1  17
TORSDOF 5
