REMARK  Name = ZINCpk00000xI6iZ.0
REMARK                            x       y       z     vdW  Elec       q    Type
REMARK                         _______ _______ _______ _____ _____    ______ ____
ROOT
ATOM      1  N   LIG    1       -4.529   5.148   0.241  0.00  0.00    -0.550 N 
ATOM      2  C   LIG    1       -3.181   5.144   0.385  0.00  0.00    +0.600 A 
ATOM      3  C   LIG    1       -2.534   3.904   0.219  0.00  0.00    -0.160 A 
ATOM      4  C   LIG    1       -3.276   2.750  -0.082  0.00  0.00    +0.340 A 
ATOM      5  N   LIG    1       -4.655   2.826  -0.216  0.00  0.00    -0.510 N 
ATOM      6  C   LIG    1       -5.458   1.641  -0.528  0.00  0.00    +0.350 C 
ATOM      7  N   LIG    1       -2.429   1.739  -0.185  0.00  0.00    -0.500 NA
ATOM      8  C   LIG    1       -1.206   2.164   0.019  0.00  0.00    +0.500 A 
ATOM      9  N   LIG    1       -0.018   1.461   0.010  0.00  0.00    -0.420 N 
ATOM     10  N   LIG    1        1.171   2.209   0.003  0.00  0.00    -0.220 NA
ATOM     11  C   LIG    1        1.199   3.455   0.243  0.00  0.00    +0.090 C 
ATOM     12  C   LIG    1       -0.015   4.280   0.571  0.00  0.00    +0.270 C 
ATOM     13  C   LIG    1        0.011   4.655   2.054  0.00  0.00    +0.070 C 
ATOM     14  C   LIG    1        2.534   4.152   0.197  0.00  0.00    +0.170 C 
ATOM     15  N   LIG    1       -1.226   3.512   0.286  0.00  0.00    -0.440 N 
ATOM     16  O   LIG    1       -2.562   6.161   0.646  0.00  0.00    -0.510 OA
ATOM     17  C   LIG    1       -5.228   4.040  -0.046  0.00  0.00    +0.710 A 
ATOM     18  O   LIG    1       -6.435   4.131  -0.158  0.00  0.00    -0.530 OA
ENDROOT
BRANCH   1  19
ATOM     19  C   LIG    1       -5.250   6.413   0.404  0.00  0.00    +0.350 C 
BRANCH  19  21
ATOM     20  C   LIG    1       -5.296   7.662   2.502  0.00  0.00    +0.040 C 
ATOM     21  C   LIG    1       -5.647   6.582   1.848  0.00  0.00    -0.070 C 
ENDBRANCH  19  21
ENDBRANCH   1  19
BRANCH   9  22
ATOM     22  C   LIG    1        0.002  -0.004   0.002  0.00  0.00    +0.400 C 
BRANCH  22  23
ATOM     23  C   LIG    1       -0.005  -0.499  -1.421  0.00  0.00    -0.160 C 
ATOM     24  C   LIG    1       -1.310  -0.656  -2.158  0.00  0.00    +0.080 C 
ATOM     25  C   LIG    1        1.124  -0.792  -2.018  0.00  0.00    +0.040 C 
ENDBRANCH  22  23
ENDBRANCH   9  22
TORSDOF 4
