REMARK  Name = ZINCqH0000003Nai.0
REMARK                            x       y       z     vdW  Elec       q    Type
REMARK                         _______ _______ _______ _____ _____    ______ ____
ROOT
ATOM      1  N   LIG    1        0.500   3.982  -1.234  0.00  0.00    -0.730 N 
ATOM      2  H   LIG    1       -0.460   4.121  -1.264  0.00  0.00    +0.400 HD
ATOM      3  C   LIG    1        1.246   4.191  -2.337  0.00  0.00    +0.710 C 
ATOM      4  N   LIG    1        0.648   4.497  -3.506  0.00  0.00    -0.630 N 
ATOM      5  C   LIG    1       -0.803   4.717  -3.570  0.00  0.00    +0.290 C 
ATOM      6  C   LIG    1       -1.067   6.078  -4.223  0.00  0.00    -0.050 C 
ATOM      7  C   LIG    1       -0.362   6.134  -5.580  0.00  0.00    +0.300 C 
ATOM      8  C   LIG    1        1.147   5.979  -5.380  0.00  0.00    -0.040 C 
ATOM      9  C   LIG    1        1.854   6.068  -6.734  0.00  0.00    +0.060 C 
ATOM     10  F   LIG    1       -0.627   7.364  -6.192  0.00  0.00    -0.200 F 
ATOM     11  F   LIG    1       -0.833   5.097  -6.393  0.00  0.00    -0.190 F 
ATOM     12  C   LIG    1       -2.572   6.266  -4.421  0.00  0.00    +0.060 C 
ATOM     13  C   LIG    1        1.437   4.622  -4.739  0.00  0.00    +0.320 C 
ATOM     14  O   LIG    1        2.457   4.105  -2.278  0.00  0.00    -0.580 OA
ENDROOT
BRANCH   1  15
ATOM     15  C   LIG    1        1.139   3.543   0.009  0.00  0.00    +0.320 C 
BRANCH  15  19
ATOM     16  C   LIG    1       -1.270   4.716   3.338  0.00  0.00    +0.140 A 
ATOM     17  C   LIG    1        0.112   4.814   3.412  0.00  0.00    -0.020 A 
ATOM     18  C   LIG    1        0.888   4.433   2.334  0.00  0.00    +0.060 A 
ATOM     19  C   LIG    1        0.289   3.956   1.183  0.00  0.00    -0.130 A 
ATOM     20  C   LIG    1       -1.088   3.864   1.105  0.00  0.00    +0.070 A 
ATOM     21  C   LIG    1       -1.869   4.237   2.182  0.00  0.00    -0.080 A 
BRANCH  16  22
ATOM     22  O   LIG    1       -2.036   5.090   4.397  0.00  0.00    -0.320 OA
BRANCH  22  24
ATOM     23  C   LIG    1       -4.141   5.427   5.535  0.00  0.00    +0.070 C 
ATOM     24  C   LIG    1       -3.451   4.962   4.250  0.00  0.00    +0.170 C 
ENDBRANCH  22  24
ENDBRANCH  16  22
ENDBRANCH  15  19
BRANCH  15  25
ATOM     25  C   LIG    1        1.286   2.020  -0.003  0.00  0.00    +0.170 C 
BRANCH  25  26
ATOM     26  O   LIG    1       -0.009   1.416   0.004  0.00  0.00    -0.380 OA
ATOM     27  C   LIG    1        0.015  -0.012  -0.006  0.00  0.00    +0.200 C 
ENDBRANCH  25  26
ENDBRANCH  15  25
ENDBRANCH   1  15
TORSDOF 6
