REMARK  Name = ZINCvU0000000FCx.0
REMARK                            x       y       z     vdW  Elec       q    Type
REMARK                         _______ _______ _______ _____ _____    ______ ____
ROOT
ATOM      1  C   LIG    1        5.682   2.775  -1.808  0.00  0.00    +0.040 C 
ATOM      2  C   LIG    1        5.881   1.639  -0.801  0.00  0.00    +0.040 C 
ATOM      3  C   LIG    1        5.453   0.330  -1.476  0.00  0.00    +0.200 C 
ATOM      4  N   LIG    1        4.003   0.360  -1.680  0.00  0.00    -0.490 N 
ATOM      5  C   LIG    1        3.570   1.496  -2.362  0.00  0.00    +0.110 A 
ATOM      6  C   LIG    1        2.321   1.442  -2.983  0.00  0.00    +0.000 A 
ATOM      7  C   LIG    1        1.835   2.535  -3.669  0.00  0.00    +0.030 A 
ATOM      8  C   LIG    1        2.585   3.694  -3.741  0.00  0.00    +0.010 A 
ATOM      9  C   LIG    1        3.822   3.753  -3.130  0.00  0.00    +0.020 A 
ATOM     10  C   LIG    1        5.820  -0.854  -0.578  0.00  0.00    +0.060 C 
ATOM     11  C   LIG    1        4.319   2.657  -2.442  0.00  0.00    -0.110 A 
ENDROOT
BRANCH   1  14
ATOM     12  N   LIG    1        6.768   3.594  -3.874  0.00  0.00    -0.720 N 
ATOM     13  H   LIG    1        6.104   4.301  -3.905  0.00  0.00    +0.400 HD
ATOM     14  C   LIG    1        6.742   2.689  -2.876  0.00  0.00    +0.530 C 
ATOM     15  O   LIG    1        7.571   1.805  -2.837  0.00  0.00    -0.530 OA
BRANCH  12  16
ATOM     16  C   LIG    1        7.798   3.511  -4.912  0.00  0.00    +0.230 C 
ATOM     17  C   LIG    1        7.345   2.538  -6.003  0.00  0.00    +0.030 C 
BRANCH  16  19
ATOM     18  C   LIG    1        8.591   5.836  -4.460  0.00  0.00    +0.020 C 
ATOM     19  C   LIG    1        8.020   4.896  -5.523  0.00  0.00    +0.020 C 
ENDBRANCH  16  19
ENDBRANCH  12  16
ENDBRANCH   1  14
BRANCH   4  20
ATOM     20  C   LIG    1        3.289   0.207  -0.405  0.00  0.00    +0.360 C 
BRANCH  20  21
ATOM     21  C   LIG    1        1.895  -0.302  -0.669  0.00  0.00    +0.180 A 
ATOM     22  N   LIG    1        1.531  -1.553  -0.727  0.00  0.00    -0.260 NA
ATOM     23  N   LIG    1        0.269  -1.622  -0.969  0.00  0.00    -0.270 NA
ATOM     24  C   LIG    1       -0.219  -0.409  -1.074  0.00  0.00    +0.210 A 
ATOM     25  O   LIG    1        0.803   0.450  -0.885  0.00  0.00    -0.210 OA
BRANCH  24  26
ATOM     26  C   LIG    1       -1.626  -0.050  -1.353  0.00  0.00    -0.020 A 
ATOM     27  C   LIG    1       -2.005   1.291  -1.432  0.00  0.00    +0.070 A 
ATOM     28  C   LIG    1       -3.318   1.619  -1.699  0.00  0.00    +0.030 A 
ATOM     29  C   LIG    1       -4.261   0.621  -1.876  0.00  0.00    -0.010 A 
ATOM     30  C   LIG    1       -3.893  -0.711  -1.793  0.00  0.00    +0.040 A 
ATOM     31 CL   LIG    1       -5.913   1.042  -2.204  0.00  0.00    -0.050 Cl
ATOM     32  C   LIG    1       -2.582  -1.051  -1.533  0.00  0.00    +0.100 A 
ENDBRANCH  24  26
ENDBRANCH  20  21
ENDBRANCH   4  20
TORSDOF 6
