REMARK  Name = ZINCrg00000fS3pr.0
REMARK                            x       y       z     vdW  Elec       q    Type
REMARK                         _______ _______ _______ _____ _____    ______ ____
ROOT
ATOM      1  N   LIG    1        0.046   1.883  -1.339  0.00  0.00    -0.470 N 
ATOM      2  C   LIG    1        0.749   1.453  -0.123  0.00  0.00    +0.210 C 
ATOM      3  C   LIG    1       -0.158   1.671   1.093  0.00  0.00    +0.280 C 
ATOM      4  N   LIG    1       -0.607   3.071   1.096  0.00  0.00    -0.610 N 
ATOM      5  C   LIG    1       -1.198   3.616  -0.136  0.00  0.00    +0.300 C 
ATOM      6  C   LIG    1       -0.480   3.835   2.199  0.00  0.00    +0.560 C 
ATOM      7  O   LIG    1       -0.758   5.018   2.154  0.00  0.00    -0.530 OA
ATOM      8  C   LIG    1       -0.249   3.322  -1.303  0.00  0.00    +0.200 C 
ENDROOT
BRANCH   6   9
ATOM      9  C   LIG    1       -0.002   3.235   3.463  0.00  0.00    -0.160 A 
ATOM     10  C   LIG    1       -0.421   1.957   3.833  0.00  0.00    +0.110 A 
ATOM     11  C   LIG    1        0.032   1.401   5.012  0.00  0.00    -0.010 A 
ATOM     12  C   LIG    1        0.891   2.112   5.831  0.00  0.00    +0.050 A 
ATOM     13  C   LIG    1        1.306   3.382   5.472  0.00  0.00    -0.690 A 
ATOM     14  C   LIG    1        1.376   1.501   7.120  0.00  0.00    +0.110 C 
ATOM     15  C   LIG    1        0.864   3.948   4.293  0.00  0.00    +0.190 A 
BRANCH  13  16
ATOM     16  S   LIG    1        2.400   4.280   6.521  0.00  0.00    +2.710 S 
ATOM     17  O   LIG    1        2.606   5.542   5.902  0.00  0.00    -0.960 OA
ATOM     18  O   LIG    1        3.460   3.393   6.848  0.00  0.00    -0.960 OA
BRANCH  16  19
ATOM     19  N   LIG    1        1.588   4.579   7.934  0.00  0.00    -1.250 NA
ATOM     20  H   LIG    1        0.624   4.681   7.927  0.00  0.00    +0.420 HD
ATOM     21  H   LIG    1        2.078   4.653   8.768  0.00  0.00    +0.420 HD
ENDBRANCH  16  19
ENDBRANCH  13  16
ENDBRANCH   6   9
BRANCH   1  27
ATOM     22  C   LIG    1        0.269   1.878  -3.740  0.00  0.00    +0.070 A 
ATOM     23  C   LIG    1        1.006   1.541  -4.866  0.00  0.00    -0.010 A 
ATOM     24  C   LIG    1        2.220   0.889  -4.692  0.00  0.00    -0.020 A 
ATOM     25  C   LIG    1        2.655   0.598  -3.415  0.00  0.00    +0.250 A 
ATOM     26  N   LIG    1        1.937   0.935  -2.360  0.00  0.00    -0.490 NA
ATOM     27  C   LIG    1        0.773   1.552  -2.479  0.00  0.00    +0.290 A 
BRANCH  22  29
ATOM     28  C   LIG    1       -1.369   2.814  -5.188  0.00  0.00    +0.240 C 
ATOM     29  O   LIG    1       -0.925   2.516  -3.862  0.00  0.00    -0.300 OA
ENDBRANCH  22  29
ENDBRANCH   1  27
TORSDOF 5
