REMARK  Name = ZINCpk00001AZj9b.0
REMARK                            x       y       z     vdW  Elec       q    Type
REMARK                         _______ _______ _______ _____ _____    ______ ____
ROOT
ATOM      1  N   LIG    1        1.261   4.332  -3.808  0.00  0.00    -0.370 N 
ATOM      2  N   LIG    1        2.411   5.124  -3.649  0.00  0.00    -0.070 NA
ATOM      3  N   LIG    1        2.446   5.942  -4.644  0.00  0.00    -0.030 NA
ATOM      4  N   LIG    1        1.440   5.753  -5.420  0.00  0.00    -0.330 NA
ATOM      5  C   LIG    1        0.681   4.775  -4.961  0.00  0.00    +0.300 A 
ENDROOT
BRANCH   5   6
ATOM      6  C   LIG    1       -0.553   4.265  -5.572  0.00  0.00    +0.010 C 
ATOM      7  C   LIG    1       -1.008   4.803  -6.718  0.00  0.00    +0.140 C 
BRANCH   7   8
ATOM      8  C   LIG    1       -2.246   4.290  -7.331  0.00  0.00    -0.080 A 
ATOM      9  C   LIG    1       -2.947   3.242  -6.729  0.00  0.00    +0.020 A 
ATOM     10  C   LIG    1       -4.107   2.770  -7.306  0.00  0.00    +0.010 A 
ATOM     11  C   LIG    1       -4.572   3.327  -8.485  0.00  0.00    +0.030 A 
ATOM     12  C   LIG    1       -3.882   4.362  -9.090  0.00  0.00    +0.010 A 
ATOM     13  C   LIG    1       -2.723   4.847  -8.521  0.00  0.00    +0.040 A 
ENDBRANCH   7   8
ENDBRANCH   5   6
BRANCH   1  14
ATOM     14  C   LIG    1        0.790   3.258  -2.929  0.00  0.00    +0.370 C 
BRANCH  14  16
ATOM     15  O   LIG    1       -0.361   5.022  -1.866  0.00  0.00    -0.500 OA
ATOM     16  C   LIG    1       -0.125   3.833  -1.879  0.00  0.00    +0.510 C 
ATOM     17  N   LIG    1       -0.681   3.025  -0.955  0.00  0.00    -0.610 N 
ATOM     18  C   LIG    1       -0.501   1.566  -1.017  0.00  0.00    +0.250 C 
ATOM     19  C   LIG    1       -0.031   1.077   0.358  0.00  0.00    +0.210 C 
ATOM     20  O   LIG    1       -0.925   1.565   1.362  0.00  0.00    -0.370 OA
ATOM     21  C   LIG    1       -0.969   2.990   1.465  0.00  0.00    +0.220 C 
ATOM     22  C   LIG    1       -1.487   3.576   0.146  0.00  0.00    +0.240 C 
BRANCH  22  23
ATOM     23  C   LIG    1       -1.351   5.100   0.172  0.00  0.00    -0.010 C 
ATOM     24  C   LIG    1       -0.288   5.699   1.095  0.00  0.00    +0.000 C 
ATOM     25  C   LIG    1       -1.772   5.825   1.451  0.00  0.00    +0.010 C 
ENDBRANCH  22  23
ENDBRANCH  14  16
ENDBRANCH   1  14
TORSDOF 5
