REMARK  Name = ZINCrg00000Le00g.0
REMARK                            x       y       z     vdW  Elec       q    Type
REMARK                         _______ _______ _______ _____ _____    ______ ____
ROOT
ATOM      1  O   LIG    1       -2.139   2.116   0.024  0.00  0.00    -0.520 OA
ATOM      2  C   LIG    1       -0.966   2.424   0.020  0.00  0.00    +0.550 C 
ATOM      3  N   LIG    1       -0.018   1.466   0.010  0.00  0.00    -0.640 N 
ATOM      4  C   LIG    1        1.452   1.432  -0.004  0.00  0.00    +0.340 C 
ATOM      5  C   LIG    1        1.360   0.072  -0.710  0.00  0.00    -0.480 C 
ATOM      6  C   LIG    1        0.002  -0.004   0.002  0.00  0.00    +0.350 C 
ENDROOT
BRANCH   2   7
ATOM      7  C   LIG    1       -0.569   3.878   0.026  0.00  0.00    +0.000 C 
ATOM      8  C   LIG    1       -1.827   4.751   0.037  0.00  0.00    +0.060 C 
ATOM      9  C   LIG    1       -1.442   6.215  -0.204  0.00  0.00    +0.290 C 
ATOM     10  N   LIG    1       -0.368   6.577   0.725  0.00  0.00    -0.460 N 
ATOM     11  C   LIG    1        0.049   7.804   1.082  0.00  0.00    +0.400 A 
ATOM     12  N   LIG    1        1.031   7.677   1.937  0.00  0.00    -0.490 NA
ATOM     13  C   LIG    1        1.270   6.371   2.149  0.00  0.00    +0.160 A 
ATOM     14  C   LIG    1        0.408   5.671   1.401  0.00  0.00    -0.030 A 
ATOM     15  C   LIG    1        0.267   4.176   1.279  0.00  0.00    +0.150 C 
ENDBRANCH   2   7
BRANCH   5  16
ATOM     16  S   LIG    1        2.571  -1.149  -0.134  0.00  0.00    +2.620 S 
ATOM     17  O   LIG    1        2.235  -2.446  -0.606  0.00  0.00    -0.930 OA
ATOM     18  O   LIG    1        2.892  -0.927   1.233  0.00  0.00    -0.930 OA
BRANCH  16  19
ATOM     19  N   LIG    1        3.962  -0.766  -0.947  0.00  0.00    -0.940 N 
ATOM     20  C   LIG    1        4.986   0.166  -0.466  0.00  0.00    +0.280 C 
ATOM     21  C   LIG    1        6.064   0.181  -1.563  0.00  0.00    +0.100 C 
ATOM     22  C   LIG    1        5.549  -0.776  -2.614  0.00  0.00    -0.130 A 
ATOM     23  C   LIG    1        6.087  -1.167  -3.825  0.00  0.00    +0.050 A 
ATOM     24  C   LIG    1        5.413  -2.071  -4.625  0.00  0.00    -0.010 A 
ATOM     25  C   LIG    1        4.198  -2.584  -4.210  0.00  0.00    +0.040 A 
ATOM     26  C   LIG    1        3.656  -2.197  -3.003  0.00  0.00    -0.010 A 
ATOM     27  C   LIG    1        4.333  -1.288  -2.187  0.00  0.00    +0.150 A 
ENDBRANCH  16  19
ENDBRANCH   5  16
TORSDOF 3
