REMARK  Name = ZINCc70000001Zr8.0
REMARK                            x       y       z     vdW  Elec       q    Type
REMARK                         _______ _______ _______ _____ _____    ______ ____
ROOT
ATOM      1  C   LIG    1        2.040   1.127  -1.261  0.00  0.00    +0.250 C 
ATOM      2  F   LIG    1        2.269  -0.252  -1.214  0.00  0.00    -0.180 F 
ATOM      3  F   LIG    1        3.264   1.802  -1.328  0.00  0.00    -0.170 F 
ENDROOT
BRANCH   1   7
ATOM      4  C   LIG    1        0.590   1.085  -4.803  0.00  0.00    +0.300 C 
ATOM      5  N   LIG    1        1.390   0.763  -3.619  0.00  0.00    -0.720 N 
ATOM      6  H   LIG    1        2.045   0.049  -3.657  0.00  0.00    +0.410 HD
ATOM      7  C   LIG    1        1.216   1.459  -2.478  0.00  0.00    +0.490 C 
ATOM      8  O   LIG    1        0.397   2.352  -2.432  0.00  0.00    -0.480 OA
ENDBRANCH   1   7
BRANCH   1   9
ATOM      9  C   LIG    1        1.286   1.562  -0.002  0.00  0.00    +0.260 C 
BRANCH   9  10
ATOM     10  C   LIG    1        2.064   1.114   1.238  0.00  0.00    -0.090 C 
ATOM     11  C   LIG    1        1.446   0.010   2.099  0.00  0.00    +0.030 C 
ATOM     12  C   LIG    1        1.469   1.454   2.606  0.00  0.00    +0.040 C 
ENDBRANCH   9  10
BRANCH   9  13
ATOM     13  O   LIG    1       -0.011   0.963   0.007  0.00  0.00    -0.530 OA
ATOM     14  H   LIG    1        0.002  -0.004   0.002  0.00  0.00    +0.380 HD
ENDBRANCH   9  13
ENDBRANCH   1   9
TORSDOF 4
