REMARK  Name = ZINCqH0000051b4i.0
REMARK                            x       y       z     vdW  Elec       q    Type
REMARK                         _______ _______ _______ _____ _____    ______ ____
ROOT
ATOM      1  C   LIG    1        2.395   1.399  -0.013  0.00  0.00    -0.160 A 
ATOM      2  C   LIG    1        2.399   0.002  -0.020  0.00  0.00    +0.130 A 
ATOM      3  C   LIG    1        1.206  -0.689  -0.013  0.00  0.00    -0.040 A 
ATOM      4  C   LIG    1        0.002  -0.004   0.002  0.00  0.00    +0.090 A 
ATOM      5  C   LIG    1       -0.017   1.377   0.010  0.00  0.00    -0.090 A 
ATOM      6  C   LIG    1        1.174   2.088   0.002  0.00  0.00    +0.190 A 
ENDROOT
BRANCH   1   7
ATOM      7  C   LIG    1        3.667   2.144  -0.020  0.00  0.00    +0.510 C 
ATOM      8  O   LIG    1        3.659   3.359  -0.014  0.00  0.00    -0.480 OA
BRANCH   7   9
ATOM      9  O   LIG    1        4.838   1.478  -0.034  0.00  0.00    -0.340 OA
BRANCH   9  10
ATOM     10  C   LIG    1        6.050   2.276  -0.041  0.00  0.00    +0.260 C 
BRANCH  10  12
ATOM     11  O   LIG    1        7.100   0.161  -0.061  0.00  0.00    -0.450 OA
ATOM     12  C   LIG    1        7.251   1.366  -0.056  0.00  0.00    +0.420 C 
BRANCH  12  13
ATOM     13  C   LIG    1        8.554   1.914  -0.065  0.00  0.00    -0.100 A 
ATOM     14  C   LIG    1        8.876   3.261  -0.068  0.00  0.00    +0.040 A 
ATOM     15  C   LIG    1       10.270   3.345  -0.073  0.00  0.00    -0.060 A 
ATOM     16  C   LIG    1       10.764   2.082  -0.084  0.00  0.00    +0.220 A 
ATOM     17  N   LIG    1        9.737   1.207  -0.080  0.00  0.00    -0.520 N 
ATOM     18  H   LIG    1        9.818   0.241  -0.085  0.00  0.00    +0.430 HD
ENDBRANCH  12  13
ENDBRANCH  10  12
ENDBRANCH   9  10
ENDBRANCH   7   9
ENDBRANCH   1   7
BRANCH   6  19
ATOM     19  O   LIG    1        1.157   3.445   0.010  0.00  0.00    -0.280 OA
BRANCH  19  20
ATOM     20  C   LIG    1       -0.124   4.077   0.026  0.00  0.00    +0.260 C 
BRANCH  20  21
ATOM     21  C   LIG    1        0.054   5.574   0.033  0.00  0.00    -0.110 A 
ATOM     22  C   LIG    1        0.142   6.253   1.233  0.00  0.00    +0.080 A 
ATOM     23  C   LIG    1        0.312   7.625   1.241  0.00  0.00    -0.020 A 
ATOM     24  C   LIG    1        0.382   8.320   0.045  0.00  0.00    +0.110 A 
ATOM     25  C   LIG    1        0.288   7.638  -1.157  0.00  0.00    -0.020 A 
ATOM     26  F   LIG    1        0.542   9.661   0.051  0.00  0.00    -0.140 F 
ATOM     27  C   LIG    1        0.125   6.266  -1.162  0.00  0.00    +0.080 A 
ENDBRANCH  20  21
ENDBRANCH  19  20
ENDBRANCH   6  19
TORSDOF 8
