REMARK  Name = ZINC9p0000002naU.0
REMARK                            x       y       z     vdW  Elec       q    Type
REMARK                         _______ _______ _______ _____ _____    ______ ____
ROOT
ATOM      1  C   LIG    1       -1.413  -2.063   0.004  0.00  0.00    +0.180 C 
ENDROOT
BRANCH   1   2
ATOM      2  C   LIG    1       -2.841  -2.594   0.141  0.00  0.00    -0.020 C 
ATOM      3  C   LIG    1       -3.345  -2.640   1.593  0.00  0.00    +0.040 C 
ATOM      4  C   LIG    1       -4.000  -3.986   1.240  0.00  0.00    +0.030 C 
ATOM      5  C   LIG    1       -2.931  -4.129   0.143  0.00  0.00    +0.010 C 
ENDBRANCH   1   2
BRANCH   1   6
ATOM      6  N   LIG    1       -0.833  -2.538  -1.259  0.00  0.00    -0.640 N 
ATOM      7  H   LIG    1       -0.819  -3.547  -1.264  0.00  0.00    +0.430 HD
ATOM      8  H   LIG    1        0.110  -2.189  -1.349  0.00  0.00    +0.430 HD
ATOM      9  H   LIG    1       -1.390  -2.205  -2.031  0.00  0.00    +0.430 HD
ENDBRANCH   1   6
BRANCH   1  10
ATOM     10  C   LIG    1       -1.433  -0.534   0.013  0.00  0.00    +0.050 C 
BRANCH  10  12
ATOM     11  C   LIG    1       -0.019   1.526   0.010  0.00  0.00    +0.030 C 
ATOM     12  C   LIG    1        0.002  -0.004   0.002  0.00  0.00    -0.000 C 
ENDBRANCH  10  12
ENDBRANCH   1  10
TORSDOF 4
