REMARK  Name = ZINCrH000004v1kh.0
REMARK                            x       y       z     vdW  Elec       q    Type
REMARK                         _______ _______ _______ _____ _____    ______ ____
ROOT
ATOM      1  C   LIG    1       -1.122  -2.168   0.214  0.00  0.00    -0.080 A 
ATOM      2  C   LIG    1        0.096  -2.849   0.193  0.00  0.00    +0.030 A 
ATOM      3  C   LIG    1        0.116  -4.225   0.295  0.00  0.00    +0.120 A 
ATOM      4  C   LIG    1       -1.069  -4.931   0.407  0.00  0.00    -0.650 A 
ATOM      5  C   LIG    1       -2.280  -4.262   0.423  0.00  0.00    +0.130 A 
ATOM      6  C   LIG    1       -2.314  -2.886   0.327  0.00  0.00    +0.070 A 
ENDROOT
BRANCH   1   8
ATOM      7  O   LIG    1       -2.213  -0.104   0.124  0.00  0.00    -0.500 OA
ATOM      8  C   LIG    1       -1.150  -0.694   0.111  0.00  0.00    +0.560 C 
ATOM      9  N   LIG    1        0.002  -0.004   0.002  0.00  0.00    -0.670 N 
ATOM     10  H   LIG    1        0.844  -0.477  -0.086  0.00  0.00    +0.420 HD
BRANCH   9  11
ATOM     11  C   LIG    1       -0.016   1.394   0.016  0.00  0.00    +0.170 A 
ATOM     12  C   LIG    1        0.912   2.109  -0.730  0.00  0.00    +0.020 A 
ATOM     13  C   LIG    1        0.888   3.491  -0.719  0.00  0.00    -0.000 A 
ATOM     14  C   LIG    1       -0.053   4.162   0.043  0.00  0.00    +0.030 A 
ATOM     15  C   LIG    1       -0.975   3.452   0.791  0.00  0.00    -0.000 A 
ATOM     16 CL   LIG    1       -2.154   4.298   1.745  0.00  0.00    -0.040 Cl
ATOM     17 CL   LIG    1        2.043   4.386  -1.657  0.00  0.00    -0.050 Cl
ATOM     18  C   LIG    1       -0.959   2.070   0.779  0.00  0.00    +0.040 A 
ENDBRANCH   9  11
ENDBRANCH   1   8
BRANCH   4  19
ATOM     19  S   LIG    1       -1.035  -6.688   0.530  0.00  0.00    +2.700 S 
ATOM     20  O   LIG    1       -2.247  -7.069   1.167  0.00  0.00    -0.950 OA
ATOM     21  O   LIG    1        0.249  -7.030   1.034  0.00  0.00    -0.950 OA
BRANCH  19  22
ATOM     22  N   LIG    1       -1.108  -7.289  -1.011  0.00  0.00    -1.110 NA
ATOM     23  H   LIG    1       -1.878  -7.807  -1.294  0.00  0.00    +0.420 HD
BRANCH  22  24
ATOM     24  C   LIG    1       -0.011  -7.037  -1.948  0.00  0.00    +0.290 C 
BRANCH  24  25
ATOM     25  C   LIG    1       -0.134  -7.984  -3.144  0.00  0.00    +0.150 C 
ATOM     26  C   LIG    1        1.017  -7.728  -4.136  0.00  0.00    +0.010 C 
ATOM     27  C   LIG    1        1.742  -9.092  -4.238  0.00  0.00    +0.000 C 
ATOM     28  C   LIG    1        0.649 -10.077  -3.752  0.00  0.00    +0.200 C 
ATOM     29  O   LIG    1       -0.020  -9.347  -2.701  0.00  0.00    -0.370 OA
ENDBRANCH  24  25
ENDBRANCH  22  24
ENDBRANCH  19  22
ENDBRANCH   4  19
TORSDOF 6
