REMARK  Name = ZINCpk00000eb5Pi.0
REMARK                            x       y       z     vdW  Elec       q    Type
REMARK                         _______ _______ _______ _____ _____    ______ ____
ROOT
ATOM      1  C   LIG    1        3.142   2.418  -1.475  0.00  0.00    +0.160 C 
ATOM      2  C   LIG    1        4.554   1.834  -1.391  0.00  0.00    +0.160 C 
ATOM      3  N   LIG    1        5.337   2.291  -2.549  0.00  0.00    -0.520 NA
ATOM      4  C   LIG    1        5.400   3.759  -2.589  0.00  0.00    +0.150 C 
ATOM      5  C   LIG    1        3.979   4.323  -2.661  0.00  0.00    +0.230 C 
ATOM      6  O   LIG    1        3.224   3.844  -1.545  0.00  0.00    -0.360 OA
ENDROOT
BRANCH   1   7
ATOM      7  C   LIG    1        2.346   2.012  -0.233  0.00  0.00    +0.340 C 
BRANCH   7  11
ATOM      8  C   LIG    1       -2.661   2.055  -0.448  0.00  0.00    +0.110 C 
ATOM      9  C   LIG    1       -1.220   2.494  -0.463  0.00  0.00    -0.240 A 
ATOM     10  C   LIG    1       -0.142   1.698  -0.274  0.00  0.00    +0.210 A 
ATOM     11  N   LIG    1        0.961   2.469  -0.368  0.00  0.00    -0.370 N 
ATOM     12  N   LIG    1        0.548   3.784  -0.619  0.00  0.00    -0.260 NA
ATOM     13  C   LIG    1       -0.759   3.799  -0.672  0.00  0.00    +0.220 A 
ENDBRANCH   7  11
ENDBRANCH   1   7
BRANCH   3  14
ATOM     14  C   LIG    1        6.685   1.706  -2.536  0.00  0.00    +0.160 C 
BRANCH  14  15
ATOM     15  C   LIG    1        6.610   0.243  -2.977  0.00  0.00    +0.230 C 
BRANCH  15  16
ATOM     16  O   LIG    1        6.130   0.174  -4.322  0.00  0.00    -0.540 OA
ATOM     17  H   LIG    1        6.687   0.637  -4.962  0.00  0.00    +0.370 HD
ENDBRANCH  15  16
BRANCH  15  18
ATOM     18  C   LIG    1        8.004  -0.385  -2.901  0.00  0.00    +0.170 C 
BRANCH  18  19
ATOM     19  O   LIG    1        7.915  -1.779  -3.200  0.00  0.00    -0.300 OA
BRANCH  19  20
ATOM     20  C   LIG    1        9.073  -2.490  -3.175  0.00  0.00    +0.120 A 
ATOM     21  C   LIG    1       10.270  -1.857  -2.875  0.00  0.00    -0.040 A 
ATOM     22  C   LIG    1       11.446  -2.582  -2.845  0.00  0.00    +0.030 A 
ATOM     23  C   LIG    1       11.431  -3.938  -3.126  0.00  0.00    +0.060 A 
ATOM     24  C   LIG    1       10.238  -4.570  -3.431  0.00  0.00    +0.030 A 
ATOM     25  F   LIG    1       12.582  -4.645  -3.101  0.00  0.00    -0.140 F 
ATOM     26  C   LIG    1        9.060  -3.849  -3.456  0.00  0.00    +0.020 A 
ENDBRANCH  19  20
ENDBRANCH  18  19
ENDBRANCH  15  18
ENDBRANCH  14  15
ENDBRANCH   3  14
TORSDOF 8
