REMARK  Name = ZINCtV00001bB365.0
REMARK                            x       y       z     vdW  Elec       q    Type
REMARK                         _______ _______ _______ _____ _____    ______ ____
ROOT
ATOM      1  N   LIG    1        4.592   4.232  -0.021  0.00  0.00    -0.370 N 
ATOM      2  N   LIG    1        3.641   3.199  -0.017  0.00  0.00    -0.260 NA
ATOM      3  C   LIG    1        2.459   3.774  -0.002  0.00  0.00    +0.260 A 
ATOM      4  N   LIG    1        2.627   5.103  -0.003  0.00  0.00    -0.520 NA
ATOM      5  C   LIG    1        3.902   5.388  -0.008  0.00  0.00    +0.290 A 
ENDROOT
BRANCH   3   6
ATOM      6  C   LIG    1        1.154   3.068   0.007  0.00  0.00    +0.220 A 
ATOM      7  C   LIG    1       -0.029   3.803   0.022  0.00  0.00    +0.040 A 
ATOM      8  C   LIG    1       -1.239   3.130   0.030  0.00  0.00    +0.100 A 
ATOM      9  C   LIG    1       -1.226   1.742   0.017  0.00  0.00    -0.140 A 
ATOM     10  C   LIG    1       -0.013   1.076   0.008  0.00  0.00    +0.310 A 
ATOM     11 BR   LIG    1       -2.848   0.771   0.020  0.00  0.00    -0.020 Br
ATOM     12  N   LIG    1        1.124   1.741   0.001  0.00  0.00    -0.450 NA
ENDBRANCH   3   6
BRANCH   1  13
ATOM     13  C   LIG    1        6.050   4.082  -0.035  0.00  0.00    +0.360 C 
BRANCH  13  17
ATOM     14  F   LIG    1        7.738   3.589  -4.011  0.00  0.00    -0.180 F 
ATOM     15  C   LIG    1        7.879   2.993  -2.753  0.00  0.00    +0.260 C 
ATOM     16  C   LIG    1        8.075   4.004  -1.611  0.00  0.00    +0.070 C 
ATOM     17  C   LIG    1        6.543   4.038  -1.483  0.00  0.00    -0.020 C 
ATOM     18  F   LIG    1        8.812   1.951  -2.745  0.00  0.00    -0.190 F 
ATOM     19  C   LIG    1        6.540   2.626  -2.092  0.00  0.00    +0.060 C 
ENDBRANCH  13  17
ENDBRANCH   1  13
BRANCH   5  20
ATOM     20  C   LIG    1        4.498   6.772  -0.007  0.00  0.00    +0.160 C 
BRANCH  20  21
ATOM     21  C   LIG    1        4.686   7.247  -1.449  0.00  0.00    +0.090 C 
BRANCH  21  22
ATOM     22  C   LIG    1        5.281   8.632  -1.448  0.00  0.00    -0.070 A 
ATOM     23  C   LIG    1        6.635   8.802  -1.668  0.00  0.00    +0.050 A 
ATOM     24  C   LIG    1        7.182  10.071  -1.667  0.00  0.00    +0.030 A 
ATOM     25  C   LIG    1        6.376  11.172  -1.446  0.00  0.00    +0.060 A 
ATOM     26  C   LIG    1        5.021  11.004  -1.225  0.00  0.00    -0.090 A 
ATOM     27 BR   LIG    1        3.918  12.509  -0.922  0.00  0.00    -0.020 Br
ATOM     28  C   LIG    1        4.472   9.733  -1.232  0.00  0.00    -0.010 A 
ATOM     29 CL   LIG    1        2.770   9.521  -0.962  0.00  0.00    -0.030 Cl
ENDBRANCH  21  22
ENDBRANCH  20  21
ENDBRANCH   5  20
TORSDOF 6
