REMARK  Name = ZINCb70000001NSj.0
REMARK                            x       y       z     vdW  Elec       q    Type
REMARK                         _______ _______ _______ _____ _____    ______ ____
ROOT
ATOM      1  C   LIG    1       -2.870   1.498  -0.006  0.00  0.00    -0.010 C 
ATOM      2  C   LIG    1       -2.163   1.047   1.275  0.00  0.00    +0.060 C 
ATOM      3  C   LIG    1       -0.728   1.579   1.268  0.00  0.00    +0.070 C 
ATOM      4  C   LIG    1       -0.013   1.086   0.008  0.00  0.00    +0.260 C 
ATOM      5  N   LIG    1       -0.722   1.571  -1.182  0.00  0.00    -0.500 N 
ATOM      6  H   LIG    1       -0.219   1.289  -2.010  0.00  0.00    +0.440 HD
ATOM      7  H   LIG    1       -0.778   2.578  -1.151  0.00  0.00    +0.430 HD
ATOM      8  C   LIG    1       -2.076   1.008  -1.219  0.00  0.00    +0.290 C 
ENDROOT
BRANCH   1  11
ATOM      9  N   LIG    1       -5.143   1.213   0.928  0.00  0.00    -0.720 N 
ATOM     10  H   LIG    1       -4.883   1.800   1.656  0.00  0.00    +0.400 HD
ATOM     11  C   LIG    1       -4.260   0.917  -0.046  0.00  0.00    +0.520 C 
ATOM     12  O   LIG    1       -4.585   0.183  -0.956  0.00  0.00    -0.530 OA
BRANCH   9  14
ATOM     13  C   LIG    1       -7.287   1.139   2.103  0.00  0.00    +0.030 C 
ATOM     14  C   LIG    1       -6.494   0.648   0.889  0.00  0.00    +0.250 C 
ENDBRANCH   9  14
ENDBRANCH   1  11
TORSDOF 2
