REMARK  Name = ZINCrH000004qzSs.0
REMARK                            x       y       z     vdW  Elec       q    Type
REMARK                         _______ _______ _______ _____ _____    ______ ____
ROOT
ATOM      1  C   LIG    1       -3.361   3.674   0.797  0.00  0.00    +0.620 C 
ATOM      2  N   LIG    1       -2.198   4.193   0.358  0.00  0.00    -0.650 N 
ATOM      3  H   LIG    1       -2.149   5.129   0.106  0.00  0.00    +0.430 HD
ATOM      4  O   LIG    1       -3.404   2.524   1.188  0.00  0.00    -0.480 OA
ENDROOT
BRANCH   1  12
ATOM      5  C   LIG    1       -8.805   4.235   1.857  0.00  0.00    +0.180 C 
ATOM      6  C   LIG    1       -7.978   5.362   1.294  0.00  0.00    +0.210 A 
ATOM      7  C   LIG    1       -8.546   6.565   1.024  0.00  0.00    -0.040 A 
ATOM      8  C   LIG    1       -7.753   7.595   0.501  0.00  0.00    +0.240 A 
ATOM      9  N   LIG    1       -6.475   7.399   0.274  0.00  0.00    -0.460 NA
ATOM     10  C   LIG    1       -5.904   6.215   0.536  0.00  0.00    +0.460 A 
ATOM     11  N   LIG    1       -4.662   5.773   0.398  0.00  0.00    -0.500 NA
ATOM     12  C   LIG    1       -4.588   4.503   0.802  0.00  0.00    +0.230 A 
ATOM     13  N   LIG    1       -5.780   4.102   1.203  0.00  0.00    -0.260 NA
ATOM     14  C   LIG    1       -8.370   8.936   0.197  0.00  0.00    +0.180 C 
ATOM     15  N   LIG    1       -6.650   5.189   1.048  0.00  0.00    -0.330 N 
ENDBRANCH   1  12
BRANCH   2  16
ATOM     16  C   LIG    1       -1.060   3.383   0.265  0.00  0.00    +0.150 A 
ATOM     17  C   LIG    1        0.197   3.919   0.514  0.00  0.00    +0.020 A 
ATOM     18  C   LIG    1        1.319   3.121   0.417  0.00  0.00    +0.030 A 
ATOM     19  C   LIG    1        1.190   1.781   0.081  0.00  0.00    +0.070 A 
ATOM     20  C   LIG    1       -0.065   1.243  -0.162  0.00  0.00    +0.040 A 
ATOM     21  C   LIG    1       -1.188   2.042  -0.071  0.00  0.00    +0.040 A 
BRANCH  19  22
ATOM     22  O   LIG    1        2.296   0.994  -0.009  0.00  0.00    -0.260 OA
BRANCH  22  23
ATOM     23  C   LIG    1        2.874   0.572   1.145  0.00  0.00    +0.120 A 
ATOM     24  C   LIG    1        2.341   0.950   2.369  0.00  0.00    -0.060 A 
ATOM     25  C   LIG    1        2.929   0.516   3.541  0.00  0.00    +0.050 A 
ATOM     26  C   LIG    1        4.054  -0.287   3.496  0.00  0.00    -0.020 A 
ATOM     27  C   LIG    1        4.590  -0.661   2.278  0.00  0.00    +0.050 A 
ATOM     28  C   LIG    1        4.003  -0.234   1.102  0.00  0.00    -0.020 A 
ENDBRANCH  22  23
ENDBRANCH  19  22
ENDBRANCH   2  16
TORSDOF 4
