REMARK  Name = ZINCqH0000005ULu.0
REMARK                            x       y       z     vdW  Elec       q    Type
REMARK                         _______ _______ _______ _____ _____    ______ ____
ROOT
ATOM      1  N   LIG    1       -2.059   1.823   1.351  0.00  0.00    -0.400 N 
ATOM      2  C   LIG    1       -0.718   1.572   1.248  0.00  0.00    +0.020 A 
ATOM      3  C   LIG    1       -0.130   1.833   2.426  0.00  0.00    +0.020 A 
ATOM      4  C   LIG    1       -1.196   2.278   3.334  0.00  0.00    -0.260 A 
ATOM      5  C   LIG    1       -0.013   1.086   0.008  0.00  0.00    +0.150 C 
ATOM      6  C   LIG    1       -2.363   2.241   2.595  0.00  0.00    +0.130 A 
ATOM      7  C   LIG    1       -3.737   2.611   3.092  0.00  0.00    +0.150 C 
ENDROOT
BRANCH   1  11
ATOM      8  C   LIG    1       -4.814   1.349  -1.742  0.00  0.00    -0.120 A 
ATOM      9  C   LIG    1       -4.146   0.236  -1.222  0.00  0.00    +0.110 A 
ATOM     10  C   LIG    1       -3.236   0.397  -0.201  0.00  0.00    +0.020 A 
ATOM     11  C   LIG    1       -2.982   1.664   0.313  0.00  0.00    +0.140 A 
ATOM     12  C   LIG    1       -3.649   2.772  -0.198  0.00  0.00    +0.020 A 
ATOM     13  C   LIG    1       -4.556   2.620  -1.223  0.00  0.00    +0.100 A 
BRANCH   8  14
ATOM     14  C   LIG    1       -5.789   1.181  -2.836  0.00  0.00    +0.510 C 
ATOM     15  O   LIG    1       -6.013   0.075  -3.287  0.00  0.00    -0.500 OA
BRANCH  14  17
ATOM     16  C   LIG    1       -7.378   2.014  -4.411  0.00  0.00    +0.290 C 
ATOM     17  O   LIG    1       -6.432   2.254  -3.336  0.00  0.00    -0.350 OA
ENDBRANCH  14  17
ENDBRANCH   8  14
ENDBRANCH   1  11
BRANCH   4  18
ATOM     18  C   LIG    1       -1.052   2.677   4.736  0.00  0.00    +0.450 C 
ATOM     19  O   LIG    1       -2.026   3.024   5.371  0.00  0.00    -0.460 OA
BRANCH  18  20
ATOM     20  C   LIG    1        0.306   2.657   5.389  0.00  0.00    +0.090 C 
BRANCH  20  21
ATOM     21  S   LIG    1        0.155   3.200   7.109  0.00  0.00    +0.090 S 
BRANCH  21  22
ATOM     22  C   LIG    1        1.839   3.083   7.615  0.00  0.00    -0.020 A 
ATOM     23  N   LIG    1        2.840   2.700   6.874  0.00  0.00    -0.270 NA
ATOM     24  N   LIG    1        3.984   2.678   7.403  0.00  0.00    -0.250 NA
ATOM     25  C   LIG    1        4.087   3.034   8.642  0.00  0.00    +0.220 A 
ATOM     26  S   LIG    1        2.476   3.471   9.215  0.00  0.00    +0.120 S 
ENDBRANCH  21  22
ENDBRANCH  20  21
ENDBRANCH  18  20
ENDBRANCH   4  18
TORSDOF 7
