REMARK  Name = ZINCvU0000000G6X.0
REMARK                            x       y       z     vdW  Elec       q    Type
REMARK                         _______ _______ _______ _____ _____    ______ ____
ROOT
ATOM      1  C   LIG    1       -0.933   2.991   1.436  0.00  0.00    +0.130 A 
ATOM      2  C   LIG    1       -0.367   3.791   0.464  0.00  0.00    -0.010 A 
ATOM      3  C   LIG    1       -0.411   5.186   0.596  0.00  0.00    -0.050 A 
ATOM      4  C   LIG    1       -1.020   5.759   1.721  0.00  0.00    +0.020 A 
ATOM      5  C   LIG    1       -1.576   4.952   2.688  0.00  0.00    +0.070 A 
ATOM      6  C   LIG    1       -1.537   3.570   2.553  0.00  0.00    +0.070 A 
ENDROOT
BRANCH   1   8
ATOM      7  C   LIG    1       -0.263   1.113   0.140  0.00  0.00    +0.250 C 
ATOM      8  O   LIG    1       -0.897   1.638   1.308  0.00  0.00    -0.310 OA
ENDBRANCH   1   8
BRANCH   3   9
ATOM      9  C   LIG    1        0.183   6.042  -0.435  0.00  0.00    +0.220 C 
ATOM     10  C   LIG    1        0.749   7.234  -0.089  0.00  0.00    -0.010 C 
BRANCH  10  11
ATOM     11  C   LIG    1        1.198   8.169  -1.137  0.00  0.00    +0.160 A 
ATOM     12  N   LIG    1        1.106   7.953  -2.408  0.00  0.00    -0.450 NA
ATOM     13  C   LIG    1        1.556   8.905  -3.242  0.00  0.00    +0.080 A 
ATOM     14  C   LIG    1        1.564   8.912  -4.655  0.00  0.00    +0.080 A 
ATOM     15  C   LIG    1        2.072   9.974  -5.338  0.00  0.00    +0.030 A 
ATOM     16  C   LIG    1        2.592  11.070  -4.664  0.00  0.00    +0.050 A 
ATOM     17  C   LIG    1        2.597  11.092  -3.287  0.00  0.00    +0.060 A 
ATOM     18  C   LIG    1        2.081  10.015  -2.570  0.00  0.00    -0.170 A 
ATOM     19  S   LIG    1        1.941   9.734  -0.837  0.00  0.00    +0.090 S 
ENDBRANCH  10  11
BRANCH  10  20
ATOM     20  C   LIG    1        0.908   7.578   1.292  0.00  0.00    +0.240 C 
ATOM     21  N   LIG    1        1.034   7.850   2.388  0.00  0.00    -0.380 NA
ENDBRANCH  10  20
ENDBRANCH   3   9
BRANCH   6  22
ATOM     22  O   LIG    1       -2.088   2.780   3.510  0.00  0.00    -0.280 OA
BRANCH  22  23
ATOM     23  C   LIG    1       -1.249   2.237   4.413  0.00  0.00    +0.510 C 
ATOM     24  O   LIG    1       -0.049   2.388   4.295  0.00  0.00    -0.480 OA
BRANCH  23  25
ATOM     25  C   LIG    1       -1.787   1.458   5.547  0.00  0.00    -0.130 A 
ATOM     26  C   LIG    1       -3.165   1.287   5.689  0.00  0.00    +0.080 A 
ATOM     27  C   LIG    1       -3.661   0.554   6.747  0.00  0.00    +0.000 A 
ATOM     28  C   LIG    1       -2.796  -0.002   7.673  0.00  0.00    -0.050 A 
ATOM     29  C   LIG    1       -1.429   0.167   7.541  0.00  0.00    +0.000 A 
ATOM     30  C   LIG    1       -3.345  -0.797   8.829  0.00  0.00    +0.100 C 
ATOM     31  C   LIG    1       -0.920   0.893   6.484  0.00  0.00    +0.090 A 
ENDBRANCH  23  25
ENDBRANCH  22  23
ENDBRANCH   6  22
TORSDOF 7
