REMARK  Name = ZINCkj000005hkI6.0
REMARK                            x       y       z     vdW  Elec       q    Type
REMARK                         _______ _______ _______ _____ _____    ______ ____
ROOT
ATOM      1  C   LIG    1        1.543   4.621   0.136  0.00  0.00    +0.280 C 
ENDROOT
BRANCH   1   2
ATOM      2  N   LIG    1        2.726   4.510   1.000  0.00  0.00    -0.390 N 
ATOM      3  C   LIG    1        3.578   5.718   0.860  0.00  0.00    +0.270 C 
ATOM      4  C   LIG    1        4.406   5.721   2.170  0.00  0.00    +0.080 C 
ATOM      5  C   LIG    1        3.391   5.223   3.224  0.00  0.00    +0.080 C 
ATOM      6  C   LIG    1        2.317   4.465   2.421  0.00  0.00    +0.260 C 
ATOM      7  H   LIG    1        3.254   3.683   0.763  0.00  0.00    +0.430 HD
ENDBRANCH   1   2
BRANCH   1   8
ATOM      8  C   LIG    1        0.660   3.416   0.336  0.00  0.00    -0.100 A 
ATOM      9  C   LIG    1       -0.684   3.426   0.391  0.00  0.00    +0.020 A 
ATOM     10  C   LIG    1       -1.096   2.087   0.583  0.00  0.00    -0.050 A 
ATOM     11  C   LIG    1        0.021   1.340   0.642  0.00  0.00    +0.240 A 
ATOM     12  O   LIG    1        1.082   2.150   0.488  0.00  0.00    -0.170 OA
ENDBRANCH   1   8
BRANCH   1  13
ATOM     13  C   LIG    1        1.985   4.692  -1.327  0.00  0.00    +0.340 C 
BRANCH  13  18
ATOM     14  C   LIG    1       -1.837   3.643  -4.324  0.00  0.00    +0.370 C 
ATOM     15  N   LIG    1       -0.893   4.427  -3.524  0.00  0.00    -0.620 N 
ATOM     16  C   LIG    1       -0.889   5.890  -3.352  0.00  0.00    +0.320 C 
ATOM     17  C   LIG    1        0.292   6.137  -2.434  0.00  0.00    +0.520 C 
ATOM     18  N   LIG    1        0.816   4.922  -2.180  0.00  0.00    -0.580 N 
ATOM     19  O   LIG    1        0.684   7.206  -2.017  0.00  0.00    -0.460 OA
ATOM     20  C   LIG    1        0.141   3.952  -2.807  0.00  0.00    +0.700 C 
ATOM     21  O   LIG    1        0.427   2.773  -2.733  0.00  0.00    -0.520 OA
ENDBRANCH  13  18
ENDBRANCH   1  13
TORSDOF 4
