REMARK  Name = ZINCvU0000000FJu.0
REMARK                            x       y       z     vdW  Elec       q    Type
REMARK                         _______ _______ _______ _____ _____    ______ ____
ROOT
ATOM      1  C   LIG    1        5.112   0.223  -4.076  0.00  0.00    +0.110 A 
ATOM      2  C   LIG    1        5.899   0.705  -3.045  0.00  0.00    -0.040 A 
ATOM      3  C   LIG    1        5.457   0.630  -1.732  0.00  0.00    -0.050 A 
ATOM      4  C   LIG    1        4.229   0.072  -1.449  0.00  0.00    -0.080 A 
ATOM      5  C   LIG    1        3.710  -0.035  -0.039  0.00  0.00    +0.280 C 
ATOM      6  N   LIG    1        4.450   0.866   0.850  0.00  0.00    -0.510 NA
ATOM      7  C   LIG    1        5.897   0.637   0.716  0.00  0.00    +0.190 C 
ATOM      8  C   LIG    1        3.436  -0.412  -2.481  0.00  0.00    -0.020 A 
ATOM      9  C   LIG    1        6.349   1.172  -0.644  0.00  0.00    +0.100 C 
ATOM     10  C   LIG    1        3.871  -0.339  -3.792  0.00  0.00    +0.100 A 
ENDROOT
BRANCH   5  11
ATOM     11  C   LIG    1        2.249   0.335  -0.017  0.00  0.00    -0.180 A 
ATOM     12  C   LIG    1        1.236  -0.534  -0.013  0.00  0.00    +0.000 A 
ATOM     13  C   LIG    1       -0.024   0.040   0.009  0.00  0.00    +0.000 A 
ATOM     14  C   LIG    1       -0.034   1.373   0.022  0.00  0.00    -0.070 A 
ATOM     15  S   LIG    1        1.618   1.976   0.007  0.00  0.00    +0.160 S 
ENDBRANCH   5  11
BRANCH   1  17
ATOM     16  C   LIG    1        6.833   0.889  -5.577  0.00  0.00    +0.250 C 
ATOM     17  O   LIG    1        5.549   0.299  -5.362  0.00  0.00    -0.310 OA
ENDBRANCH   1  17
BRANCH  10  18
ATOM     18  O   LIG    1        3.090  -0.814  -4.798  0.00  0.00    -0.310 OA
ATOM     19  C   LIG    1        1.829  -1.377  -4.430  0.00  0.00    +0.230 C 
ENDBRANCH  10  18
BRANCH   6  20
ATOM     20  C   LIG    1        4.018   0.702   2.244  0.00  0.00    +0.210 C 
BRANCH  20  21
ATOM     21  C   LIG    1        4.613   1.801   3.087  0.00  0.00    +0.520 C 
ATOM     22  N   LIG    1        4.352   1.853   4.408  0.00  0.00    -0.670 N 
ATOM     23  H   LIG    1        3.730   1.223   4.805  0.00  0.00    +0.410 HD
ATOM     24  O   LIG    1        5.326   2.638   2.576  0.00  0.00    -0.490 OA
BRANCH  22  25
ATOM     25  C   LIG    1        4.979   2.817   5.208  0.00  0.00    +0.150 A 
ATOM     26  C   LIG    1        5.250   4.077   4.694  0.00  0.00    +0.080 A 
ATOM     27  C   LIG    1        5.863   5.029   5.486  0.00  0.00    +0.020 A 
ATOM     28  C   LIG    1        6.217   4.723   6.789  0.00  0.00    +0.100 A 
ATOM     29  C   LIG    1        5.952   3.464   7.304  0.00  0.00    +0.020 A 
ATOM     30  F   LIG    1        6.822   5.653   7.560  0.00  0.00    -0.130 F 
ATOM     31  C   LIG    1        5.334   2.511   6.516  0.00  0.00    -0.040 A 
ATOM     32 CL   LIG    1        5.002   0.934   7.161  0.00  0.00    -0.050 Cl
ENDBRANCH  22  25
ENDBRANCH  20  21
ENDBRANCH   6  20
TORSDOF 6
