REMARK  Name = ZINCnE000001ORah.0
REMARK                            x       y       z     vdW  Elec       q    Type
REMARK                         _______ _______ _______ _____ _____    ______ ____
ROOT
ATOM      1  S   LIG    1        2.369  -0.169  -0.708  0.00  0.00    +2.690 S 
ATOM      2  O   LIG    1        1.259  -0.967  -0.320  0.00  0.00    -0.940 OA
ATOM      3  O   LIG    1        3.713  -0.500  -0.389  0.00  0.00    -0.960 OA
ENDROOT
BRANCH   1   8
ATOM      4  C   LIG    1        2.110   0.308  -6.717  0.00  0.00    +0.100 C 
ATOM      5  C   LIG    1        2.175   0.188  -5.216  0.00  0.00    -0.020 A 
ATOM      6  C   LIG    1        3.205   0.792  -4.519  0.00  0.00    -0.020 A 
ATOM      7  C   LIG    1        3.264   0.683  -3.142  0.00  0.00    +0.030 A 
ATOM      8  C   LIG    1        2.293  -0.029  -2.463  0.00  0.00    -0.690 A 
ATOM      9  C   LIG    1        1.267  -0.638  -3.161  0.00  0.00    +0.030 A 
ATOM     10  C   LIG    1        0.212  -1.420  -2.421  0.00  0.00    +0.120 C 
ATOM     11  C   LIG    1        4.386   1.341  -2.381  0.00  0.00    +0.100 C 
ATOM     12  C   LIG    1        1.205  -0.525  -4.537  0.00  0.00    -0.020 A 
ENDBRANCH   1   8
BRANCH   1  13
ATOM     13  N   LIG    1        2.099   1.342  -0.084  0.00  0.00    -1.050 N 
ATOM     14  H   LIG    1        2.813   1.813   0.371  0.00  0.00    +0.420 HD
BRANCH  13  15
ATOM     15  C   LIG    1        0.849   1.933  -0.214  0.00  0.00    +0.150 A 
ATOM     16  C   LIG    1        0.065   1.663  -1.333  0.00  0.00    -0.060 A 
ATOM     17  C   LIG    1       -1.162   2.247  -1.467  0.00  0.00    +0.080 A 
ATOM     18  C   LIG    1       -1.637   3.110  -0.472  0.00  0.00    -0.140 A 
ATOM     19  C   LIG    1       -0.846   3.380   0.651  0.00  0.00    +0.070 A 
ATOM     20  C   LIG    1        0.382   2.796   0.775  0.00  0.00    -0.130 A 
ATOM     21  C   LIG    1        1.234   3.085   1.984  0.00  0.00    +0.090 C 
BRANCH  18  22
ATOM     22  C   LIG    1       -2.961   3.737  -0.610  0.00  0.00    +0.520 C 
ATOM     23  O   LIG    1       -3.650   3.501  -1.593  0.00  0.00    -0.690 OA
ATOM     24  O   LIG    1       -3.372   4.495   0.258  0.00  0.00    -0.690 OA
ENDBRANCH  18  22
ENDBRANCH  13  15
ENDBRANCH   1  13
TORSDOF 4
