REMARK  Name = ZINCkj000005ldRw.0
REMARK                            x       y       z     vdW  Elec       q    Type
REMARK                         _______ _______ _______ _____ _____    ______ ____
ROOT
ATOM      1  N   LIG    1       -2.637  -0.906   1.397  0.00  0.00    -0.680 NA
ATOM      2  H   LIG    1       -2.705  -0.286   2.140  0.00  0.00    +0.440 HD
ENDROOT
BRANCH   1   3
ATOM      3  C   LIG    1       -2.555  -2.258   1.634  0.00  0.00    +0.740 C 
BRANCH   3   4
ATOM      4  N   LIG    1       -2.460  -2.725   2.924  0.00  0.00    -0.620 NA
ATOM      5  C   LIG    1       -1.696  -1.987   3.942  0.00  0.00    +0.290 C 
ATOM      6  C   LIG    1       -2.589  -1.816   5.181  0.00  0.00    +0.230 C 
ATOM      7  O   LIG    1       -3.099  -3.094   5.572  0.00  0.00    -0.360 OA
ATOM      8  C   LIG    1       -3.934  -3.715   4.592  0.00  0.00    +0.250 C 
ATOM      9  C   LIG    1       -3.114  -3.981   3.325  0.00  0.00    +0.280 C 
ENDBRANCH   3   4
BRANCH   3  10
ATOM     10  N   LIG    1       -2.567  -3.096   0.636  0.00  0.00    -0.760 NA
ATOM     11  H   LIG    1       -2.563  -2.765  -0.275  0.00  0.00    +0.440 HD
ATOM     12  H   LIG    1       -2.581  -4.051   0.806  0.00  0.00    +0.440 HD
ENDBRANCH   3  10
ENDBRANCH   1   3
BRANCH   1  13
ATOM     13  C   LIG    1       -2.623  -0.401   0.022  0.00  0.00    +0.370 C 
BRANCH  13  14
ATOM     14  C   LIG    1       -2.724   1.102   0.037  0.00  0.00    +0.110 A 
ATOM     15  N   LIG    1       -3.901   1.682   0.004  0.00  0.00    -0.450 NA
ATOM     16  C   LIG    1       -4.053   3.000   0.015  0.00  0.00    +0.240 A 
ATOM     17  C   LIG    1       -2.988   3.846   0.073  0.00  0.00    +0.040 A 
ATOM     18  C   LIG    1       -1.692   3.298   0.105  0.00  0.00    -0.030 A 
ATOM     19  C   LIG    1       -0.542   4.100   0.147  0.00  0.00    +0.040 A 
ATOM     20  C   LIG    1        0.685   3.510   0.176  0.00  0.00    +0.040 A 
ATOM     21  C   LIG    1        0.816   2.123   0.164  0.00  0.00    +0.040 A 
ATOM     22  C   LIG    1       -0.279   1.314   0.123  0.00  0.00    +0.020 A 
ATOM     23  C   LIG    1       -1.560   1.885   0.087  0.00  0.00    -0.090 A 
ENDBRANCH  13  14
ENDBRANCH   1  13
TORSDOF 5
