REMARK  Name = ZINCpe00000R8LRc.0
REMARK                            x       y       z     vdW  Elec       q    Type
REMARK                         _______ _______ _______ _____ _____    ______ ____
ROOT
ATOM      1  C   LIG    1        4.778   4.104  -0.932  0.00  0.00    +0.250 C 
ATOM      2  C   LIG    1        4.046   5.105  -0.028  0.00  0.00    +0.280 C 
ATOM      3  N   LIG    1        2.874   4.218  -0.084  0.00  0.00    -0.630 N 
ATOM      4  C   LIG    1        1.539   4.366   0.025  0.00  0.00    +0.630 C 
ATOM      5  O   LIG    1        1.056   5.478   0.127  0.00  0.00    -0.520 OA
ATOM      6  C   LIG    1        3.801   3.097  -0.304  0.00  0.00    +0.280 C 
ENDROOT
BRANCH   4   7
ATOM      7  C   LIG    1        0.667   3.186   0.021  0.00  0.00    -0.040 A 
ATOM      8  C   LIG    1        0.035   2.644  -1.077  0.00  0.00    -0.110 A 
ATOM      9  C   LIG    1       -0.685   1.531  -0.630  0.00  0.00    -0.060 A 
ATOM     10  C   LIG    1       -0.490   1.420   0.706  0.00  0.00    +0.180 A 
ATOM     11  C   LIG    1        0.109   3.151  -2.494  0.00  0.00    +0.100 C 
ATOM     12  N   LIG    1        0.332   2.418   1.113  0.00  0.00    -0.420 N 
ATOM     13  C   LIG    1        0.789   2.641   2.487  0.00  0.00    +0.320 C 
ENDBRANCH   4   7
BRANCH   1  17
ATOM     14  C   LIG    1        8.510   3.386  -0.854  0.00  0.00    +0.140 C 
ATOM     15  C   LIG    1        8.104   3.305   0.636  0.00  0.00    +0.090 C 
ATOM     16  C   LIG    1        6.596   3.419   0.618  0.00  0.00    +0.520 C 
ATOM     17  N   LIG    1        6.181   3.885  -0.573  0.00  0.00    -0.610 N 
ATOM     18  O   LIG    1        5.866   3.129   1.542  0.00  0.00    -0.510 OA
ATOM     19  C   LIG    1        7.316   4.153  -1.464  0.00  0.00    +0.300 C 
BRANCH  14  24
ATOM     20  C   LIG    1       10.172  -0.695  -3.234  0.00  0.00    +0.200 C 
ATOM     21  C   LIG    1        9.322   0.279  -2.458  0.00  0.00    +0.170 A 
ATOM     22  N   LIG    1        8.126   0.059  -2.000  0.00  0.00    -0.380 NA
ATOM     23  O   LIG    1        7.714   1.039  -1.416  0.00  0.00    +0.090 OA
ATOM     24  C   LIG    1        8.632   2.010  -1.456  0.00  0.00    +0.180 A 
ATOM     25  N   LIG    1        9.661   1.534  -2.115  0.00  0.00    -0.470 NA
ENDBRANCH  14  24
ENDBRANCH   1  17
TORSDOF 3
