REMARK  Name = ZINCvU0000000AE2.0
REMARK                            x       y       z     vdW  Elec       q    Type
REMARK                         _______ _______ _______ _____ _____    ______ ____
ROOT
ATOM      1  O   LIG    1       -1.088  -0.342   2.783  0.00  0.00    -0.520 OA
ATOM      2  C   LIG    1       -2.097   0.052   2.236  0.00  0.00    +0.530 C 
ATOM      3  N   LIG    1       -2.257  -0.124   0.909  0.00  0.00    -0.610 N 
ATOM      4  C   LIG    1       -3.427   0.303   0.121  0.00  0.00    +0.240 C 
ATOM      5  C   LIG    1       -3.431  -0.627  -1.118  0.00  0.00    +0.040 C 
ATOM      6  C   LIG    1       -1.913  -0.771  -1.404  0.00  0.00    +0.050 C 
ATOM      7  C   LIG    1       -1.293  -0.774   0.009  0.00  0.00    +0.270 C 
ENDROOT
BRANCH   7   8
ATOM      8  C   LIG    1        0.002  -0.004   0.002  0.00  0.00    -0.080 A 
ATOM      9  C   LIG    1       -0.017   1.378   0.010  0.00  0.00    +0.030 A 
ATOM     10  C   LIG    1        1.170   2.088   0.002  0.00  0.00    +0.020 A 
ATOM     11  C   LIG    1        2.382   1.415  -0.013  0.00  0.00    +0.050 A 
ATOM     12  O   LIG    1        3.542   2.127  -0.024  0.00  0.00    -0.310 OA
ATOM     13  C   LIG    1        4.733   1.421   0.338  0.00  0.00    +0.220 C 
ATOM     14  C   LIG    1        4.745   0.082  -0.411  0.00  0.00    +0.220 C 
ATOM     15  O   LIG    1        3.579  -0.656  -0.029  0.00  0.00    -0.310 OA
ATOM     16  C   LIG    1        2.401   0.025  -0.019  0.00  0.00    +0.050 A 
ATOM     17  C   LIG    1        1.207  -0.681  -0.012  0.00  0.00    +0.030 A 
ENDBRANCH   7   8
BRANCH   2  18
ATOM     18  C   LIG    1       -3.171   0.739   3.040  0.00  0.00    +0.070 C 
BRANCH  18  19
ATOM     19  C   LIG    1       -2.743   0.809   4.507  0.00  0.00    +0.210 C 
BRANCH  19  20
ATOM     20  C   LIG    1       -3.817   1.496   5.311  0.00  0.00    +0.200 A 
ATOM     21  N   LIG    1       -4.820   0.903   5.896  0.00  0.00    -0.470 NA
ATOM     22  C   LIG    1       -5.569   1.827   6.517  0.00  0.00    +0.180 A 
ATOM     23  C   LIG    1       -4.991   3.036   6.297  0.00  0.00    -0.010 A 
ATOM     24  O   LIG    1       -3.891   2.813   5.545  0.00  0.00    -0.190 OA
BRANCH  23  25
ATOM     25  C   LIG    1       -5.471   4.344   6.792  0.00  0.00    -0.010 A 
ATOM     26  C   LIG    1       -4.764   5.509   6.489  0.00  0.00    +0.050 A 
ATOM     27  C   LIG    1       -5.219   6.727   6.949  0.00  0.00    +0.030 A 
ATOM     28  C   LIG    1       -6.369   6.794   7.718  0.00  0.00    -0.030 A 
ATOM     29  C   LIG    1       -7.070   5.641   8.027  0.00  0.00    +0.040 A 
ATOM     30 CL   LIG    1       -6.931   8.330   8.300  0.00  0.00    -0.060 Cl
ATOM     31  C   LIG    1       -6.628   4.418   7.568  0.00  0.00    +0.060 A 
ENDBRANCH  23  25
ENDBRANCH  19  20
ENDBRANCH  18  19
ENDBRANCH   2  18
TORSDOF 5
