REMARK  Name = ZINCrH00000tj153.0
REMARK                            x       y       z     vdW  Elec       q    Type
REMARK                         _______ _______ _______ _____ _____    ______ ____
ROOT
ATOM      1  N   LIG    1       -3.329   3.420   0.577  0.00  0.00    -0.590 N 
ATOM      2  C   LIG    1       -4.430   3.323  -0.190  0.00  0.00    +0.600 C 
ATOM      3  C   LIG    1       -4.252   4.074  -1.437  0.00  0.00    -0.060 A 
ATOM      4  C   LIG    1       -2.996   4.649  -1.428  0.00  0.00    -0.180 A 
ATOM      5  C   LIG    1       -2.887   5.347  -2.636  0.00  0.00    +0.120 A 
ATOM      6  N   LIG    1       -4.018   5.178  -3.293  0.00  0.00    -0.230 NA
ATOM      7  N   LIG    1       -4.830   4.442  -2.619  0.00  0.00    -0.330 N 
ATOM      8  H   LIG    1       -5.720   4.187  -2.908  0.00  0.00    +0.450 HD
ATOM      9  O   LIG    1       -5.432   2.701   0.109  0.00  0.00    -0.500 OA
ATOM     10  C   LIG    1       -2.347   4.252  -0.131  0.00  0.00    +0.360 C 
ENDROOT
BRANCH  10  11
ATOM     11  C   LIG    1       -1.093   3.460  -0.398  0.00  0.00    -0.090 A 
ATOM     12  C   LIG    1       -1.182   2.154  -0.839  0.00  0.00    +0.040 A 
ATOM     13  C   LIG    1       -0.032   1.426  -1.084  0.00  0.00    +0.020 A 
ATOM     14  C   LIG    1        1.207   2.006  -0.889  0.00  0.00    +0.060 A 
ATOM     15  C   LIG    1        1.296   3.314  -0.448  0.00  0.00    -0.090 A 
ATOM     16 BR   LIG    1        2.992   4.108  -0.180  0.00  0.00    -0.040 Br
ATOM     17  C   LIG    1        0.146   4.040  -0.197  0.00  0.00    +0.060 A 
ENDBRANCH  10  11
BRANCH   5  18
ATOM     18  C   LIG    1       -1.715   6.133  -3.094  0.00  0.00    -0.040 A 
ATOM     19  C   LIG    1       -0.634   6.339  -2.241  0.00  0.00    +0.040 A 
ATOM     20  C   LIG    1        0.457   7.066  -2.674  0.00  0.00    +0.000 A 
ATOM     21  C   LIG    1        0.476   7.600  -3.949  0.00  0.00    +0.040 A 
ATOM     22  C   LIG    1       -0.594   7.407  -4.803  0.00  0.00    -0.020 A 
ATOM     23  C   LIG    1       -1.693   6.674  -4.383  0.00  0.00    +0.130 A 
BRANCH  23  24
ATOM     24  O   LIG    1       -2.745   6.484  -5.221  0.00  0.00    -0.480 OA
ATOM     25  H   LIG    1       -3.426   7.168  -5.159  0.00  0.00    +0.390 HD
ENDBRANCH  23  24
ENDBRANCH   5  18
BRANCH   1  26
ATOM     26  C   LIG    1       -3.142   2.801   1.891  0.00  0.00    +0.340 C 
BRANCH  26  27
ATOM     27  C   LIG    1       -3.619   3.763   2.981  0.00  0.00    +0.160 C 
BRANCH  27  29
ATOM     28  C   LIG    1       -5.578   4.851   3.831  0.00  0.00    +0.200 C 
ATOM     29  O   LIG    1       -5.028   3.964   2.855  0.00  0.00    -0.380 OA
ENDBRANCH  27  29
ENDBRANCH  26  27
ENDBRANCH   1  26
TORSDOF 6
