REMARK  Name = ZINCrH00000tj153.1
REMARK                            x       y       z     vdW  Elec       q    Type
REMARK                         _______ _______ _______ _____ _____    ______ ____
ROOT
ATOM      1  N   LIG    1       -3.527   3.972   0.901  0.00  0.00    -0.600 N 
ATOM      2  C   LIG    1       -4.582   3.604   0.153  0.00  0.00    +0.610 C 
ATOM      3  C   LIG    1       -4.400   4.039  -1.244  0.00  0.00    -0.030 A 
ATOM      4  N   LIG    1       -4.931   4.056  -2.450  0.00  0.00    -0.200 NA
ATOM      5  N   LIG    1       -4.151   4.664  -3.276  0.00  0.00    -0.380 N 
ATOM      6  H   LIG    1       -4.335   4.798  -4.220  0.00  0.00    +0.450 HD
ATOM      7  C   LIG    1       -3.028   5.091  -2.628  0.00  0.00    +0.110 A 
ATOM      8  C   LIG    1       -3.157   4.708  -1.331  0.00  0.00    -0.180 A 
ATOM      9  O   LIG    1       -5.550   2.999   0.570  0.00  0.00    -0.490 OA
ATOM     10  C   LIG    1       -2.564   4.680   0.051  0.00  0.00    +0.360 C 
ENDROOT
BRANCH  10  11
ATOM     11  C   LIG    1       -1.249   3.944   0.035  0.00  0.00    -0.070 A 
ATOM     12  C   LIG    1       -0.061   4.651   0.027  0.00  0.00    +0.050 A 
ATOM     13  C   LIG    1        1.146   3.977   0.012  0.00  0.00    +0.030 A 
ATOM     14  C   LIG    1        1.165   2.595   0.005  0.00  0.00    +0.050 A 
ATOM     15  C   LIG    1       -0.024   1.887   0.012  0.00  0.00    -0.090 A 
ATOM     16 BR   LIG    1        0.002  -0.004   0.002  0.00  0.00    -0.050 Br
ATOM     17  C   LIG    1       -1.230   2.562   0.022  0.00  0.00    +0.060 A 
ENDBRANCH  10  11
BRANCH   7  18
ATOM     18  C   LIG    1       -1.891   5.828  -3.223  0.00  0.00    -0.070 A 
ATOM     19  C   LIG    1       -2.077   7.115  -3.728  0.00  0.00    +0.050 A 
ATOM     20  C   LIG    1       -1.013   7.798  -4.281  0.00  0.00    +0.000 A 
ATOM     21  C   LIG    1        0.239   7.211  -4.336  0.00  0.00    +0.040 A 
ATOM     22  C   LIG    1        0.435   5.936  -3.840  0.00  0.00    -0.010 A 
ATOM     23  C   LIG    1       -0.622   5.240  -3.276  0.00  0.00    +0.150 A 
BRANCH  23  24
ATOM     24  O   LIG    1       -0.429   3.989  -2.783  0.00  0.00    -0.480 OA
ATOM     25  H   LIG    1       -0.566   3.285  -3.431  0.00  0.00    +0.390 HD
ENDBRANCH  23  24
ENDBRANCH   7  18
BRANCH   1  26
ATOM     26  C   LIG    1       -3.366   3.707   2.333  0.00  0.00    +0.340 C 
BRANCH  26  27
ATOM     27  C   LIG    1       -3.961   4.866   3.135  0.00  0.00    +0.150 C 
BRANCH  27  29
ATOM     28  C   LIG    1       -6.029   5.974   3.627  0.00  0.00    +0.200 C 
ATOM     29  O   LIG    1       -5.372   4.921   2.918  0.00  0.00    -0.380 OA
ENDBRANCH  27  29
ENDBRANCH  26  27
ENDBRANCH   1  26
TORSDOF 6
