REMARK  Name = ZINCpe00000RTxm0.0
REMARK                            x       y       z     vdW  Elec       q    Type
REMARK                         _______ _______ _______ _____ _____    ______ ____
ROOT
ATOM      1  C   LIG    1       -0.524   3.382   6.660  0.00  0.00    +0.030 A 
ATOM      2  C   LIG    1       -0.184   3.189   5.352  0.00  0.00    +0.190 A 
ATOM      3  N   LIG    1       -0.688   4.245   4.676  0.00  0.00    -0.280 N 
ATOM      4  N   LIG    1       -1.282   5.020   5.512  0.00  0.00    -0.070 NA
ATOM      5  N   LIG    1       -1.211   4.537   6.702  0.00  0.00    -0.240 NA
ENDROOT
BRANCH   3   6
ATOM      6  C   LIG    1       -0.571   4.471   3.233  0.00  0.00    +0.230 C 
ATOM      7  C   LIG    1        0.778   3.931   2.695  0.00  0.00    +0.240 C 
ATOM      8  O   LIG    1        0.506   3.668   1.301  0.00  0.00    -0.340 OA
ATOM      9  C   LIG    1       -0.812   3.106   1.232  0.00  0.00    +0.110 C 
ATOM     10  C   LIG    1       -0.730   1.580   1.268  0.00  0.00    -0.000 C 
ATOM     11  C   LIG    1       -0.013   1.086   0.008  0.00  0.00    +0.230 C 
ATOM     12  O   LIG    1       -0.705   1.560  -1.149  0.00  0.00    -0.380 OA
ATOM     13  C   LIG    1       -0.755   2.984  -1.258  0.00  0.00    +0.220 C 
ATOM     14  C   LIG    1       -1.505   3.559  -0.053  0.00  0.00    +0.050 C 
ATOM     15  C   LIG    1       -1.598   3.613   2.453  0.00  0.00    +0.150 C 
BRANCH  15  16
ATOM     16  O   LIG    1       -2.707   4.414   2.038  0.00  0.00    -0.360 OA
ATOM     17  C   LIG    1       -3.823   4.367   2.928  0.00  0.00    +0.220 C 
ENDBRANCH  15  16
ENDBRANCH   3   6
BRANCH   1  21
ATOM     18  C   LIG    1        0.433   0.825   9.822  0.00  0.00    +0.270 A 
ATOM     19  C   LIG    1       -0.296   1.973  10.130  0.00  0.00    +0.030 A 
ATOM     20  C   LIG    1       -0.622   2.833   9.095  0.00  0.00    +0.110 A 
ATOM     21  C   LIG    1       -0.200   2.495   7.805  0.00  0.00    +0.120 A 
ATOM     22  N   LIG    1        0.485   1.377   7.608  0.00  0.00    -0.190 NA
ATOM     23  N   LIG    1        0.790   0.585   8.571  0.00  0.00    -0.290 NA
BRANCH  18  25
ATOM     24  C   LIG    1        1.521  -1.201  10.418  0.00  0.00    +0.250 C 
ATOM     25  O   LIG    1        0.774  -0.046  10.805  0.00  0.00    -0.300 OA
ENDBRANCH  18  25
ENDBRANCH   1  21
TORSDOF 4
