REMARK  Name = ZINCpk00001AZiXr.0
REMARK                            x       y       z     vdW  Elec       q    Type
REMARK                         _______ _______ _______ _____ _____    ______ ____
ROOT
ATOM      1  O   LIG    1       -0.155   7.822   1.868  0.00  0.00    -0.370 OA
ENDROOT
BRANCH   1   4
ATOM      2  N   LIG    1        0.518   5.727   1.092  0.00  0.00    -0.700 N 
ATOM      3  H   LIG    1        0.870   6.137   0.287  0.00  0.00    +0.410 HD
ATOM      4  C   LIG    1       -0.062   6.490   2.039  0.00  0.00    +0.650 C 
ATOM      5  O   LIG    1       -0.502   5.975   3.049  0.00  0.00    -0.570 OA
BRANCH   2   6
ATOM      6  C   LIG    1        0.619   4.277   1.279  0.00  0.00    +0.340 C 
BRANCH   6   7
ATOM      7  C   LIG    1        1.397   3.665   0.112  0.00  0.00    +0.200 C 
BRANCH   7   8
ATOM      8  C   LIG    1        1.390   2.163   0.237  0.00  0.00    +0.440 C 
ATOM      9  O   LIG    1        2.424   1.568   0.427  0.00  0.00    -0.480 OA
BRANCH   8  11
ATOM     10  C   LIG    1        0.303   0.042   0.265  0.00  0.00    +0.280 C 
ATOM     11  O   LIG    1        0.235   1.487   0.135  0.00  0.00    -0.360 OA
ENDBRANCH   8  11
ENDBRANCH   7   8
BRANCH   7  12
ATOM     12  O   LIG    1        2.744   4.139   0.138  0.00  0.00    -0.350 OA
ATOM     13  C   LIG    1        3.360   4.212  -1.150  0.00  0.00    +0.220 C 
ENDBRANCH   7  12
ENDBRANCH   6   7
ENDBRANCH   2   6
ENDBRANCH   1   4
BRANCH   1  14
ATOM     14  C   LIG    1       -0.792   8.581   2.929  0.00  0.00    +0.250 C 
BRANCH  14  15
ATOM     15  C   LIG    1       -0.804  10.065   2.558  0.00  0.00    +0.110 C 
BRANCH  15  16
ATOM     16  C   LIG    1       -1.466  10.853   3.659  0.00  0.00    -0.070 A 
ATOM     17  C   LIG    1       -0.707  11.356   4.699  0.00  0.00    +0.060 A 
ATOM     18  C   LIG    1       -1.310  12.079   5.712  0.00  0.00    +0.070 A 
ATOM     19  C   LIG    1       -2.676  12.302   5.686  0.00  0.00    +0.030 A 
ATOM     20  O   LIG    1       -3.501  12.970   6.544  0.00  0.00    -0.290 OA
ATOM     21  C   LIG    1       -4.832  12.520   6.228  0.00  0.00    +0.570 C 
ATOM     22  O   LIG    1       -4.745  12.145   4.840  0.00  0.00    -0.290 OA
ATOM     23  F   LIG    1       -5.755  13.556   6.404  0.00  0.00    -0.110 F 
ATOM     24  F   LIG    1       -5.177  11.416   7.015  0.00  0.00    -0.150 F 
ATOM     25  C   LIG    1       -3.441  11.794   4.638  0.00  0.00    +0.030 A 
ATOM     26  C   LIG    1       -2.830  11.075   3.624  0.00  0.00    +0.080 A 
ENDBRANCH  15  16
ENDBRANCH  14  15
ENDBRANCH   1  14
TORSDOF 9
