REMARK  Name = ZINCrH000004nMmn.0
REMARK                            x       y       z     vdW  Elec       q    Type
REMARK                         _______ _______ _______ _____ _____    ______ ____
ROOT
ATOM      1  C   LIG    1        1.128   1.471   0.257  0.00  0.00    +0.560 C 
ATOM      2  N   LIG    1       -0.078   0.874   0.177  0.00  0.00    -0.520 N 
ATOM      3  H   LIG    1       -0.145  -0.092   0.226  0.00  0.00    +0.410 HD
ATOM      4  O   LIG    1        1.212   2.682   0.195  0.00  0.00    -0.500 OA
ENDROOT
BRANCH   1   8
ATOM      5  C   LIG    1        4.634  -0.881   0.725  0.00  0.00    -0.060 A 
ATOM      6  C   LIG    1        4.733   0.497   0.655  0.00  0.00    +0.030 A 
ATOM      7  C   LIG    1        3.599   1.267   0.503  0.00  0.00    +0.100 A 
ATOM      8  C   LIG    1        2.348   0.652   0.420  0.00  0.00    -0.120 A 
ATOM      9  C   LIG    1        2.254  -0.738   0.497  0.00  0.00    +0.050 A 
ATOM     10  C   LIG    1        3.397  -1.497   0.644  0.00  0.00    +0.030 A 
BRANCH   5  11
ATOM     11  C   LIG    1        5.878  -1.716   0.892  0.00  0.00    -0.280 C 
BRANCH  11  13
ATOM     12  C   LIG    1        7.721  -2.962   2.621  0.00  0.00    -0.270 C 
ATOM     13  S   LIG    1        6.215  -1.952   2.659  0.00  0.00    +2.420 S 
ATOM     14  O   LIG    1        5.164  -2.727   3.221  0.00  0.00    -0.930 OA
ATOM     15  O   LIG    1        6.529  -0.691   3.233  0.00  0.00    -0.930 OA
ENDBRANCH  11  13
ENDBRANCH   5  11
ENDBRANCH   1   8
BRANCH   2  16
ATOM     16  N   LIG    1       -1.234   1.650   0.017  0.00  0.00    -0.380 N 
BRANCH  16  17
ATOM     17  C   LIG    1       -1.751   2.364   1.100  0.00  0.00    +0.210 A 
ATOM     18  C   LIG    1       -2.978   3.007   0.988  0.00  0.00    -0.040 A 
ATOM     19  C   LIG    1       -3.489   3.708   2.063  0.00  0.00    +0.050 A 
ATOM     20  C   LIG    1       -2.776   3.779   3.246  0.00  0.00    -0.040 A 
ATOM     21  C   LIG    1       -1.553   3.143   3.360  0.00  0.00    +0.040 A 
ATOM     22  C   LIG    1       -1.039   2.437   2.291  0.00  0.00    -0.040 A 
ENDBRANCH  16  17
BRANCH  16  23
ATOM     23  C   LIG    1       -1.869   1.709  -1.226  0.00  0.00    +0.160 A 
ATOM     24  C   LIG    1       -2.179   0.538  -1.906  0.00  0.00    -0.010 A 
ATOM     25  C   LIG    1       -2.811   0.600  -3.132  0.00  0.00    +0.030 A 
ATOM     26  C   LIG    1       -3.126   1.826  -3.688  0.00  0.00    +0.000 A 
ATOM     27  C   LIG    1       -2.814   2.994  -3.017  0.00  0.00    +0.030 A 
ATOM     28  C   LIG    1       -2.186   2.939  -1.788  0.00  0.00    +0.010 A 
ENDBRANCH  16  23
ENDBRANCH   2  16
TORSDOF 6
