REMARK  Name = ZINCnE000001TCO6.0
REMARK                            x       y       z     vdW  Elec       q    Type
REMARK                         _______ _______ _______ _____ _____    ______ ____
ROOT
ATOM      1  C   LIG    1        0.501   3.662   1.950  0.00  0.00    +0.620 C 
ATOM      2  N   LIG    1       -0.832   3.758   1.774  0.00  0.00    -0.610 N 
ATOM      3  C   LIG    1       -1.633   4.985   1.934  0.00  0.00    +0.260 C 
ATOM      4  C   LIG    1       -3.067   4.486   2.243  0.00  0.00    +0.040 C 
ATOM      5  C   LIG    1       -3.162   3.225   1.339  0.00  0.00    +0.030 C 
ATOM      6  C   LIG    1       -1.728   2.657   1.392  0.00  0.00    +0.230 C 
ATOM      7  O   LIG    1        1.072   2.616   1.706  0.00  0.00    -0.520 OA
ENDROOT
BRANCH   1  11
ATOM      8  C   LIG    1        1.741   6.844   3.157  0.00  0.00    -0.010 A 
ATOM      9  C   LIG    1        2.924   6.141   3.117  0.00  0.00    -0.060 A 
ATOM     10  C   LIG    1        2.613   4.854   2.659  0.00  0.00    +0.030 A 
ATOM     11  C   LIG    1        1.266   4.823   2.440  0.00  0.00    -0.110 A 
ATOM     12  O   LIG    1        0.754   6.029   2.739  0.00  0.00    -0.140 OA
BRANCH   8  14
ATOM     13  O   LIG    1        2.561   8.888   3.934  0.00  0.00    -0.650 OA
ATOM     14  C   LIG    1        1.584   8.243   3.578  0.00  0.00    +0.560 C 
ATOM     15  O   LIG    1        0.476   8.763   3.572  0.00  0.00    -0.660 OA
ENDBRANCH   8  14
ENDBRANCH   1  11
BRANCH   6  16
ATOM     16  C   LIG    1       -1.331   2.117   0.017  0.00  0.00    +0.080 C 
BRANCH  16  17
ATOM     17  C   LIG    1       -2.188   0.924  -0.321  0.00  0.00    -0.060 A 
ATOM     18  C   LIG    1       -3.326   1.085  -1.088  0.00  0.00    +0.030 A 
ATOM     19  C   LIG    1       -4.109  -0.010  -1.403  0.00  0.00    +0.010 A 
ATOM     20  C   LIG    1       -3.754  -1.267  -0.950  0.00  0.00    +0.010 A 
ATOM     21  C   LIG    1       -2.617  -1.429  -0.181  0.00  0.00    +0.020 A 
ATOM     22  C   LIG    1       -1.832  -0.334   0.133  0.00  0.00    -0.040 A 
ATOM     23 CL   LIG    1       -0.403  -0.538   1.097  0.00  0.00    -0.050 Cl
ENDBRANCH  16  17
ENDBRANCH   6  16
TORSDOF 4
