REMARK  Name = ZINCpk00000y6tU1.1
REMARK                            x       y       z     vdW  Elec       q    Type
REMARK                         _______ _______ _______ _____ _____    ______ ____
ROOT
ATOM      1  C   LIG    1        6.513   3.228   0.144  0.00  0.00    +0.550 C 
ATOM      2  N   LIG    1        5.571   2.274   0.010  0.00  0.00    -0.610 N 
ATOM      3  C   LIG    1        5.590   0.954   0.657  0.00  0.00    +0.260 C 
ATOM      4  C   LIG    1        4.329   0.196   0.190  0.00  0.00    +0.030 C 
ATOM      5  C   LIG    1        3.963   0.916  -1.135  0.00  0.00    +0.210 C 
ATOM      6  C   LIG    1        4.352   2.380  -0.812  0.00  0.00    +0.320 C 
ATOM      7  O   LIG    1        6.448   4.242  -0.518  0.00  0.00    -0.530 OA
ENDROOT
BRANCH   5   8
ATOM      8  C   LIG    1        2.488   0.800  -1.422  0.00  0.00    -0.040 A 
ATOM      9  C   LIG    1        1.811  -0.329  -1.740  0.00  0.00    +0.170 A 
ATOM     10  N   LIG    1        0.520   0.042  -1.910  0.00  0.00    -0.390 N 
ATOM     11  H   LIG    1       -0.213  -0.548  -2.144  0.00  0.00    +0.450 HD
ATOM     12  N   LIG    1        0.434   1.310  -1.707  0.00  0.00    -0.070 NA
ATOM     13  N   LIG    1        1.590   1.792  -1.414  0.00  0.00    -0.250 NA
ENDBRANCH   5   8
BRANCH   1  15
ATOM     14  C   LIG    1        7.092   2.974   2.542  0.00  0.00    +0.060 C 
ATOM     15  C   LIG    1        7.648   3.035   1.118  0.00  0.00    -0.070 C 
ATOM     16  C   LIG    1        8.377   1.729   0.798  0.00  0.00    +0.060 C 
BRANCH  15  17
ATOM     17  C   LIG    1        8.625   4.207   1.001  0.00  0.00    +0.210 C 
BRANCH  17  18
ATOM     18  O   LIG    1        9.700   4.024   1.924  0.00  0.00    -0.380 OA
BRANCH  18  19
ATOM     19  C   LIG    1       10.674   5.069   1.896  0.00  0.00    +0.220 C 
BRANCH  19  20
ATOM     20  C   LIG    1       11.756   4.775   2.903  0.00  0.00    -0.090 A 
ATOM     21  C   LIG    1       11.639   5.242   4.199  0.00  0.00    +0.020 A 
ATOM     22  C   LIG    1       12.629   4.967   5.124  0.00  0.00    +0.000 A 
ATOM     23  C   LIG    1       13.741   4.236   4.750  0.00  0.00    +0.010 A 
ATOM     24  C   LIG    1       13.860   3.774   3.453  0.00  0.00    +0.000 A 
ATOM     25  C   LIG    1       12.868   4.043   2.529  0.00  0.00    +0.020 A 
ENDBRANCH  19  20
ENDBRANCH  18  19
ENDBRANCH  17  18
ENDBRANCH  15  17
ENDBRANCH   1  15
BRANCH   5  26
ATOM     26  O   LIG    1        4.736   0.408  -2.225  0.00  0.00    -0.530 OA
ATOM     27  H   LIG    1        4.562  -0.520  -2.432  0.00  0.00    +0.380 HD
ENDBRANCH   5  26
TORSDOF 7
