REMARK  Name = ZINCpk00000y6tU1.0
REMARK                            x       y       z     vdW  Elec       q    Type
REMARK                         _______ _______ _______ _____ _____    ______ ____
ROOT
ATOM      1  C   LIG    1        5.382  -3.226   1.223  0.00  0.00    +0.550 C 
ATOM      2  N   LIG    1        4.267  -2.990   0.503  0.00  0.00    -0.610 N 
ATOM      3  C   LIG    1        4.114  -1.944  -0.525  0.00  0.00    +0.280 C 
ATOM      4  C   LIG    1        2.976  -2.456  -1.443  0.00  0.00    +0.040 C 
ATOM      5  C   LIG    1        2.026  -3.129  -0.417  0.00  0.00    +0.210 C 
ATOM      6  C   LIG    1        3.003  -3.732   0.614  0.00  0.00    +0.300 C 
ATOM      7  O   LIG    1        6.402  -2.618   0.978  0.00  0.00    -0.540 OA
ENDROOT
BRANCH   5   8
ATOM      8  C   LIG    1        1.211  -4.212  -1.076  0.00  0.00    -0.020 A 
ATOM      9  N   LIG    1        1.212  -5.492  -0.782  0.00  0.00    -0.260 NA
ATOM     10  N   LIG    1        0.386  -6.095  -1.562  0.00  0.00    -0.240 N 
ATOM     11  H   LIG    1        0.205  -7.048  -1.544  0.00  0.00    +0.470 HD
ATOM     12  N   LIG    1       -0.170  -5.262  -2.369  0.00  0.00    -0.280 NA
ATOM     13  C   LIG    1        0.299  -4.060  -2.123  0.00  0.00    +0.190 A 
ENDBRANCH   5   8
BRANCH   1  15
ATOM     14  C   LIG    1        4.401  -3.786   3.430  0.00  0.00    +0.070 C 
ATOM     15  C   LIG    1        5.361  -4.246   2.332  0.00  0.00    -0.070 C 
ATOM     16  C   LIG    1        4.894  -5.593   1.777  0.00  0.00    +0.060 C 
BRANCH  15  17
ATOM     17  C   LIG    1        6.768  -4.395   2.914  0.00  0.00    +0.210 C 
BRANCH  17  18
ATOM     18  O   LIG    1        6.748  -5.362   3.966  0.00  0.00    -0.380 OA
BRANCH  18  19
ATOM     19  C   LIG    1        8.020  -5.578   4.582  0.00  0.00    +0.220 C 
BRANCH  19  20
ATOM     20  C   LIG    1        7.883  -6.611   5.670  0.00  0.00    -0.090 A 
ATOM     21  C   LIG    1        7.589  -6.218   6.963  0.00  0.00    +0.020 A 
ATOM     22  C   LIG    1        7.458  -7.166   7.960  0.00  0.00    +0.000 A 
ATOM     23  C   LIG    1        7.631  -8.506   7.668  0.00  0.00    +0.010 A 
ATOM     24  C   LIG    1        7.930  -8.898   6.376  0.00  0.00    +0.000 A 
ATOM     25  C   LIG    1        8.056  -7.951   5.378  0.00  0.00    +0.020 A 
ENDBRANCH  19  20
ENDBRANCH  18  19
ENDBRANCH  17  18
ENDBRANCH  15  17
ENDBRANCH   1  15
BRANCH   5  26
ATOM     26  O   LIG    1        1.174  -2.159   0.195  0.00  0.00    -0.530 OA
ATOM     27  H   LIG    1        0.568  -1.723  -0.420  0.00  0.00    +0.390 HD
ENDBRANCH   5  26
TORSDOF 7
