REMARK  Name = ZINCnE000001RgjE.0
REMARK                            x       y       z     vdW  Elec       q    Type
REMARK                         _______ _______ _______ _____ _____    ______ ____
ROOT
ATOM      1  N   LIG    1       -0.723   1.572  -1.182  0.00  0.00    -0.660 NA
ATOM      2  H   LIG    1       -0.469   2.526  -1.390  0.00  0.00    +0.350 HD
ENDROOT
BRANCH   1   3
ATOM      3  C   LIG    1       -0.013   1.086   0.008  0.00  0.00    +0.260 C 
ATOM      4  C   LIG    1        1.423   1.615  -0.003  0.00  0.00    +0.020 C 
BRANCH   3   9
ATOM      5  C   LIG    1       -2.418   1.883   4.782  0.00  0.00    +0.160 C 
ATOM      6  C   LIG    1       -1.803   1.921   3.407  0.00  0.00    -0.210 A 
ATOM      7  CA  LIG    1       -1.746   3.013   2.591  0.00  0.00    +0.000 A 
ATOM      8  N   LIG    1       -1.139   2.773   1.424  0.00  0.00    -0.400 NA
ATOM      9  C   LIG    1       -0.718   1.572   1.248  0.00  0.00    +0.020 A 
ATOM     10  S   LIG    1       -1.060   0.603   2.611  0.00  0.00    +0.100 S 
BRANCH   7  11
ATOM     11  C   LIG    1       -2.292   4.325   2.961  0.00  0.00    +0.550 C 
ATOM     12  OXT LIG    1       -2.208   5.265   2.181  0.00  0.00    -0.670 OA
ATOM     13  O   LIG    1       -2.832   4.478   4.049  0.00  0.00    -0.680 OA
ENDBRANCH   7  11
ENDBRANCH   3   9
ENDBRANCH   1   3
BRANCH   1  14
ATOM     14  C   LIG    1       -0.476   0.698  -2.337  0.00  0.00    +0.250 C 
BRANCH  14  15
ATOM     15  C   LIG    1       -1.220   1.228  -3.536  0.00  0.00    -0.220 A 
ATOM     16  C   LIG    1       -2.397   0.766  -4.010  0.00  0.00    +0.260 A 
ATOM     17  N   LIG    1       -2.730   1.504  -5.091  0.00  0.00    -0.470 N 
ATOM     18  H   LIG    1       -3.529   1.393  -5.631  0.00  0.00    +0.440 HD
ATOM     19  N   LIG    1       -1.721   2.451  -5.301  0.00  0.00    -0.270 NA
ATOM     20  C   LIG    1       -0.807   2.290  -4.366  0.00  0.00    +0.150 A 
BRANCH  20  21
ATOM     21  C   LIG    1        0.433   3.083  -4.214  0.00  0.00    -0.120 A 
ATOM     22  C   LIG    1        1.168   3.579  -5.228  0.00  0.00    +0.030 A 
ATOM     23  C   LIG    1        2.286   4.289  -4.837  0.00  0.00    +0.000 A 
ATOM     24  C   LIG    1        2.467   4.375  -3.517  0.00  0.00    -0.050 A 
ATOM     25  S   LIG    1        1.171   3.531  -2.682  0.00  0.00    +0.160 S 
ENDBRANCH  20  21
ENDBRANCH  14  15
ENDBRANCH   1  14
TORSDOF 6
