REMARK  Name = ZINCrH000004tYek.0
REMARK                            x       y       z     vdW  Elec       q    Type
REMARK                         _______ _______ _______ _____ _____    ______ ____
ROOT
ATOM      1  O   LIG    1       -0.523  -1.496   2.225  0.00  0.00    -0.520 OA
ATOM      2  C   LIG    1        0.638  -1.187   2.063  0.00  0.00    +0.520 C 
ATOM      3  N   LIG    1        0.997  -0.450   0.993  0.00  0.00    -0.620 N 
ATOM      4  C   LIG    1        2.396  -0.060   0.767  0.00  0.00    +0.320 C 
ATOM      5  C   LIG    1        2.443   1.380   0.338  0.00  0.00    -0.050 C 
ATOM      6  C   LIG    1        1.380   2.069   0.000  0.00  0.00    -0.070 C 
ATOM      7  C   LIG    1       -0.019   1.527   0.010  0.00  0.00    +0.070 C 
ATOM      8  C   LIG    1        0.002  -0.004   0.002  0.00  0.00    +0.280 C 
ENDROOT
BRANCH   6   9
ATOM      9  C   LIG    1        1.572   3.473  -0.420  0.00  0.00    -0.070 A 
ATOM     10  C   LIG    1        1.036   4.511   0.344  0.00  0.00    +0.040 A 
ATOM     11  C   LIG    1        1.222   5.819  -0.048  0.00  0.00    -0.010 A 
ATOM     12  C   LIG    1        1.932   6.105  -1.207  0.00  0.00    +0.110 A 
ATOM     13  C   LIG    1        2.462   5.074  -1.972  0.00  0.00    -0.010 A 
ATOM     14  C   LIG    1        2.285   3.763  -1.584  0.00  0.00    +0.040 A 
BRANCH  12  15
ATOM     15  O   LIG    1        2.108   7.395  -1.593  0.00  0.00    -0.500 OA
ATOM     16  H   LIG    1        1.410   7.731  -2.172  0.00  0.00    +0.390 HD
ENDBRANCH  12  15
ENDBRANCH   6   9
BRANCH   2  17
ATOM     17  C   LIG    1        1.681  -1.627   3.058  0.00  0.00    +0.150 C 
BRANCH  17  18
ATOM     18  C   LIG    1        1.025  -2.431   4.151  0.00  0.00    +0.090 A 
ATOM     19  C   LIG    1        1.431  -3.666   4.465  0.00  0.00    -0.060 A 
ATOM     20  S   LIG    1        0.420  -4.260   5.781  0.00  0.00    +0.100 S 
ATOM     21  C   LIG    1       -0.473  -2.741   5.774  0.00  0.00    +0.120 A 
ATOM     22  N   LIG    1        0.023  -1.961   4.856  0.00  0.00    -0.430 NA
BRANCH  21  23
ATOM     23  C   LIG    1       -1.601  -2.404   6.669  0.00  0.00    -0.080 A 
ATOM     24  C   LIG    1       -2.048  -3.322   7.626  0.00  0.00    +0.080 A 
ATOM     25  C   LIG    1       -3.107  -2.958   8.439  0.00  0.00    -0.030 A 
ATOM     26  C   LIG    1       -3.683  -1.710   8.283  0.00  0.00    +0.270 A 
ATOM     27  N   LIG    1       -3.240  -0.865   7.372  0.00  0.00    -0.480 NA
ATOM     28  C   LIG    1       -2.232  -1.163   6.578  0.00  0.00    +0.320 A 
ENDBRANCH  21  23
ENDBRANCH  17  18
ENDBRANCH   2  17
TORSDOF 5
