REMARK  Name = ZINCrH00000mrXbM.0
REMARK                            x       y       z     vdW  Elec       q    Type
REMARK                         _______ _______ _______ _____ _____    ______ ____
ROOT
ATOM      1  O   LIG    1       -1.348   0.438   4.279  0.00  0.00    -0.490 OA
ATOM      2  C   LIG    1       -0.577   0.175   3.381  0.00  0.00    +0.540 C 
ATOM      3  N   LIG    1       -0.266  -1.109   3.115  0.00  0.00    -0.620 N 
ATOM      4  H   LIG    1        0.351  -1.320   2.396  0.00  0.00    +0.430 HD
ENDROOT
BRANCH   2   5
ATOM      5  C   LIG    1        0.032   1.283   2.561  0.00  0.00    +0.030 C 
ATOM      6  C   LIG    1       -0.402   2.691   3.007  0.00  0.00    +0.080 C 
ATOM      7  C   LIG    1       -0.504   3.034   1.533  0.00  0.00    +0.370 C 
ATOM      8  O   LIG    1       -0.443   4.042   0.872  0.00  0.00    -0.400 OA
ATOM      9  C   LIG    1       -0.716   1.564   1.252  0.00  0.00    -0.120 C 
ATOM     10  C   LIG    1        0.020   1.068   0.009  0.00  0.00    +0.080 C 
ATOM     11  C   LIG    1       -0.712   1.562  -1.242  0.00  0.00    +0.040 C 
ATOM     12  C   LIG    1       -2.158   1.063  -1.216  0.00  0.00    +0.290 C 
ATOM     13  C   LIG    1       -2.877   1.633   0.007  0.00  0.00    +0.040 C 
ATOM     14  F   LIG    1       -2.167  -0.334  -1.151  0.00  0.00    -0.200 F 
ATOM     15  F   LIG    1       -2.815   1.479  -2.379  0.00  0.00    -0.200 F 
ATOM     16  C   LIG    1       -2.184   1.142   1.282  0.00  0.00    +0.080 C 
ENDBRANCH   2   5
BRANCH   3  17
ATOM     17  C   LIG    1       -0.826  -2.129   3.869  0.00  0.00    +0.310 A 
ATOM     18  N   LIG    1       -0.594  -3.383   3.696  0.00  0.00    -0.500 NA
ATOM     19  C   LIG    1       -1.216  -4.258   4.512  0.00  0.00    +0.120 A 
ATOM     20  C   LIG    1       -1.129  -5.667   4.524  0.00  0.00    +0.090 A 
ATOM     21  C   LIG    1       -1.844  -6.405   5.440  0.00  0.00    +0.060 A 
ATOM     22  C   LIG    1       -2.667  -5.766   6.370  0.00  0.00    +0.050 A 
ATOM     23  O   LIG    1       -3.258  -6.716   7.154  0.00  0.00    -0.300 OA
ATOM     24  C   LIG    1       -3.111  -7.954   6.434  0.00  0.00    +0.440 C 
ATOM     25  C   LIG    1       -2.763  -4.389   6.372  0.00  0.00    +0.090 A 
ATOM     26  O   LIG    1       -1.923  -7.754   5.646  0.00  0.00    -0.300 OA
ATOM     27  C   LIG    1       -2.043  -3.633   5.449  0.00  0.00    -0.210 A 
ATOM     28  S   LIG    1       -1.948  -1.891   5.201  0.00  0.00    +0.200 S 
ENDBRANCH   3  17
TORSDOF 2
