REMARK  Name = ZINCkj000005hDd9.1
REMARK                            x       y       z     vdW  Elec       q    Type
REMARK                         _______ _______ _______ _____ _____    ______ ____
ROOT
ATOM      1  N   LIG    1        2.964   7.105   2.537  0.00  0.00    -0.390 N 
ATOM      2  C   LIG    1        2.793   7.644   1.181  0.00  0.00    +0.280 C 
ATOM      3  C   LIG    1        1.430   7.218   0.631  0.00  0.00    +0.210 C 
ATOM      4  N   LIG    1        1.351   5.751   0.607  0.00  0.00    -0.520 NA
ATOM      5  C   LIG    1        1.546   5.196   1.954  0.00  0.00    +0.210 C 
ATOM      6  C   LIG    1        2.908   5.638   2.493  0.00  0.00    +0.260 C 
ATOM      7  H   LIG    1        2.227   7.452   3.132  0.00  0.00    +0.420 HD
ENDROOT
BRANCH   4   8
ATOM      8  C   LIG    1        0.077   5.302   0.031  0.00  0.00    +0.210 C 
ATOM      9  C   LIG    1       -0.047   5.823  -1.402  0.00  0.00    +0.060 C 
BRANCH   8  10
ATOM     10  C   LIG    1        0.033   3.795   0.023  0.00  0.00    +0.110 A 
ATOM     11  C   LIG    1       -1.188   3.148   0.030  0.00  0.00    -0.020 A 
ATOM     12  C   LIG    1       -1.217   1.761   0.017  0.00  0.00    +0.070 A 
ATOM     13  C   LIG    1       -0.013   1.076   0.008  0.00  0.00    -0.020 A 
ATOM     14  C   LIG    1        1.170   1.792   0.001  0.00  0.00    +0.260 A 
ATOM     15  N   LIG    1        1.160   3.110   0.008  0.00  0.00    -0.460 NA
ENDBRANCH   8  10
ENDBRANCH   4   8
BRANCH   1  16
ATOM     16  C   LIG    1        4.265   7.529   3.072  0.00  0.00    +0.280 C 
BRANCH  16  17
ATOM     17  C   LIG    1        4.391   7.074   4.527  0.00  0.00    +0.110 C 
BRANCH  17  18
ATOM     18  C   LIG    1        5.726   7.509   5.075  0.00  0.00    +0.470 C 
ATOM     19  O   LIG    1        6.497   8.120   4.375  0.00  0.00    -0.500 OA
BRANCH  18  21
ATOM     20  C   LIG    1        7.359   7.667   6.804  0.00  0.00    +0.280 C 
ATOM     21  O   LIG    1        6.058   7.217   6.343  0.00  0.00    -0.350 OA
ENDBRANCH  18  21
ENDBRANCH  17  18
ENDBRANCH  16  17
ENDBRANCH   1  16
TORSDOF 6
