REMARK  Name = ZINCpk00000y6yRL.0
REMARK                            x       y       z     vdW  Elec       q    Type
REMARK                         _______ _______ _______ _____ _____    ______ ____
ROOT
ATOM      1  N   LIG    1       -1.160   1.903  -3.442  0.00  0.00    -0.680 N 
ATOM      2  H   LIG    1       -1.997   2.346  -3.231  0.00  0.00    +0.410 HD
ATOM      3  C   LIG    1       -0.399   1.393  -2.454  0.00  0.00    +0.730 C 
ATOM      4  N   LIG    1       -0.752   1.581  -1.167  0.00  0.00    -0.630 N 
ATOM      5  C   LIG    1       -1.940   2.320  -0.699  0.00  0.00    +0.270 C 
ATOM      6  C   LIG    1       -1.588   2.776   0.741  0.00  0.00    +0.100 C 
ATOM      7  C   LIG    1       -0.763   1.579   1.248  0.00  0.00    +0.100 C 
ATOM      8  N   LIG    1       -1.611   0.546   1.833  0.00  0.00    -0.710 N 
ATOM      9  H   LIG    1       -2.331   0.065   1.396  0.00  0.00    +0.440 HD
ATOM     10  C   LIG    1       -1.190   0.396   3.107  0.00  0.00    +0.700 C 
ATOM     11  N   LIG    1       -0.171   1.213   3.407  0.00  0.00    -0.580 N 
ATOM     12  C   LIG    1        0.485   1.266   4.715  0.00  0.00    +0.350 C 
ATOM     13  O   LIG    1       -1.681  -0.390   3.893  0.00  0.00    -0.530 OA
ATOM     14  C   LIG    1        0.176   1.982   2.350  0.00  0.00    +0.540 C 
ATOM     15  O   LIG    1        1.055   2.816   2.303  0.00  0.00    -0.450 OA
ATOM     16  C   LIG    1       -0.015   1.082   0.008  0.00  0.00    +0.330 C 
ATOM     17  O   LIG    1        0.607   0.765  -2.723  0.00  0.00    -0.560 OA
ENDROOT
BRANCH   1  21
ATOM     18  C   LIG    1        0.083   1.566  -7.408  0.00  0.00    -0.130 A 
ATOM     19  C   LIG    1        0.352   0.551  -6.511  0.00  0.00    +0.070 A 
ATOM     20  C   LIG    1       -0.059   0.660  -5.196  0.00  0.00    -0.010 A 
ATOM     21  C   LIG    1       -0.743   1.792  -4.774  0.00  0.00    +0.190 A 
ATOM     22  C   LIG    1       -1.019   2.811  -5.675  0.00  0.00    -0.100 A 
ATOM     23  C   LIG    1       -0.600   2.700  -6.991  0.00  0.00    +0.150 A 
BRANCH  18  25
ATOM     24  C   LIG    1        1.883   2.143  -9.014  0.00  0.00    +0.020 C 
ATOM     25  C   LIG    1        0.533   1.443  -8.841  0.00  0.00    +0.070 C 
ENDBRANCH  18  25
BRANCH  23  26
ATOM     26  O   LIG    1       -0.864   3.698  -7.875  0.00  0.00    -0.310 OA
ATOM     27  C   LIG    1       -1.572   4.836  -7.377  0.00  0.00    +0.230 C 
ENDBRANCH  23  26
ENDBRANCH   1  21
TORSDOF 3
