REMARK  Name = ZINCpe000000U6e9.0
REMARK                            x       y       z     vdW  Elec       q    Type
REMARK                         _______ _______ _______ _____ _____    ______ ____
ROOT
ATOM      1  C   LIG    1       -1.800  -2.449  -0.631  0.00  0.00    +0.270 A 
ATOM      2  N   LIG    1       -1.939  -1.303  -0.016  0.00  0.00    -0.320 NA
ATOM      3  N   LIG    1       -3.145  -1.157   0.401  0.00  0.00    -0.030 NA
ATOM      4  N   LIG    1       -3.855  -2.184   0.079  0.00  0.00    -0.070 NA
ATOM      5  N   LIG    1       -2.999  -3.069  -0.601  0.00  0.00    -0.330 N 
ENDROOT
BRANCH   5   6
ATOM      6  C   LIG    1       -3.324  -4.323  -1.139  0.00  0.00    +0.190 A 
ATOM      7  C   LIG    1       -4.102  -5.212  -0.410  0.00  0.00    +0.040 A 
ATOM      8  C   LIG    1       -4.420  -6.446  -0.943  0.00  0.00    +0.160 A 
ATOM      9  C   LIG    1       -3.964  -6.796  -2.200  0.00  0.00    -0.650 A 
ATOM     10  C   LIG    1       -3.188  -5.913  -2.928  0.00  0.00    +0.160 A 
ATOM     11  C   LIG    1       -2.867  -4.677  -2.401  0.00  0.00    +0.010 A 
BRANCH   9  12
ATOM     12  S   LIG    1       -4.372  -8.372  -2.876  0.00  0.00    +2.500 S 
ATOM     13  O   LIG    1       -4.317  -8.175  -4.282  0.00  0.00    -0.930 OA
ATOM     14  O   LIG    1       -5.588  -8.725  -2.232  0.00  0.00    -0.930 OA
ATOM     15  C   LIG    1       -3.025  -9.459  -2.333  0.00  0.00    -0.250 C 
ENDBRANCH   9  12
ENDBRANCH   5   6
BRANCH   1  16
ATOM     16  C   LIG    1       -0.536  -2.978  -1.257  0.00  0.00    +0.320 C 
BRANCH  16  21
ATOM     17  C   LIG    1        1.346  -4.478  -0.920  0.00  0.00    +0.100 C 
ATOM     18  C   LIG    1        2.395  -4.629   0.198  0.00  0.00    +0.050 C 
ATOM     19  C   LIG    1        1.724  -4.044   1.462  0.00  0.00    +0.020 C 
ATOM     20  C   LIG    1        0.630  -3.117   0.876  0.00  0.00    +0.180 C 
ATOM     21  N   LIG    1        0.144  -3.870  -0.308  0.00  0.00    -0.500 NA
BRANCH  17  23
ATOM     22  C   LIG    1        3.186  -4.153  -2.579  0.00  0.00    +0.040 C 
ATOM     23  C   LIG    1        1.888  -3.565  -2.022  0.00  0.00    -0.020 C 
ENDBRANCH  17  23
BRANCH  17  24
ATOM     24  C   LIG    1        1.000  -5.851  -1.498  0.00  0.00    +0.190 C 
BRANCH  24  25
ATOM     25  O   LIG    1        2.193  -6.491  -1.953  0.00  0.00    -0.560 OA
ATOM     26  H   LIG    1        2.049  -7.369  -2.333  0.00  0.00    +0.380 HD
ENDBRANCH  24  25
ENDBRANCH  17  24
ENDBRANCH  16  21
ENDBRANCH   1  16
TORSDOF 7
