REMARK  Name = ZINCpe00000xW9uz.0
REMARK                            x       y       z     vdW  Elec       q    Type
REMARK                         _______ _______ _______ _____ _____    ______ ____
ROOT
ATOM      1  C   LIG    1       -2.205   0.823   0.838  0.00  0.00    +0.210 C 
ATOM      2  C   LIG    1       -1.919   0.826   2.346  0.00  0.00    +0.010 C 
ATOM      3  C   LIG    1       -2.684  -0.320   3.010  0.00  0.00    +0.000 C 
ATOM      4  C   LIG    1       -4.156   0.051   3.148  0.00  0.00    +0.010 C 
ATOM      5  C   LIG    1       -4.266   1.497   3.651  0.00  0.00    +0.010 C 
ATOM      6  C   LIG    1       -4.904   2.350   2.544  0.00  0.00    +0.280 C 
ATOM      7  N   LIG    1       -3.924   2.464   1.452  0.00  0.00    -0.590 N 
ATOM      8  C   LIG    1       -3.289   3.632   1.231  0.00  0.00    +0.560 C 
ATOM      9  O   LIG    1       -2.572   3.758   0.261  0.00  0.00    -0.530 OA
ATOM     10  C   LIG    1       -3.643   1.304   0.610  0.00  0.00    +0.290 C 
ENDROOT
BRANCH   1  12
ATOM     11  C   LIG    1        0.058   1.546   0.297  0.00  0.00    +0.510 C 
ATOM     12  N   LIG    1       -1.271   1.723   0.158  0.00  0.00    -0.720 N 
ATOM     13  H   LIG    1       -1.609   2.447  -0.392  0.00  0.00    +0.410 HD
ATOM     14  O   LIG    1        0.481   0.641   0.985  0.00  0.00    -0.540 OA
BRANCH  11  15
ATOM     15  C   LIG    1        1.019   2.469  -0.408  0.00  0.00    +0.040 C 
BRANCH  15  16
ATOM     16  C   LIG    1        2.455   2.048  -0.091  0.00  0.00    +0.040 C 
BRANCH  16  17
ATOM     17  C   LIG    1        3.431   2.985  -0.807  0.00  0.00    +0.030 C 
BRANCH  17  19
ATOM     18  C   LIG    1        6.003   3.337  -1.081  0.00  0.00    +0.050 C 
ATOM     19  C   LIG    1        4.846   2.570  -0.494  0.00  0.00    +0.350 C 
ATOM     20  O   LIG    1        5.053   1.623   0.226  0.00  0.00    -0.450 OA
ENDBRANCH  17  19
ENDBRANCH  16  17
ENDBRANCH  15  16
ENDBRANCH  11  15
ENDBRANCH   1  12
BRANCH   8  21
ATOM     21  C   LIG    1       -3.471   4.782   2.188  0.00  0.00    -0.200 C 
ATOM     22  C   LIG    1       -2.232   5.604   2.548  0.00  0.00    +0.100 C 
ATOM     23  C   LIG    1       -2.844   4.650   3.577  0.00  0.00    +0.100 C 
BRANCH  21  24
ATOM     24  C   LIG    1       -4.785   5.513   2.084  0.00  0.00    +0.560 C 
ATOM     25  O   LIG    1       -5.492   5.631   3.062  0.00  0.00    -0.530 OA
ATOM     26  N   LIG    1       -5.173   6.036   0.904  0.00  0.00    -0.840 N 
ATOM     27  H   LIG    1       -5.984   6.566   0.851  0.00  0.00    +0.410 HD
ATOM     28  H   LIG    1       -4.642   5.882   0.107  0.00  0.00    +0.410 HD
ENDBRANCH  21  24
ENDBRANCH   8  21
TORSDOF 7
