REMARK  Name = ZINCrD000000CYOY.0
REMARK                            x       y       z     vdW  Elec       q    Type
REMARK                         _______ _______ _______ _____ _____    ______ ____
ROOT
ATOM      1  N   LIG    1        0.129  -0.118  -1.174  0.00  0.00    -0.720 N 
ATOM      2  H   LIG    1        0.288   0.406  -1.975  0.00  0.00    +0.410 HD
ENDROOT
BRANCH   1   5
ATOM      3  O   LIG    1        2.197  -0.761   1.062  0.00  0.00    -0.490 OA
ATOM      4  C   LIG    1        1.758   0.276   0.611  0.00  0.00    +0.500 C 
ATOM      5  C   LIG    1        0.333   0.483   0.146  0.00  0.00    +0.250 C 
ATOM      6  C   LIG    1        0.179   2.020   0.071  0.00  0.00    +0.070 C 
ATOM      7  C   LIG    1        1.642   2.474  -0.129  0.00  0.00    +0.260 C 
ATOM      8  N   LIG    1        2.466   1.407   0.450  0.00  0.00    -0.560 N 
BRANCH   8   9
ATOM      9  C   LIG    1        3.816   1.549   0.793  0.00  0.00    +0.170 A 
ATOM     10  C   LIG    1        4.479   0.520   1.448  0.00  0.00    +0.020 A 
ATOM     11  C   LIG    1        5.813   0.660   1.780  0.00  0.00    +0.060 A 
ATOM     12  C   LIG    1        6.484   1.830   1.470  0.00  0.00    -0.060 A 
ATOM     13  C   LIG    1        5.824   2.859   0.822  0.00  0.00    +0.060 A 
ATOM     14 CL   LIG    1        8.158   2.006   1.895  0.00  0.00    -0.070 Cl
ATOM     15  C   LIG    1        4.492   2.721   0.483  0.00  0.00    -0.020 A 
ENDBRANCH   8   9
ENDBRANCH   1   5
BRANCH   1  16
ATOM     16  C   LIG    1       -0.294  -1.445  -1.280  0.00  0.00    +0.230 A 
ATOM     17  C   LIG    1       -0.412  -2.230  -0.141  0.00  0.00    -0.060 A 
ATOM     18  C   LIG    1       -0.835  -3.541  -0.248  0.00  0.00    +0.050 A 
ATOM     19  C   LIG    1       -1.131  -4.074  -1.489  0.00  0.00    -0.050 A 
ATOM     20  C   LIG    1       -1.009  -3.296  -2.626  0.00  0.00    +0.050 A 
ATOM     21  C   LIG    1       -0.592  -1.983  -2.526  0.00  0.00    -0.150 A 
BRANCH  21  22
ATOM     22  C   LIG    1       -0.460  -1.136  -3.765  0.00  0.00    +0.230 C 
BRANCH  22  23
ATOM     23  N   LIG    1       -1.574  -0.181  -3.826  0.00  0.00    -0.530 NA
ATOM     24  C   LIG    1       -2.862  -0.880  -3.940  0.00  0.00    +0.150 C 
ATOM     25  C   LIG    1       -3.996   0.148  -3.940  0.00  0.00    +0.220 C 
ATOM     26  O   LIG    1       -3.789   1.079  -5.006  0.00  0.00    -0.390 OA
ATOM     27  C   LIG    1       -2.544   1.778  -4.926  0.00  0.00    +0.230 C 
ATOM     28  C   LIG    1       -1.395   0.767  -4.936  0.00  0.00    +0.130 C 
ENDBRANCH  22  23
ENDBRANCH  21  22
ENDBRANCH   1  16
TORSDOF 5
