REMARK  Name = ZINCqH0000008DUi.0
REMARK                            x       y       z     vdW  Elec       q    Type
REMARK                         _______ _______ _______ _____ _____    ______ ____
ROOT
ATOM      1  C   LIG    1        2.864  -0.440  -2.498  0.00  0.00    +0.050 C 
ATOM      2  C   LIG    1        1.742   0.018  -1.564  0.00  0.00    +0.220 C 
ATOM      3  C   LIG    1        0.412  -0.588  -2.023  0.00  0.00    +0.020 C 
ATOM      4  C   LIG    1       -0.724  -0.020  -1.170  0.00  0.00    +0.020 C 
ATOM      5  C   LIG    1       -0.795   1.498  -1.356  0.00  0.00    -0.020 C 
ATOM      6  C   LIG    1        0.521   2.127  -0.890  0.00  0.00    +0.270 C 
ATOM      7  N   LIG    1        1.633   1.483  -1.603  0.00  0.00    -0.600 N 
ATOM      8  C   LIG    1        2.535   2.221  -2.279  0.00  0.00    +0.560 C 
ATOM      9  O   LIG    1        3.383   1.674  -2.957  0.00  0.00    -0.520 OA
ENDROOT
BRANCH   8  10
ATOM     10  C   LIG    1        2.493   3.697  -2.197  0.00  0.00    -0.070 A 
ATOM     11  C   LIG    1        1.995   4.319  -1.045  0.00  0.00    +0.020 A 
ATOM     12  C   LIG    1        1.955   5.677  -0.955  0.00  0.00    +0.110 A 
ATOM     13  C   LIG    1        2.404   6.470  -2.023  0.00  0.00    +0.040 A 
ATOM     14  N   LIG    1        2.358   7.814  -1.929  0.00  0.00    -0.400 NA
ATOM     15  C   LIG    1        2.769   8.571  -2.905  0.00  0.00    +0.310 A 
ATOM     16  C   LIG    1        3.295   7.969  -4.137  0.00  0.00    +0.490 A 
ATOM     17  N   LIG    1        3.346   6.623  -4.242  0.00  0.00    -0.620 N 
ATOM     18  H   LIG    1        3.690   6.205  -5.047  0.00  0.00    +0.420 HD
ATOM     19  O   LIG    1        3.680   8.674  -5.052  0.00  0.00    -0.510 OA
ATOM     20  C   LIG    1        2.901   5.852  -3.186  0.00  0.00    +0.150 A 
ATOM     21  C   LIG    1        2.943   4.465  -3.267  0.00  0.00    +0.050 A 
ENDBRANCH   8  10
BRANCH   5  22
ATOM     22  C   LIG    1       -1.952   2.061  -0.528  0.00  0.00    -0.010 C 
ATOM     23  C   LIG    1       -3.266   1.428  -0.992  0.00  0.00    +0.010 C 
ATOM     24  C   LIG    1       -4.423   1.991  -0.164  0.00  0.00    +0.000 C 
ATOM     25  C   LIG    1       -4.493   3.508  -0.351  0.00  0.00    +0.000 C 
ATOM     26  C   LIG    1       -3.179   4.140   0.113  0.00  0.00    +0.000 C 
ATOM     27  C   LIG    1       -2.022   3.577  -0.715  0.00  0.00    +0.000 C 
ENDBRANCH   5  22
TORSDOF 2
