REMARK  Name = ZINCpe000000T4XO.0
REMARK                            x       y       z     vdW  Elec       q    Type
REMARK                         _______ _______ _______ _____ _____    ______ ____
ROOT
ATOM      1  N   LIG    1       -1.745   3.119   5.844  0.00  0.00    -0.370 N 
ATOM      2  N   LIG    1       -1.369   2.148   6.783  0.00  0.00    -0.490 N 
ATOM      3  H   LIG    1       -1.710   1.241   6.830  0.00  0.00    +0.450 HD
ATOM      4  C   LIG    1       -0.439   2.697   7.616  0.00  0.00    +0.350 A 
ATOM      5  C   LIG    1       -0.222   3.978   7.245  0.00  0.00    -0.110 A 
ATOM      6  C   LIG    1       -1.037   4.260   6.130  0.00  0.00    +0.490 A 
ATOM      7  N   LIG    1       -1.107   5.418   5.475  0.00  0.00    -0.680 NA
ENDROOT
BRANCH   7   8
ATOM      8  C   LIG    1       -0.360   6.447   5.863  0.00  0.00    +0.500 C 
ATOM      9  O   LIG    1        0.388   6.331   6.815  0.00  0.00    -0.550 OA
BRANCH   8  10
ATOM     10  C   LIG    1       -0.440   7.757   5.123  0.00  0.00    +0.220 C 
BRANCH  10  11
ATOM     11  N   LIG    1        0.476   8.726   5.742  0.00  0.00    -0.510 NA
ATOM     12  C   LIG    1        1.875   8.312   5.570  0.00  0.00    +0.200 C 
BRANCH  11  13
ATOM     13  C   LIG    1        0.256  10.075   5.204  0.00  0.00    +0.190 C 
BRANCH  13  14
ATOM     14  C   LIG    1        1.029  11.075   6.025  0.00  0.00    +0.520 C 
ATOM     15  O   LIG    1        1.697  10.700   6.966  0.00  0.00    -0.520 OA
ATOM     16  N   LIG    1        0.978  12.385   5.715  0.00  0.00    -0.860 N 
ATOM     17  H   LIG    1        1.476  13.029   6.243  0.00  0.00    +0.400 HD
ATOM     18  H   LIG    1        0.444  12.685   4.963  0.00  0.00    +0.400 HD
ENDBRANCH  13  14
ENDBRANCH  11  13
ENDBRANCH  10  11
ENDBRANCH   8  10
ENDBRANCH   7   8
BRANCH   1  19
ATOM     19  C   LIG    1       -2.718   2.949   4.762  0.00  0.00    +0.400 C 
BRANCH  19  23
ATOM     20  C   LIG    1       -0.718   1.572   1.248  0.00  0.00    -0.060 A 
ATOM     21  C   LIG    1       -0.856   2.928   1.478  0.00  0.00    +0.000 A 
ATOM     22  C   LIG    1       -1.507   3.374   2.613  0.00  0.00    +0.050 A 
ATOM     23  C   LIG    1       -2.012   2.463   3.523  0.00  0.00    -0.130 A 
ATOM     24  C   LIG    1       -1.870   1.107   3.295  0.00  0.00    +0.020 A 
ATOM     25  C   LIG    1       -1.222   0.662   2.158  0.00  0.00    +0.000 A 
BRANCH  20  27
ATOM     26  C   LIG    1        1.423   1.615  -0.003  0.00  0.00    +0.030 C 
ATOM     27  C   LIG    1       -0.013   1.086   0.008  0.00  0.00    +0.020 C 
ATOM     28  C   LIG    1       -0.753   1.593  -1.232  0.00  0.00    +0.040 C 
ENDBRANCH  20  27
ENDBRANCH  19  23
ENDBRANCH   1  19
TORSDOF 8
