REMARK  Name = ZINCpe000000Ygr0.0
REMARK                            x       y       z     vdW  Elec       q    Type
REMARK                         _______ _______ _______ _____ _____    ______ ____
ROOT
ATOM      1  C   LIG    1       -2.780   0.714   0.365  0.00  0.00    +0.590 C 
ATOM      2  N   LIG    1       -2.612   0.395  -0.933  0.00  0.00    -0.710 N 
ATOM      3  H   LIG    1       -1.788  -0.025  -1.227  0.00  0.00    +0.400 HD
ATOM      4  O   LIG    1       -3.838   1.177   0.746  0.00  0.00    -0.540 OA
ENDROOT
BRANCH   1  10
ATOM      5  C   LIG    1       -2.945   1.126   3.419  0.00  0.00    +0.340 C 
ATOM      6  N   LIG    1       -1.757   0.685   2.684  0.00  0.00    -0.390 N 
ATOM      7  C   LIG    1       -0.568   0.390   3.233  0.00  0.00    +0.250 A 
ATOM      8  C   LIG    1        0.297   0.013   2.224  0.00  0.00    -0.230 A 
ATOM      9  C   LIG    1       -0.422   0.091   1.010  0.00  0.00    +0.070 A 
ATOM     10  C   LIG    1       -1.685   0.501   1.321  0.00  0.00    -0.060 A 
BRANCH   8  11
ATOM     11  C   LIG    1        1.705  -0.392   2.383  0.00  0.00    +0.590 C 
ATOM     12  O   LIG    1        2.363  -0.701   1.407  0.00  0.00    -0.540 OA
ATOM     13  N   LIG    1        2.264  -0.419   3.609  0.00  0.00    -0.860 N 
ATOM     14  H   LIG    1        3.191  -0.686   3.713  0.00  0.00    +0.410 HD
ATOM     15  H   LIG    1        1.740  -0.172   4.386  0.00  0.00    +0.400 HD
ENDBRANCH   8  11
ENDBRANCH   1  10
BRANCH   2  16
ATOM     16  C   LIG    1       -3.673   0.683  -1.901  0.00  0.00    +0.260 C 
BRANCH  16  17
ATOM     17  C   LIG    1       -3.065   0.827  -3.297  0.00  0.00    -0.010 C 
ATOM     18  C   LIG    1       -2.218  -0.409  -3.618  0.00  0.00    +0.000 C 
ATOM     19  C   LIG    1       -1.549  -0.219  -4.982  0.00  0.00    +0.210 C 
ATOM     20  O   LIG    1       -0.759   0.971  -4.964  0.00  0.00    -0.380 OA
ATOM     21  C   LIG    1       -1.507   2.164  -4.717  0.00  0.00    +0.200 C 
ATOM     22  C   LIG    1       -2.173   2.071  -3.341  0.00  0.00    +0.010 C 
ENDBRANCH  16  17
BRANCH  16  23
ATOM     23  C   LIG    1       -4.687  -0.464  -1.902  0.00  0.00    -0.100 C 
ATOM     24  C   LIG    1       -5.059  -0.958  -0.495  0.00  0.00    +0.030 C 
ATOM     25  C   LIG    1       -5.027  -2.383  -1.072  0.00  0.00    +0.010 C 
ATOM     26  C   LIG    1       -4.053  -1.846  -2.135  0.00  0.00    +0.030 C 
BRANCH  23  27
ATOM     27  C   LIG    1       -5.897  -0.186  -2.797  0.00  0.00    +0.200 C 
BRANCH  27  28
ATOM     28  O   LIG    1       -6.850  -1.240  -2.649  0.00  0.00    -0.560 OA
ATOM     29  H   LIG    1       -7.645  -1.129  -3.188  0.00  0.00    +0.380 HD
ENDBRANCH  27  28
ENDBRANCH  23  27
ENDBRANCH  16  23
ENDBRANCH   2  16
TORSDOF 7
