REMARK  Name = ZINCpe000027pGYm.1
REMARK                            x       y       z     vdW  Elec       q    Type
REMARK                         _______ _______ _______ _____ _____    ______ ____
ROOT
ATOM      1  O   LIG    1       -0.582  -1.330  -4.054  0.00  0.00    -0.630 OA
ATOM      2  C   LIG    1        0.490  -0.841  -3.769  0.00  0.00    +0.530 C 
ATOM      3  N   LIG    1        1.610  -1.264  -4.388  0.00  0.00    -1.110 NA
ENDROOT
BRANCH   3   4
ATOM      4  S   LIG    1        1.522  -2.453  -5.538  0.00  0.00    +2.650 S 
ATOM      5  O   LIG    1        0.800  -1.901  -6.631  0.00  0.00    -1.000 OA
ATOM      6  O   LIG    1        1.122  -3.636  -4.861  0.00  0.00    -1.000 OA
BRANCH   4   7
ATOM      7  C   LIG    1        3.160  -2.740  -6.118  0.00  0.00    -0.650 A 
ATOM      8  C   LIG    1        3.771  -3.959  -5.888  0.00  0.00    +0.150 A 
ATOM      9  C   LIG    1        5.055  -4.188  -6.347  0.00  0.00    +0.020 A 
ATOM     10  C   LIG    1        5.735  -3.195  -7.026  0.00  0.00    +0.070 A 
ATOM     11  C   LIG    1        5.128  -1.972  -7.253  0.00  0.00    +0.040 A 
ATOM     12  F   LIG    1        5.792  -1.001  -7.918  0.00  0.00    -0.130 F 
ATOM     13  C   LIG    1        3.839  -1.744  -6.798  0.00  0.00    +0.170 A 
ATOM     14  F   LIG    1        3.245  -0.550  -7.018  0.00  0.00    -0.110 F 
ENDBRANCH   4   7
ENDBRANCH   3   4
BRANCH   2  15
ATOM     15  C   LIG    1        0.571   0.241  -2.723  0.00  0.00    +0.060 C 
BRANCH  15  16
ATOM     16  C   LIG    1       -0.831   0.533  -2.182  0.00  0.00    +0.260 C 
BRANCH  16  17
ATOM     17  N   LIG    1       -0.752   1.587  -1.162  0.00  0.00    -0.390 N 
ATOM     18  C   LIG    1       -0.013   1.086   0.008  0.00  0.00    +0.270 C 
ATOM     19  C   LIG    1       -0.763   1.597   1.253  0.00  0.00    +0.030 C 
ATOM     20  C   LIG    1       -0.318   3.037   1.550  0.00  0.00    +0.030 C 
ATOM     21  C   LIG    1       -1.586   3.893   1.681  0.00  0.00    +0.000 C 
ATOM     22  C   LIG    1       -2.787   2.960   1.462  0.00  0.00    +0.190 C 
ATOM     23  C   LIG    1       -2.232   1.708   0.762  0.00  0.00    +0.020 C 
ATOM     24  C   LIG    1       -2.110   1.972  -0.747  0.00  0.00    +0.270 C 
ATOM     25  H   LIG    1       -0.276   2.391  -1.543  0.00  0.00    +0.420 HD
BRANCH  22  26
ATOM     26  O   LIG    1       -3.760   3.597   0.632  0.00  0.00    -0.570 OA
ATOM     27  H   LIG    1       -4.147   4.394   1.020  0.00  0.00    +0.390 HD
ENDBRANCH  22  26
ENDBRANCH  16  17
ENDBRANCH  15  16
ENDBRANCH   2  15
TORSDOF 6
