REMARK  Name = ZINCpe000027pGYm.0
REMARK                            x       y       z     vdW  Elec       q    Type
REMARK                         _______ _______ _______ _____ _____    ______ ____
ROOT
ATOM      1  O   LIG    1       -4.368   4.671   2.810  0.00  0.00    -0.630 OA
ATOM      2  C   LIG    1       -4.931   4.215   1.837  0.00  0.00    +0.530 C 
ATOM      3  N   LIG    1       -6.184   4.610   1.537  0.00  0.00    -1.110 NA
ENDROOT
BRANCH   3   4
ATOM      4  S   LIG    1       -6.954   5.720   2.495  0.00  0.00    +2.650 S 
ATOM      5  O   LIG    1       -6.241   6.941   2.347  0.00  0.00    -1.000 OA
ATOM      6  O   LIG    1       -7.163   5.089   3.751  0.00  0.00    -1.000 OA
BRANCH   4   7
ATOM      7  C   LIG    1       -8.551   5.989   1.801  0.00  0.00    -0.650 A 
ATOM      8  C   LIG    1       -9.681   5.622   2.506  0.00  0.00    +0.150 A 
ATOM      9  C   LIG    1      -10.935   5.833   1.963  0.00  0.00    +0.020 A 
ATOM     10  C   LIG    1      -11.061   6.411   0.714  0.00  0.00    +0.060 A 
ATOM     11  C   LIG    1       -9.931   6.779   0.005  0.00  0.00    +0.040 A 
ATOM     12  F   LIG    1      -10.053   7.344  -1.216  0.00  0.00    -0.130 F 
ATOM     13  C   LIG    1       -8.673   6.573   0.552  0.00  0.00    +0.170 A 
ATOM     14  F   LIG    1       -7.569   6.937  -0.136  0.00  0.00    -0.110 F 
ENDBRANCH   4   7
ENDBRANCH   3   4
BRANCH   2  15
ATOM     15  C   LIG    1       -4.230   3.204   0.966  0.00  0.00    +0.060 C 
BRANCH  15  16
ATOM     16  C   LIG    1       -2.832   2.932   1.524  0.00  0.00    +0.270 C 
BRANCH  16  17
ATOM     17  N   LIG    1       -2.149   1.947   0.674  0.00  0.00    -0.400 N 
ATOM     18  C   LIG    1       -1.885   2.517  -0.672  0.00  0.00    +0.260 C 
ATOM     19  C   LIG    1       -0.732   1.663  -1.239  0.00  0.00    +0.000 C 
ATOM     20  C   LIG    1        0.293   2.578  -1.941  0.00  0.00    +0.040 C 
ATOM     21  C   LIG    1        1.667   2.014  -1.495  0.00  0.00    +0.000 C 
ATOM     22  C   LIG    1        1.411   1.680  -0.002  0.00  0.00    +0.180 C 
ATOM     23  C   LIG    1       -0.013   1.086   0.008  0.00  0.00    +0.010 C 
ATOM     24  C   LIG    1       -0.776   1.644   1.227  0.00  0.00    +0.300 C 
ATOM     25  H   LIG    1       -2.697   1.103   0.599  0.00  0.00    +0.420 HD
BRANCH  22  26
ATOM     26  O   LIG    1        1.465   2.866   0.792  0.00  0.00    -0.570 OA
ATOM     27  H   LIG    1        2.338   3.282   0.821  0.00  0.00    +0.390 HD
ENDBRANCH  22  26
ENDBRANCH  16  17
ENDBRANCH  15  16
ENDBRANCH   2  15
TORSDOF 6
