REMARK  Name = ZINCpe00000HtCm7.0
REMARK                            x       y       z     vdW  Elec       q    Type
REMARK                         _______ _______ _______ _____ _____    ______ ____
ROOT
ATOM      1  C   LIG    1        3.547   6.109   1.242  0.00  0.00    +0.510 C 
ATOM      2  N   LIG    1        4.342   5.099   0.836  0.00  0.00    -0.600 N 
ATOM      3  C   LIG    1        5.478   4.683   1.662  0.00  0.00    +0.280 C 
ATOM      4  O   LIG    1        2.607   6.453   0.559  0.00  0.00    -0.530 OA
ENDROOT
BRANCH   1   5
ATOM      5  C   LIG    1        3.828   6.811   2.546  0.00  0.00    +0.350 C 
BRANCH   5  10
ATOM      6  C   LIG    1        0.964   9.022   3.383  0.00  0.00    +0.120 C 
ATOM      7  N   LIG    1        1.910   9.892   2.663  0.00  0.00    -0.720 N 
ATOM      8  H   LIG    1        1.794  10.834   2.462  0.00  0.00    +0.440 HD
ATOM      9  C   LIG    1        2.970   9.126   2.345  0.00  0.00    +0.710 C 
ATOM     10  N   LIG    1        2.830   7.862   2.759  0.00  0.00    -0.560 N 
ATOM     11  O   LIG    1        3.944   9.537   1.744  0.00  0.00    -0.540 OA
ATOM     12  C   LIG    1       -0.364   8.931   2.627  0.00  0.00    +0.080 C 
ATOM     13  C   LIG    1        1.660   7.676   3.402  0.00  0.00    +0.540 C 
ATOM     14  O   LIG    1        1.250   6.647   3.894  0.00  0.00    -0.460 OA
BRANCH   6  16
ATOM     15  C   LIG    1        0.033  10.889   4.757  0.00  0.00    +0.050 C 
ATOM     16  C   LIG    1        0.736   9.532   4.807  0.00  0.00    +0.040 C 
ENDBRANCH   6  16
ENDBRANCH   5  10
ENDBRANCH   1   5
BRANCH   2  17
ATOM     17  C   LIG    1        4.069   4.417  -0.431  0.00  0.00    +0.390 C 
BRANCH  17  18
ATOM     18  C   LIG    1        3.143   3.254  -0.187  0.00  0.00    -0.030 A 
ATOM     19  C   LIG    1        1.800   3.270  -0.316  0.00  0.00    +0.150 A 
ATOM     20  N   LIG    1        1.361   2.019  -0.000  0.00  0.00    -0.460 N 
ATOM     21  C   LIG    1       -0.019   1.528   0.010  0.00  0.00    +0.280 C 
ATOM     22  C   LIG    1        0.002  -0.004   0.002  0.00  0.00    +0.030 C 
ATOM     23  C   LIG    1        0.940  -0.509   1.103  0.00  0.00    +0.020 C 
ATOM     24  C   LIG    1        2.389  -0.177   0.723  0.00  0.00    +0.150 C 
ATOM     25  C   LIG    1        2.449   1.276   0.313  0.00  0.00    +0.210 A 
ATOM     26  N   LIG    1        3.509   2.021   0.198  0.00  0.00    -0.480 NA
ENDBRANCH  17  18
ENDBRANCH   2  17
TORSDOF 5
