REMARK  Name = ZINCbu0000001N7a.0
REMARK                            x       y       z     vdW  Elec       q    Type
REMARK                         _______ _______ _______ _____ _____    ______ ____
ROOT
ATOM      1  C   LIG    1        0.809  -0.509   1.200  0.00  0.00    +0.070 C 
ATOM      2  C   LIG    1        0.002  -0.004   0.002  0.00  0.00    +0.170 C 
ATOM      3  C   LIG    1        0.648  -0.502  -1.293  0.00  0.00    +0.060 C 
ATOM      4  C   LIG    1        2.081   0.030  -1.379  0.00  0.00    +0.000 C 
ATOM      5  C   LIG    1        2.054   1.559  -1.295  0.00  0.00    +0.050 C 
ATOM      6  C   LIG    1        1.356   1.980  -0.000  0.00  0.00    +0.250 C 
ATOM      7  N   LIG    1       -0.018   1.464   0.010  0.00  0.00    -0.500 N 
ATOM      8  H   LIG    1       -0.492   1.788   0.840  0.00  0.00    +0.430 HD
ATOM      9  H   LIG    1       -0.508   1.797  -0.807  0.00  0.00    +0.430 HD
ENDROOT
BRANCH   4  10
ATOM     10  C   LIG    1        2.707  -0.398  -2.708  0.00  0.00    -0.060 C 
ATOM     11  C   LIG    1        2.724  -1.926  -2.795  0.00  0.00    +0.030 C 
ATOM     12  C   LIG    1        4.138   0.134  -2.793  0.00  0.00    +0.030 C 
ATOM     13  C   LIG    1        1.882   0.169  -3.866  0.00  0.00    +0.030 C 
ENDBRANCH   4  10
TORSDOF 1
