REMARK  Name = ZINCpk00000ebjA9.0
REMARK                            x       y       z     vdW  Elec       q    Type
REMARK                         _______ _______ _______ _____ _____    ______ ____
ROOT
ATOM      1  C   LIG    1       -2.508   0.987   0.019  0.00  0.00    +0.590 C 
ATOM      2  N   LIG    1       -2.487  -0.357  -0.090  0.00  0.00    -0.600 N 
ATOM      3  C   LIG    1       -1.277  -1.198  -0.119  0.00  0.00    +0.230 C 
ATOM      4  C   LIG    1       -1.707  -2.491  -0.851  0.00  0.00    +0.180 C 
ATOM      5  C   LIG    1       -3.158  -2.676  -0.333  0.00  0.00    +0.080 C 
ATOM      6  C   LIG    1       -3.668  -1.225  -0.205  0.00  0.00    +0.280 C 
ATOM      7  O   LIG    1       -3.570   1.574   0.095  0.00  0.00    -0.510 OA
ENDROOT
BRANCH   1  14
ATOM      8  C   LIG    1        3.586   3.716   0.449  0.00  0.00    +0.390 C 
ATOM      9  N   LIG    1        2.194   3.956   0.059  0.00  0.00    -0.380 N 
ATOM     10  N   LIG    1        1.665   5.144  -0.463  0.00  0.00    +0.020 NA
ATOM     11  N   LIG    1        0.408   4.993  -0.689  0.00  0.00    -0.190 NA
ATOM     12  C   LIG    1        0.024   3.741  -0.347  0.00  0.00    -0.070 A 
ATOM     13  C   LIG    1       -1.202   3.069  -0.389  0.00  0.00    +0.250 A 
ATOM     14  C   LIG    1       -1.241   1.745   0.048  0.00  0.00    -0.210 A 
ATOM     15  C   LIG    1       -0.066   1.144   0.518  0.00  0.00    +0.380 A 
ATOM     16  N   LIG    1        1.070   1.801   0.545  0.00  0.00    -0.480 NA
ATOM     17  C   LIG    1        1.159   3.060   0.136  0.00  0.00    +0.290 A 
ENDBRANCH   1  14
BRANCH   6  18
ATOM     18  C   LIG    1       -4.526  -1.090   1.026  0.00  0.00    -0.100 A 
ATOM     19  C   LIG    1       -3.935  -0.971   2.270  0.00  0.00    +0.050 A 
ATOM     20  C   LIG    1       -4.721  -0.841   3.400  0.00  0.00    -0.020 A 
ATOM     21  C   LIG    1       -6.101  -0.842   3.286  0.00  0.00    +0.100 A 
ATOM     22  C   LIG    1       -6.692  -0.967   2.040  0.00  0.00    -0.010 A 
ATOM     23  F   LIG    1       -6.871  -0.722   4.390  0.00  0.00    -0.140 F 
ATOM     24  C   LIG    1       -5.904  -1.091   0.911  0.00  0.00    +0.060 A 
ENDBRANCH   6  18
BRANCH   4  25
ATOM     25  O   LIG    1       -1.689  -2.304  -2.267  0.00  0.00    -0.550 OA
ATOM     26  H   LIG    1       -0.804  -2.184  -2.637  0.00  0.00    +0.380 HD
ENDBRANCH   4  25
TORSDOF 3
