REMARK  Name = ZINCrH000004ovHR.0
REMARK                            x       y       z     vdW  Elec       q    Type
REMARK                         _______ _______ _______ _____ _____    ______ ____
ROOT
ATOM      1  N   LIG    1       -5.806  -2.456  -0.573  0.00  0.00    -0.530 NA
ATOM      2  C   LIG    1       -4.482  -3.072  -0.731  0.00  0.00    +0.180 C 
ATOM      3  C   LIG    1       -3.526  -2.497   0.320  0.00  0.00    +0.280 C 
ATOM      4  N   LIG    1       -3.546  -1.030   0.217  0.00  0.00    -0.620 N 
ATOM      5  C   LIG    1       -4.850  -0.349   0.235  0.00  0.00    +0.320 C 
ATOM      6  C   LIG    1       -2.400  -0.328   0.113  0.00  0.00    +0.710 C 
ATOM      7  N   LIG    1       -1.223  -0.973   0.000  0.00  0.00    -0.690 N 
ATOM      8  H   LIG    1       -1.205  -1.940  -0.084  0.00  0.00    +0.410 HD
ATOM      9  O   LIG    1       -2.429   0.888   0.123  0.00  0.00    -0.560 OA
ATOM     10  C   LIG    1       -5.753  -1.009  -0.819  0.00  0.00    +0.170 C 
ENDROOT
BRANCH   7  11
ATOM     11  C   LIG    1       -0.024  -0.249   0.003  0.00  0.00    +0.140 A 
ATOM     12  C   LIG    1        1.060  -0.695  -0.751  0.00  0.00    +0.050 A 
ATOM     13  C   LIG    1        2.244   0.009  -0.763  0.00  0.00    +0.030 A 
ATOM     14  C   LIG    1        2.368   1.174  -0.015  0.00  0.00    +0.120 A 
ATOM     15  O   LIG    1        3.519   1.878  -0.014  0.00  0.00    -0.220 OA
ATOM     16  C   LIG    1        3.671   3.002   0.693  0.00  0.00    +0.340 A 
ATOM     17  C   LIG    1        2.694   3.520   1.459  0.00  0.00    -0.170 A 
ATOM     18  C   LIG    1        1.438   2.862   1.534  0.00  0.00    +0.420 A 
ATOM     19  O   LIG    1        0.530   3.303   2.218  0.00  0.00    -0.460 OA
ATOM     20  C   LIG    1        1.278   1.622   0.749  0.00  0.00    -0.200 A 
ATOM     21  C   LIG    1        0.084   0.905   0.759  0.00  0.00    +0.130 A 
ENDBRANCH   7  11
BRANCH   1  23
ATOM     22  C   LIG    1       -6.898  -4.587  -1.089  0.00  0.00    +0.050 C 
ATOM     23  C   LIG    1       -6.795  -3.103  -1.447  0.00  0.00    +0.190 C 
BRANCH  23  24
ATOM     24  C   LIG    1       -8.137  -2.446  -1.258  0.00  0.00    -0.110 A 
ATOM     25  C   LIG    1       -8.592  -2.074  -0.060  0.00  0.00    -0.010 A 
ATOM     26  S   LIG    1      -10.184  -1.345  -0.234  0.00  0.00    +0.100 S 
ATOM     27  C   LIG    1      -10.144  -1.601  -1.974  0.00  0.00    -0.050 A 
ATOM     28  C   LIG    1       -8.995  -2.187  -2.313  0.00  0.00    +0.010 A 
ENDBRANCH  23  24
ENDBRANCH   1  23
TORSDOF 3
