REMARK  Name = ZINCrD0000071fWv.0
REMARK                            x       y       z     vdW  Elec       q    Type
REMARK                         _______ _______ _______ _____ _____    ______ ____
ROOT
ATOM      1  C   LIG    1       -1.498   6.111  -0.077  0.00  0.00    +0.530 C 
ATOM      2  N   LIG    1       -1.754   7.429  -0.191  0.00  0.00    -0.720 N 
ATOM      3  H   LIG    1       -1.023   8.067  -0.204  0.00  0.00    +0.400 HD
ATOM      4  O   LIG    1       -2.412   5.314  -0.061  0.00  0.00    -0.520 OA
ENDROOT
BRANCH   2   5
ATOM      5  C   LIG    1       -3.138   7.900  -0.296  0.00  0.00    +0.260 C 
ATOM      6  C   LIG    1       -3.729   8.084   1.107  0.00  0.00    +0.030 C 
ATOM      7  C   LIG    1       -2.812   9.009   1.908  0.00  0.00    +0.070 C 
ATOM      8  C   LIG    1       -2.512  10.255   1.128  0.00  0.00    +0.520 C 
ATOM      9  N   LIG    1       -2.659  10.345  -0.198  0.00  0.00    -0.700 N 
ATOM     10  H   LIG    1       -2.414  11.175  -0.637  0.00  0.00    +0.400 HD
ATOM     11  O   LIG    1       -2.116  11.231   1.730  0.00  0.00    -0.550 OA
ATOM     12  C   LIG    1       -3.171   9.249  -1.013  0.00  0.00    +0.130 C 
ATOM     13  C   LIG    1       -4.524   9.553  -1.671  0.00  0.00    +0.040 C 
ATOM     14  C   LIG    1       -3.727  10.124  -2.857  0.00  0.00    +0.020 C 
ATOM     15  C   LIG    1       -2.574   9.201  -2.426  0.00  0.00    +0.040 C 
ENDBRANCH   2   5
BRANCH   1  16
ATOM     16  C   LIG    1       -0.074   5.628   0.031  0.00  0.00    -0.030 C 
ATOM     17  C   LIG    1        0.738   6.165  -1.149  0.00  0.00    +0.050 C 
ATOM     18  C   LIG    1        0.537   6.129   1.341  0.00  0.00    +0.060 C 
BRANCH  16  22
ATOM     19  C   LIG    1       -0.014   1.355  -0.026  0.00  0.00    +0.130 A 
ATOM     20  C   LIG    1        0.377   2.040   1.115  0.00  0.00    -0.080 A 
ATOM     21  C   LIG    1        0.361   3.422   1.129  0.00  0.00    +0.060 A 
ATOM     22  C   LIG    1       -0.053   4.121   0.011  0.00  0.00    -0.100 A 
ATOM     23  C   LIG    1       -0.448   3.440  -1.126  0.00  0.00    +0.070 A 
ATOM     24  C   LIG    1       -0.430   2.059  -1.147  0.00  0.00    -0.020 A 
BRANCH  19  25
ATOM     25  O   LIG    1        0.004  -0.004  -0.044  0.00  0.00    -0.310 OA
BRANCH  25  26
ATOM     26  C   LIG    1        0.443  -0.662   1.146  0.00  0.00    +0.180 C 
BRANCH  26  28
ATOM     27  C   LIG    1        0.983  -2.879   2.164  0.00  0.00    +0.040 C 
ATOM     28  C   LIG    1        0.396  -2.177   0.937  0.00  0.00    -0.020 C 
ATOM     29  C   LIG    1       -1.055  -2.620   0.742  0.00  0.00    +0.020 C 
ENDBRANCH  26  28
ENDBRANCH  25  26
ENDBRANCH  19  25
ENDBRANCH  16  22
ENDBRANCH   1  16
TORSDOF 6
