REMARK  Name = ZINCrg00000yW8kT.0
REMARK                            x       y       z     vdW  Elec       q    Type
REMARK                         _______ _______ _______ _____ _____    ______ ____
ROOT
ATOM      1  C   LIG    1       -2.487   2.358  -0.053  0.00  0.00    +0.030 C 
ATOM      2  C   LIG    1       -2.426   2.142  -1.586  0.00  0.00    +0.280 C 
ATOM      3  N   LIG    1       -1.173   1.400  -1.813  0.00  0.00    -0.610 N 
ATOM      4  C   LIG    1       -0.819   0.685  -0.579  0.00  0.00    +0.220 C 
ATOM      5  C   LIG    1       -0.468   1.381  -2.962  0.00  0.00    +0.590 C 
ATOM      6  O   LIG    1       -0.903   1.940  -3.951  0.00  0.00    -0.520 OA
ATOM      7  C   LIG    1       -1.893   1.023   0.476  0.00  0.00    +0.180 C 
ENDROOT
BRANCH   5   8
ATOM      8  C   LIG    1        0.830   0.684  -3.019  0.00  0.00    -0.220 A 
ATOM      9  C   LIG    1        0.877  -0.695  -3.047  0.00  0.00    +0.340 A 
ATOM     10  N   LIG    1        2.062  -1.336  -3.100  0.00  0.00    -0.440 N 
ATOM     11  C   LIG    1        3.220  -0.652  -3.126  0.00  0.00    +0.520 A 
ATOM     12  C   LIG    1        3.220   0.754  -3.099  0.00  0.00    -0.070 A 
ATOM     13  O   LIG    1        4.279  -1.256  -3.173  0.00  0.00    -0.520 OA
ATOM     14  C   LIG    1        2.037   1.424  -3.052  0.00  0.00    +0.150 A 
BRANCH  10  15
ATOM     15  C   LIG    1        2.087  -2.736  -3.127  0.00  0.00    +0.110 A 
ATOM     16  C   LIG    1        2.534  -3.401  -4.261  0.00  0.00    +0.060 A 
ATOM     17  C   LIG    1        2.558  -4.782  -4.286  0.00  0.00    +0.060 A 
ATOM     18  C   LIG    1        2.137  -5.503  -3.184  0.00  0.00    +0.050 A 
ATOM     19  C   LIG    1        1.691  -4.843  -2.051  0.00  0.00    -0.030 A 
ATOM     20 CL   LIG    1        1.164  -5.751  -0.669  0.00  0.00    -0.050 Cl
ATOM     21  C   LIG    1        1.671  -3.461  -2.019  0.00  0.00    +0.040 A 
ENDBRANCH  10  15
ENDBRANCH   5   8
BRANCH   7  22
ATOM     22  O   LIG    1       -1.299   1.206   1.763  0.00  0.00    -0.550 OA
ATOM     23  H   LIG    1       -0.847   0.421   2.102  0.00  0.00    +0.380 HD
ENDBRANCH   7  22
BRANCH   1  24
ATOM     24  C   LIG    1       -3.932   2.542   0.417  0.00  0.00    +0.080 C 
BRANCH  24  28
ATOM     25  C   LIG    1       -6.281   5.452  -0.396  0.00  0.00    +0.290 C 
ATOM     26  N   LIG    1       -5.746   4.201   0.145  0.00  0.00    -0.740 N 
ATOM     27  H   LIG    1       -6.301   3.639   0.708  0.00  0.00    +0.400 HD
ATOM     28  C   LIG    1       -4.482   3.829  -0.139  0.00  0.00    +0.510 C 
ATOM     29  O   LIG    1       -3.788   4.531  -0.844  0.00  0.00    -0.530 OA
ENDBRANCH  24  28
ENDBRANCH   1  24
TORSDOF 5
