REMARK  Name = ZINCrD0000075plB.0
REMARK                            x       y       z     vdW  Elec       q    Type
REMARK                         _______ _______ _______ _____ _____    ______ ____
ROOT
ATOM      1  O   LIG    1        3.377   3.583   0.091  0.00  0.00    -0.510 OA
ATOM      2  C   LIG    1        2.319   4.174   0.104  0.00  0.00    +0.520 C 
ATOM      3  N   LIG    1        1.162   3.488   0.009  0.00  0.00    -0.670 N 
ATOM      4  H   LIG    1        0.320   3.965  -0.058  0.00  0.00    +0.420 HD
ENDROOT
BRANCH   3   5
ATOM      5  C   LIG    1        1.177   2.089   0.008  0.00  0.00    +0.180 A 
ATOM      6  C   LIG    1        0.234   1.385  -0.730  0.00  0.00    -0.050 A 
ATOM      7  C   LIG    1        0.249   0.003  -0.732  0.00  0.00    +0.070 A 
ATOM      8  C   LIG    1        1.199  -0.681   0.001  0.00  0.00    -0.090 A 
ATOM      9  C   LIG    1        2.143   0.018   0.741  0.00  0.00    +0.150 A 
ATOM     10  C   LIG    1        2.132   1.403   0.745  0.00  0.00    -0.010 A 
BRANCH   9  11
ATOM     11  O   LIG    1        3.078  -0.657   1.462  0.00  0.00    -0.310 OA
BRANCH  11  12
ATOM     12  C   LIG    1        3.029  -2.084   1.412  0.00  0.00    +0.260 C 
BRANCH  12  13
ATOM     13  C   LIG    1        4.133  -2.654   2.265  0.00  0.00    -0.050 A 
ATOM     14  C   LIG    1        5.382  -2.920   1.724  0.00  0.00    -0.010 A 
ATOM     15  C   LIG    1        6.371  -3.439   2.538  0.00  0.00    +0.260 A 
ATOM     16  N   LIG    1        6.135  -3.689   3.811  0.00  0.00    -0.480 NA
ATOM     17  C   LIG    1        4.958  -3.453   4.357  0.00  0.00    +0.260 A 
ATOM     18  C   LIG    1        3.922  -2.931   3.607  0.00  0.00    -0.010 A 
ENDBRANCH  12  13
ENDBRANCH  11  12
ENDBRANCH   9  11
ENDBRANCH   3   5
BRANCH   2  19
ATOM     19  C   LIG    1        2.296   5.676   0.225  0.00  0.00    +0.110 C 
BRANCH  19  20
ATOM     20  C   LIG    1        3.730   6.202   0.316  0.00  0.00    -0.320 C 
BRANCH  20  21
ATOM     21  S   LIG    1        3.703   8.010   0.462  0.00  0.00    +2.410 S 
ATOM     22  O   LIG    1        3.098   8.355   1.700  0.00  0.00    -0.930 OA
ATOM     23  O   LIG    1        3.180   8.553  -0.742  0.00  0.00    -0.940 OA
BRANCH  21  24
ATOM     24  C   LIG    1        5.471   8.405   0.553  0.00  0.00    -0.430 C 
ATOM     25  C   LIG    1        6.120   7.655   1.735  0.00  0.00    +0.060 C 
ATOM     26  C   LIG    1        7.154   8.662   2.300  0.00  0.00    +0.030 C 
ATOM     27  C   LIG    1        6.420  10.019   2.164  0.00  0.00    +0.030 C 
ATOM     28  C   LIG    1        5.663   9.907   0.825  0.00  0.00    +0.060 C 
ENDBRANCH  21  24
ENDBRANCH  20  21
ENDBRANCH  19  20
ENDBRANCH   2  19
TORSDOF 8
