REMARK  Name = ZINCpe00000bFzYb.0
REMARK                            x       y       z     vdW  Elec       q    Type
REMARK                         _______ _______ _______ _____ _____    ______ ____
ROOT
ATOM      1  C   LIG    1       -6.631   5.395  -0.501  0.00  0.00    +0.140 C 
ATOM      2  C   LIG    1       -5.121   5.181  -0.394  0.00  0.00    +0.270 C 
ATOM      3  N   LIG    1       -4.711   5.417   0.999  0.00  0.00    -0.610 N 
ATOM      4  C   LIG    1       -5.457   4.731   2.065  0.00  0.00    +0.260 C 
ATOM      5  C   LIG    1       -6.954   4.970   1.839  0.00  0.00    +0.220 C 
ATOM      6  C   LIG    1       -3.686   6.242   1.290  0.00  0.00    +0.510 C 
ATOM      7  O   LIG    1       -3.327   6.380   2.440  0.00  0.00    -0.510 OA
ATOM      8  O   LIG    1       -7.291   4.612   0.497  0.00  0.00    -0.370 OA
ENDROOT
BRANCH   6   9
ATOM      9  C   LIG    1       -2.986   6.993   0.187  0.00  0.00    +0.240 C 
ATOM     10  C   LIG    1       -1.790   6.176  -0.306  0.00  0.00    +0.070 C 
BRANCH   9  11
ATOM     11  N   LIG    1       -2.519   8.285   0.695  0.00  0.00    -0.440 N 
ATOM     12  C   LIG    1       -2.888   9.507   0.217  0.00  0.00    +0.130 A 
ATOM     13  C   LIG    1       -2.255  10.452   0.942  0.00  0.00    -0.050 A 
ATOM     14  C   LIG    1       -1.462   9.789   1.899  0.00  0.00    -0.070 A 
ATOM     15  C   LIG    1       -1.640   8.464   1.722  0.00  0.00    +0.180 A 
ENDBRANCH   9  11
ENDBRANCH   6   9
BRANCH   1  16
ATOM     16  C   LIG    1       -7.113   4.966  -1.889  0.00  0.00    +0.300 C 
BRANCH  16  18
ATOM     17  C   LIG    1       -9.181   4.988  -3.177  0.00  0.00    +0.560 C 
ATOM     18  N   LIG    1       -8.537   5.279  -2.029  0.00  0.00    -0.720 N 
ATOM     19  H   LIG    1       -9.017   5.696  -1.297  0.00  0.00    +0.400 HD
ATOM     20  O   LIG    1       -8.563   4.550  -4.125  0.00  0.00    -0.530 OA
BRANCH  17  21
ATOM     21  C   LIG    1      -10.668   5.206  -3.283  0.00  0.00    -0.170 C 
ATOM     22  C   LIG    1      -11.260   5.371  -4.684  0.00  0.00    +0.090 C 
ATOM     23  C   LIG    1      -11.149   6.581  -3.753  0.00  0.00    +0.060 C 
BRANCH  21  24
ATOM     24  C   LIG    1      -11.518   4.479  -2.239  0.00  0.00    +0.220 C 
BRANCH  24  26
ATOM     25  C   LIG    1      -12.140   2.292  -1.483  0.00  0.00    +0.200 C 
ATOM     26  O   LIG    1      -11.383   3.067  -2.413  0.00  0.00    -0.380 OA
ENDBRANCH  24  26
ENDBRANCH  21  24
ENDBRANCH  17  21
ENDBRANCH  16  18
ENDBRANCH   1  16
TORSDOF 7
