REMARK  Name = ZINCpk00000y6wMF.0
REMARK                            x       y       z     vdW  Elec       q    Type
REMARK                         _______ _______ _______ _____ _____    ______ ____
ROOT
ATOM      1  C   LIG    1        2.513  -2.689  -0.037  0.00  0.00    +0.150 C 
ATOM      2  C   LIG    1        2.419  -4.122  -0.625  0.00  0.00    +0.070 C 
ATOM      3  C   LIG    1        3.611  -4.846   0.037  0.00  0.00    +0.250 C 
ATOM      4  N   LIG    1        3.946  -4.104   1.261  0.00  0.00    -0.630 N 
ATOM      5  C   LIG    1        4.946  -4.406   2.113  0.00  0.00    +0.730 C 
ATOM      6  N   LIG    1        5.739  -5.469   1.872  0.00  0.00    -0.740 N 
ATOM      7  H   LIG    1        5.590  -6.017   1.086  0.00  0.00    +0.400 HD
ATOM      8  O   LIG    1        5.133  -3.719   3.099  0.00  0.00    -0.580 OA
ATOM      9  C   LIG    1        3.008  -2.976   1.403  0.00  0.00    +0.270 C 
ENDROOT
BRANCH   1  10
ATOM     10  O   LIG    1        1.232  -2.057  -0.021  0.00  0.00    -0.280 OA
BRANCH  10  16
ATOM     11  C   LIG    1        0.002  -0.004   0.002  0.00  0.00    +0.290 A 
ATOM     12  N   LIG    1       -0.016   1.319   0.009  0.00  0.00    -0.490 NA
ATOM     13  C   LIG    1        1.098   2.027   0.003  0.00  0.00    +0.250 A 
ATOM     14  C   LIG    1        2.332   1.410  -0.013  0.00  0.00    -0.020 A 
ATOM     15  C   LIG    1        2.399   0.022  -0.021  0.00  0.00    -0.010 A 
ATOM     16  C   LIG    1        1.214  -0.697  -0.013  0.00  0.00    +0.060 A 
BRANCH  11  18
ATOM     17  C   LIG    1       -2.347   0.203   0.026  0.00  0.00    +0.220 C 
ATOM     18  N   LIG    1       -1.198  -0.711   0.010  0.00  0.00    -0.480 N 
ATOM     19  C   LIG    1       -1.273  -1.632  -1.132  0.00  0.00    +0.220 C 
ENDBRANCH  11  18
ENDBRANCH  10  16
ENDBRANCH   1  10
BRANCH   6  20
ATOM     20  C   LIG    1        6.826  -5.797   2.798  0.00  0.00    +0.280 C 
BRANCH  20  21
ATOM     21  C   LIG    1        7.566  -7.038   2.296  0.00  0.00    +0.320 C 
BRANCH  21  22
ATOM     22  N   LIG    1        8.653  -7.367   3.222  0.00  0.00    -0.380 N 
ATOM     23  C   LIG    1        8.843  -8.554   3.834  0.00  0.00    +0.240 A 
ATOM     24  C   LIG    1        9.952  -8.449   4.603  0.00  0.00    -0.120 A 
ATOM     25  C   LIG    1       10.457  -7.153   4.455  0.00  0.00    +0.240 A 
ATOM     26  N   LIG    1        9.682  -6.505   3.623  0.00  0.00    -0.290 NA
ENDBRANCH  21  22
ENDBRANCH  20  21
ENDBRANCH   6  20
TORSDOF 6
