REMARK  Name = ZINCrH000004m42K.0
REMARK                            x       y       z     vdW  Elec       q    Type
REMARK                         _______ _______ _______ _____ _____    ______ ____
ROOT
ATOM      1  C   LIG    1        0.043  -2.029   1.433  0.00  0.00    +0.510 C 
ATOM      2  N   LIG    1        0.064  -2.709   2.597  0.00  0.00    -0.620 N 
ATOM      3  H   LIG    1        0.065  -2.228   3.439  0.00  0.00    +0.430 HD
ATOM      4  O   LIG    1        0.041  -2.629   0.380  0.00  0.00    -0.500 OA
ENDROOT
BRANCH   2   5
ATOM      5  C   LIG    1        0.082  -4.098   2.589  0.00  0.00    +0.240 A 
ATOM      6  N   LIG    1        0.102  -4.847   3.647  0.00  0.00    -0.490 NA
ATOM      7  C   LIG    1        0.118  -6.152   3.456  0.00  0.00    +0.110 A 
ATOM      8  C   LIG    1        0.112  -6.526   2.175  0.00  0.00    -0.140 A 
ATOM      9  S   LIG    1        0.075  -5.070   1.183  0.00  0.00    +0.240 S 
BRANCH   7  10
ATOM     10  C   LIG    1        0.143  -7.142   4.592  0.00  0.00    +0.270 C 
BRANCH  10  11
ATOM     11  N   LIG    1        1.530  -7.353   5.028  0.00  0.00    -0.530 NA
ATOM     12  C   LIG    1        2.319  -8.004   3.974  0.00  0.00    +0.160 C 
ATOM     13  C   LIG    1        3.786  -8.076   4.405  0.00  0.00    +0.020 C 
ATOM     14  C   LIG    1        3.891  -8.869   5.711  0.00  0.00    +0.000 C 
ATOM     15  C   LIG    1        3.022  -8.198   6.778  0.00  0.00    +0.020 C 
ATOM     16  C   LIG    1        1.577  -8.122   6.278  0.00  0.00    +0.170 C 
ENDBRANCH  10  11
ENDBRANCH   7  10
ENDBRANCH   2   5
BRANCH   1  17
ATOM     17  C   LIG    1        0.023  -0.522   1.442  0.00  0.00    +0.090 C 
BRANCH  17  18
ATOM     18  C   LIG    1        0.002  -0.004   0.002  0.00  0.00    +0.110 C 
BRANCH  18  21
ATOM     19  C   LIG    1        1.153   3.596   0.009  0.00  0.00    +0.170 A 
ATOM     20  C   LIG    1        1.169   2.209   0.003  0.00  0.00    -0.050 A 
ATOM     21  C   LIG    1       -0.018   1.503   0.010  0.00  0.00    -0.010 A 
ATOM     22  C   LIG    1       -1.225   2.176   0.020  0.00  0.00    -0.050 A 
ATOM     23  C   LIG    1       -1.246   3.564   0.032  0.00  0.00    +0.170 A 
ATOM     24  C   LIG    1       -0.056   4.274   0.024  0.00  0.00    -0.170 A 
BRANCH  19  26
ATOM     25  C   LIG    1        2.230   5.716   0.009  0.00  0.00    +0.250 C 
ATOM     26  O   LIG    1        2.322   4.290   0.001  0.00  0.00    -0.310 OA
ENDBRANCH  19  26
BRANCH  23  27
ATOM     27  O   LIG    1       -2.433   4.225   0.047  0.00  0.00    -0.310 OA
ATOM     28  C   LIG    1       -2.380   5.653   0.054  0.00  0.00    +0.250 C 
ENDBRANCH  23  27
ENDBRANCH  18  21
ENDBRANCH  17  18
ENDBRANCH   1  17
TORSDOF 8
