REMARK  Name = ZINCpe000000YV5D.0
REMARK                            x       y       z     vdW  Elec       q    Type
REMARK                         _______ _______ _______ _____ _____    ______ ____
ROOT
ATOM      1  C   LIG    1        0.657  -2.104  -1.120  0.00  0.00    +0.370 C 
ENDROOT
BRANCH   1   2
ATOM      2  N   LIG    1        1.354  -2.503  -2.345  0.00  0.00    -0.720 N 
ATOM      3  H   LIG    1        1.691  -1.827  -2.954  0.00  0.00    +0.410 HD
ATOM      4  C   LIG    1        1.527  -3.809  -2.627  0.00  0.00    +0.570 C 
ATOM      5  O   LIG    1        1.105  -4.657  -1.864  0.00  0.00    -0.510 OA
BRANCH   4   6
ATOM      6  C   LIG    1        2.229  -4.212  -3.864  0.00  0.00    -0.130 A 
ATOM      7  C   LIG    1        2.710  -3.242  -4.744  0.00  0.00    +0.110 A 
ATOM      8  C   LIG    1        3.371  -3.625  -5.894  0.00  0.00    +0.040 A 
ATOM      9  C   LIG    1        3.546  -4.967  -6.180  0.00  0.00    +0.130 A 
ATOM     10  C   LIG    1        3.067  -5.934  -5.314  0.00  0.00    -0.050 A 
ATOM     11  C   LIG    1        2.410  -5.565  -4.159  0.00  0.00    +0.170 A 
BRANCH  10  12
ATOM     12  N   LIG    1        3.259  -7.367  -5.628  0.00  0.00    +0.020 N 
ATOM     13  O   LIG    1        3.838  -7.695  -6.648  0.00  0.00    -0.150 OA
ATOM     14  O   LIG    1        2.837  -8.220  -4.867  0.00  0.00    -0.150 OA
ENDBRANCH  10  12
ENDBRANCH   4   6
ENDBRANCH   1   2
BRANCH   1  16
ATOM     15  O   LIG    1        1.088   0.070  -1.921  0.00  0.00    -0.500 OA
ATOM     16  C   LIG    1        0.598  -0.600  -1.043  0.00  0.00    +0.470 C 
BRANCH  16  17
ATOM     17  O   LIG    1        0.002  -0.004   0.002  0.00  0.00    -0.320 OA
BRANCH  17  18
ATOM     18  C   LIG    1       -0.018   1.448   0.010  0.00  0.00    +0.270 C 
BRANCH  18  19
ATOM     19  C   LIG    1       -0.723   1.934   1.250  0.00  0.00    +0.520 C 
ATOM     20  N   LIG    1       -0.862   3.256   1.472  0.00  0.00    -0.610 N 
ATOM     21  C   LIG    1       -0.326   4.236   0.517  0.00  0.00    +0.260 C 
ATOM     22  C   LIG    1       -1.456   5.195   0.115  0.00  0.00    +0.010 C 
ATOM     23  C   LIG    1       -2.064   5.814   1.376  0.00  0.00    +0.020 C 
ATOM     24  C   LIG    1       -2.659   4.710   2.253  0.00  0.00    +0.010 C 
ATOM     25  C   LIG    1       -1.547   3.745   2.676  0.00  0.00    +0.280 C 
ATOM     26  O   LIG    1       -1.165   1.135   2.048  0.00  0.00    -0.510 OA
ENDBRANCH  18  19
ENDBRANCH  17  18
ENDBRANCH  16  17
ENDBRANCH   1  16
TORSDOF 7
