REMARK  Name = ZINCpk00000y6y7X.0
REMARK                            x       y       z     vdW  Elec       q    Type
REMARK                         _______ _______ _______ _____ _____    ______ ____
ROOT
ATOM      1  C   LIG    1        1.360  -1.383  -1.212  0.00  0.00    -0.090 C 
ATOM      2  C   LIG    1        0.483  -1.330   0.021  0.00  0.00    +0.030 C 
ATOM      3  C   LIG    1       -0.998  -1.303  -0.361  0.00  0.00    +0.220 C 
ATOM      4  O   LIG    1       -1.274  -2.461  -1.158  0.00  0.00    -0.370 OA
ATOM      5  C   LIG    1       -0.588  -2.454  -2.407  0.00  0.00    +0.210 C 
ATOM      6  C   LIG    1        1.274  -0.097  -2.046  0.00  0.00    +0.280 C 
ATOM      7  N   LIG    1        1.397  -0.500  -3.458  0.00  0.00    -0.610 N 
ATOM      8  C   LIG    1        1.356   0.330  -4.519  0.00  0.00    +0.570 C 
ATOM      9  O   LIG    1        1.099   1.504  -4.361  0.00  0.00    -0.520 OA
ATOM     10  C   LIG    1        1.572  -1.964  -3.515  0.00  0.00    +0.270 C 
ATOM     11  C   LIG    1        0.928  -2.488  -2.198  0.00  0.00    +0.010 C 
ENDROOT
BRANCH   1  15
ATOM     12  N   LIG    1        3.380  -0.767   0.076  0.00  0.00    -0.850 N 
ATOM     13  H   LIG    1        4.299  -0.916   0.349  0.00  0.00    +0.410 HD
ATOM     14  H   LIG    1        2.887  -0.008   0.426  0.00  0.00    +0.400 HD
ATOM     15  C   LIG    1        2.787  -1.614  -0.788  0.00  0.00    +0.530 C 
ATOM     16  O   LIG    1        3.403  -2.563  -1.225  0.00  0.00    -0.530 OA
ENDBRANCH   1  15
BRANCH   8  17
ATOM     17  C   LIG    1        1.629  -0.202  -5.902  0.00  0.00    -0.150 C 
ATOM     18  C   LIG    1        0.613   0.124  -6.998  0.00  0.00    +0.070 C 
ATOM     19  C   LIG    1        0.701  -1.296  -6.435  0.00  0.00    +0.050 C 
BRANCH  17  20
ATOM     20  C   LIG    1        3.104  -0.270  -6.304  0.00  0.00    +0.140 C 
BRANCH  20  21
ATOM     21  C   LIG    1        3.665   1.126  -6.393  0.00  0.00    -0.120 A 
ATOM     22  C   LIG    1        3.681   1.788  -7.606  0.00  0.00    +0.050 A 
ATOM     23  C   LIG    1        4.190   3.071  -7.688  0.00  0.00    +0.000 A 
ATOM     24  C   LIG    1        4.694   3.688  -6.559  0.00  0.00    +0.040 A 
ATOM     25  C   LIG    1        4.684   3.026  -5.345  0.00  0.00    -0.020 A 
ATOM     26  C   LIG    1        4.169   1.744  -5.261  0.00  0.00    +0.110 A 
ATOM     27  F   LIG    1        4.159   1.096  -4.076  0.00  0.00    -0.140 F 
ENDBRANCH  20  21
ENDBRANCH  17  20
ENDBRANCH   8  17
TORSDOF 4
