REMARK  Name = ZINCrg00001JduRp.0
REMARK                            x       y       z     vdW  Elec       q    Type
REMARK                         _______ _______ _______ _____ _____    ______ ____
ROOT
ATOM      1  N   LIG    1        2.902   0.817  -1.403  0.00  0.00    -0.990 NA
ENDROOT
BRANCH   1   2
ATOM      2  S   LIG    1        3.936   1.875  -2.146  0.00  0.00    +2.670 S 
ATOM      3  O   LIG    1        3.806   3.113  -1.459  0.00  0.00    -0.950 OA
ATOM      4  O   LIG    1        3.718   1.735  -3.543  0.00  0.00    -0.950 OA
BRANCH   2   6
ATOM      5  C   LIG    1        6.434   2.083  -1.228  0.00  0.00    +0.240 C 
ATOM      6  C   LIG    1        5.575   1.306  -1.838  0.00  0.00    -0.590 C 
ENDBRANCH   2   6
ENDBRANCH   1   2
BRANCH   1   7
ATOM      7  C   LIG    1        2.489   1.048  -0.016  0.00  0.00    +0.370 C 
BRANCH   7   8
ATOM      8  C   LIG    1        1.174   1.783   0.000  0.00  0.00    -0.100 A 
ATOM      9  C   LIG    1        1.156   3.166   0.008  0.00  0.00    +0.040 A 
ATOM     10  C   LIG    1       -0.049   3.845   0.022  0.00  0.00    +0.030 A 
ATOM     11  C   LIG    1       -1.238   3.143   0.031  0.00  0.00    -0.010 A 
ATOM     12  C   LIG    1       -1.224   1.754   0.017  0.00  0.00    +0.160 A 
ATOM     13  C   LIG    1       -0.013   1.076   0.008  0.00  0.00    +0.050 A 
BRANCH  12  14
ATOM     14  N   LIG    1       -2.429   1.039   0.019  0.00  0.00    -0.320 N 
ATOM     15  C   LIG    1       -3.671   1.573   0.027  0.00  0.00    +0.210 A 
ATOM     16  C   LIG    1       -4.559   0.552   0.025  0.00  0.00    -0.110 A 
ATOM     17  C   LIG    1       -3.837  -0.647   0.014  0.00  0.00    +0.240 A 
ATOM     18  N   LIG    1       -2.561  -0.356   0.005  0.00  0.00    -0.260 NA
ENDBRANCH  12  14
ENDBRANCH   7   8
ENDBRANCH   1   7
BRANCH   1  19
ATOM     19  C   LIG    1        2.400  -0.351  -2.132  0.00  0.00    +0.280 C 
BRANCH  19  20
ATOM     20  C   LIG    1        1.038  -0.021  -2.747  0.00  0.00    +0.270 C 
BRANCH  20  21
ATOM     21  N   LIG    1        0.536  -1.189  -3.475  0.00  0.00    -0.600 N 
ATOM     22  C   LIG    1        0.872  -1.330  -4.890  0.00  0.00    +0.250 C 
ATOM     23  C   LIG    1        0.663  -2.783  -5.331  0.00  0.00    +0.220 C 
ATOM     24  O   LIG    1       -0.635  -3.207  -4.899  0.00  0.00    -0.370 OA
ATOM     25  C   LIG    1       -0.739  -3.328  -3.478  0.00  0.00    +0.270 C 
ATOM     26  C   LIG    1       -0.216  -2.082  -2.821  0.00  0.00    +0.480 C 
ATOM     27  O   LIG    1       -0.486  -1.877  -1.656  0.00  0.00    -0.510 OA
ENDBRANCH  20  21
ENDBRANCH  19  20
ENDBRANCH   1  19
TORSDOF 8
