REMARK  Name = ZINCnE000001ShQB.1
REMARK                            x       y       z     vdW  Elec       q    Type
REMARK                         _______ _______ _______ _____ _____    ______ ____
ROOT
ATOM      1  C   LIG    1        0.002  -0.004   0.002  0.00  0.00    +0.270 A 
ATOM      2  C   LIG    1        1.314  -0.373  -0.013  0.00  0.00    -0.190 A 
ATOM      3  C   LIG    1        2.014   0.861  -0.013  0.00  0.00    +0.040 A 
ATOM      4  N   LIG    1        1.100   1.802   0.001  0.00  0.00    -0.400 NA
ATOM      5  O   LIG    1       -0.016   1.338   0.009  0.00  0.00    +0.050 OA
ENDROOT
BRANCH   3   6
ATOM      6  C   LIG    1        3.486   1.050  -0.026  0.00  0.00    -0.020 A 
ATOM      7  C   LIG    1        4.333  -0.056  -0.034  0.00  0.00    +0.070 A 
ATOM      8  C   LIG    1        5.701   0.125  -0.051  0.00  0.00    +0.000 A 
ATOM      9  C   LIG    1        6.234   1.402  -0.049  0.00  0.00    +0.030 A 
ATOM     10  C   LIG    1        5.400   2.505  -0.036  0.00  0.00    -0.030 A 
ATOM     11  C   LIG    1        4.028   2.337  -0.024  0.00  0.00    +0.110 A 
ATOM     12  F   LIG    1        3.213   3.414  -0.010  0.00  0.00    -0.120 F 
ENDBRANCH   3   6
BRANCH   1  15
ATOM     13  O   LIG    1       -2.503   0.868   0.031  0.00  0.00    -0.610 OA
ATOM     14  C   LIG    1       -2.344  -0.335   0.023  0.00  0.00    +0.450 C 
ATOM     15  N   LIG    1       -1.098  -0.850   0.008  0.00  0.00    -0.680 NA
BRANCH  14  16
ATOM     16  C   LIG    1       -3.539  -1.253   0.030  0.00  0.00    +0.060 C 
BRANCH  16  17
ATOM     17  C   LIG    1       -4.822  -0.420   0.046  0.00  0.00    +0.100 C 
BRANCH  17  18
ATOM     18  C   LIG    1       -6.017  -1.338   0.053  0.00  0.00    -0.120 A 
ATOM     19  C   LIG    1       -6.588  -1.755  -1.139  0.00  0.00    +0.050 A 
ATOM     20  C   LIG    1       -7.683  -2.605  -1.084  0.00  0.00    -0.040 A 
ATOM     21  C   LIG    1       -8.172  -2.995   0.148  0.00  0.00    +0.230 A 
ATOM     22  N   LIG    1       -7.606  -2.574   1.262  0.00  0.00    -0.490 NA
ATOM     23  C   LIG    1       -6.560  -1.771   1.248  0.00  0.00    +0.260 A 
ENDBRANCH  17  18
ENDBRANCH  16  17
ENDBRANCH  14  16
ENDBRANCH   1  15
TORSDOF 5
