REMARK  Name = ZINCrD00000rZPsL.0
REMARK                            x       y       z     vdW  Elec       q    Type
REMARK                         _______ _______ _______ _____ _____    ______ ____
ROOT
ATOM      1  O   LIG    1       -0.395  -4.669  -1.702  0.00  0.00    -0.510 OA
ATOM      2  C   LIG    1        0.216  -4.078  -0.838  0.00  0.00    +0.530 C 
ATOM      3  C   LIG    1        0.604  -4.794   0.433  0.00  0.00    +0.120 C 
ATOM      4  C   LIG    1        1.936  -4.248   0.932  0.00  0.00    -0.070 C 
ATOM      5  C   LIG    1        1.932  -2.747   0.926  0.00  0.00    +0.540 C 
ATOM      6  N   LIG    1        1.241  -2.081  -0.021  0.00  0.00    -0.370 N 
ATOM      7  O   LIG    1        2.549  -2.135   1.772  0.00  0.00    -0.480 OA
ATOM      8  C   LIG    1        2.248  -4.784   2.338  0.00  0.00    +0.140 C 
ATOM      9  C   LIG    1        3.084  -6.026   2.109  0.00  0.00    -0.090 A 
ATOM     10  C   LIG    1        3.392  -7.070   2.964  0.00  0.00    +0.020 A 
ATOM     11  C   LIG    1        4.187  -8.113   2.530  0.00  0.00    +0.020 A 
ATOM     12  C   LIG    1        4.676  -8.116   1.237  0.00  0.00    +0.010 A 
ATOM     13  C   LIG    1        4.369  -7.076   0.382  0.00  0.00    +0.020 A 
ATOM     14  C   LIG    1        3.572  -6.029   0.815  0.00  0.00    -0.100 A 
ATOM     15  C   LIG    1        3.097  -4.790   0.085  0.00  0.00    +0.120 C 
ATOM     16  N   LIG    1        0.543  -2.785  -1.010  0.00  0.00    -0.510 N 
ATOM     17  H   LIG    1        0.293  -2.335  -1.832  0.00  0.00    +0.430 HD
ENDROOT
BRANCH   6  18
ATOM     18  C   LIG    1        1.217  -0.681  -0.013  0.00  0.00    +0.130 A 
ATOM     19  C   LIG    1        2.406   0.035  -0.021  0.00  0.00    +0.080 A 
ATOM     20  C   LIG    1        2.380   1.417  -0.013  0.00  0.00    +0.100 A 
ATOM     21  C   LIG    1        1.171   2.087   0.002  0.00  0.00    -0.150 A 
ATOM     22  C   LIG    1       -0.017   1.379   0.010  0.00  0.00    +0.070 A 
ATOM     23  C   LIG    1        0.002  -0.004   0.002  0.00  0.00    +0.100 A 
ATOM     24  F   LIG    1       -1.158  -0.697   0.010  0.00  0.00    -0.120 F 
BRANCH  21  25
ATOM     25  C   LIG    1        1.147   3.594   0.011  0.00  0.00    +0.510 C 
ATOM     26  F   LIG    1       -0.008   4.046  -0.636  0.00  0.00    -0.170 F 
ATOM     27  F   LIG    1        2.276   4.082  -0.657  0.00  0.00    -0.170 F 
ATOM     28  F   LIG    1        1.153   4.053   1.332  0.00  0.00    -0.170 F 
ENDBRANCH  21  25
ENDBRANCH   6  18
TORSDOF 2
