REMARK  Name = ZINCrH000004osv6.0
REMARK                            x       y       z     vdW  Elec       q    Type
REMARK                         _______ _______ _______ _____ _____    ______ ____
ROOT
ATOM      1  S   LIG    1       -6.344   2.682  -0.146  0.00  0.00    +0.120 S 
ENDROOT
BRANCH   1   2
ATOM      2  C   LIG    1       -7.615   1.462  -0.166  0.00  0.00    +0.180 A 
ATOM      3  N   LIG    1       -7.470   0.181   0.090  0.00  0.00    -0.280 NA
ATOM      4  N   LIG    1       -8.602  -0.419  -0.011  0.00  0.00    -0.250 NA
ATOM      5  C   LIG    1       -9.537   0.439  -0.345  0.00  0.00    +0.190 A 
ATOM      6  N   LIG    1       -8.934   1.671  -0.455  0.00  0.00    -0.300 N 
BRANCH   5   7
ATOM      7  C   LIG    1      -10.968   0.139  -0.564  0.00  0.00    -0.030 A 
ATOM      8  C   LIG    1      -11.511  -1.059  -0.097  0.00  0.00    +0.110 A 
ATOM      9  C   LIG    1      -12.848  -1.332  -0.300  0.00  0.00    +0.010 A 
ATOM     10  C   LIG    1      -13.649  -0.424  -0.974  0.00  0.00    +0.120 A 
ATOM     11  C   LIG    1      -13.113   0.765  -1.444  0.00  0.00    +0.010 A 
ATOM     12  F   LIG    1      -14.956  -0.699  -1.175  0.00  0.00    -0.130 F 
ATOM     13  C   LIG    1      -11.779   1.050  -1.242  0.00  0.00    +0.030 A 
ENDBRANCH   5   7
BRANCH   6  14
ATOM     14  N   LIG    1       -9.529   2.855  -0.784  0.00  0.00    -0.590 N 
ATOM     15  H   LIG    1      -10.436   2.937  -0.350  0.00  0.00    +0.380 HD
ATOM     16  H   LIG    1       -9.597   2.960  -1.785  0.00  0.00    +0.370 HD
ENDBRANCH   6  14
ENDBRANCH   1   2
BRANCH   1  18
ATOM     17  C   LIG    1       -5.131   1.104   1.725  0.00  0.00    +0.100 C 
ATOM     18  C   LIG    1       -4.927   1.653   0.312  0.00  0.00    +0.010 C 
BRANCH  18  19
ATOM     19  C   LIG    1       -3.670   2.482   0.272  0.00  0.00    +0.540 C 
ATOM     20  N   LIG    1       -2.476   1.887   0.074  0.00  0.00    -0.660 N 
ATOM     21  H   LIG    1       -2.434   0.938  -0.121  0.00  0.00    +0.420 HD
ATOM     22  O   LIG    1       -3.731   3.685   0.417  0.00  0.00    -0.500 OA
BRANCH  20  23
ATOM     23  C   LIG    1       -1.298   2.640   0.150  0.00  0.00    +0.150 A 
ATOM     24  C   LIG    1       -1.268   3.811   0.894  0.00  0.00    +0.080 A 
ATOM     25  C   LIG    1       -0.105   4.555   0.964  0.00  0.00    +0.030 A 
ATOM     26  C   LIG    1        1.030   4.132   0.295  0.00  0.00    +0.100 A 
ATOM     27  C   LIG    1        1.005   2.961  -0.444  0.00  0.00    +0.030 A 
ATOM     28  F   LIG    1        2.166   4.861   0.365  0.00  0.00    -0.130 F 
ATOM     29  C   LIG    1       -0.155   2.213  -0.516  0.00  0.00    -0.040 A 
ATOM     30 CL   LIG    1       -0.187   0.746  -1.443  0.00  0.00    -0.050 Cl
ENDBRANCH  20  23
ENDBRANCH  18  19
ENDBRANCH   1  18
TORSDOF 6
