REMARK  Name = ZINCpk000005ggN2.0
REMARK                            x       y       z     vdW  Elec       q    Type
REMARK                         _______ _______ _______ _____ _____    ______ ____
ROOT
ATOM      1  C   LIG    1        6.322  -5.914  -0.015  0.00  0.00    +0.520 C 
ATOM      2  N   LIG    1        5.712  -4.733  -0.236  0.00  0.00    -0.610 N 
ATOM      3  C   LIG    1        6.361  -3.417  -0.355  0.00  0.00    +0.270 C 
ATOM      4  C   LIG    1        5.499  -2.595  -1.328  0.00  0.00    +0.000 C 
ATOM      5  C   LIG    1        5.221  -1.210  -0.718  0.00  0.00    +0.280 C 
ATOM      6  N   LIG    1        3.774  -0.980  -0.854  0.00  0.00    -0.610 N 
ATOM      7  C   LIG    1        3.128  -2.300  -0.764  0.00  0.00    +0.280 C 
ATOM      8  C   LIG    1        3.160   0.208  -1.022  0.00  0.00    +0.620 C 
ATOM      9  O   LIG    1        3.816   1.229  -1.074  0.00  0.00    -0.510 OA
ATOM     10  C   LIG    1        4.126  -3.309  -1.362  0.00  0.00    -0.010 C 
ATOM     11  C   LIG    1        4.268  -4.506  -0.407  0.00  0.00    +0.280 C 
ATOM     12  O   LIG    1        7.532  -5.975   0.019  0.00  0.00    -0.530 OA
ENDROOT
BRANCH   8  13
ATOM     13  C   LIG    1        1.683   0.269  -1.143  0.00  0.00    -0.030 A 
ATOM     14  N   LIG    1        0.848  -0.740  -1.105  0.00  0.00    -0.330 NA
ATOM     15  O   LIG    1       -0.297  -0.371  -1.231  0.00  0.00    +0.120 OA
ATOM     16  C   LIG    1       -0.380   0.959  -1.372  0.00  0.00    +0.170 A 
ATOM     17  C   LIG    1        0.887   1.434  -1.322  0.00  0.00    -0.150 A 
ATOM     18  C   LIG    1        1.347   2.865  -1.432  0.00  0.00    +0.160 C 
ENDBRANCH   8  13
BRANCH   1  19
ATOM     19  C   LIG    1        5.499  -7.160   0.190  0.00  0.00    +0.100 C 
ATOM     20  C   LIG    1        6.341  -8.239   0.901  0.00  0.00    +0.030 C 
ATOM     21  C   LIG    1        5.890  -9.567   0.245  0.00  0.00    +0.020 C 
ATOM     22  C   LIG    1        5.695  -9.166  -1.238  0.00  0.00    +0.030 C 
ATOM     23  C   LIG    1        5.088  -7.750  -1.171  0.00  0.00    +0.050 C 
BRANCH  19  25
ATOM     24  C   LIG    1        4.620  -6.269   2.234  0.00  0.00    +0.200 C 
ATOM     25  O   LIG    1        4.336  -6.856   0.963  0.00  0.00    -0.360 OA
ENDBRANCH  19  25
ENDBRANCH   1  19
TORSDOF 3
