REMARK  Name = ZINCnE000001Tzkm.0
REMARK                            x       y       z     vdW  Elec       q    Type
REMARK                         _______ _______ _______ _____ _____    ______ ____
ROOT
ATOM      1  C   LIG    1        2.717   0.419   0.142  0.00  0.00    -0.010 C 
ATOM      2  C   LIG    1        2.307   1.741   0.796  0.00  0.00    +0.000 C 
ATOM      3  C   LIG    1        1.114   2.335   0.044  0.00  0.00    +0.010 C 
ATOM      4  C   LIG    1       -0.070   1.367   0.127  0.00  0.00    +0.250 C 
ATOM      5  N   LIG    1        0.359   0.051  -0.366  0.00  0.00    -0.620 N 
ATOM      6  C   LIG    1       -0.327  -0.573  -1.344  0.00  0.00    +0.700 C 
ATOM      7  N   LIG    1       -1.479  -0.044  -1.802  0.00  0.00    -0.690 N 
ATOM      8  H   LIG    1       -1.758   0.838  -1.509  0.00  0.00    +0.410 HD
ATOM      9  O   LIG    1        0.093  -1.613  -1.813  0.00  0.00    -0.550 OA
ATOM     10  C   LIG    1        1.551  -0.571   0.226  0.00  0.00    +0.310 C 
ENDROOT
BRANCH   7  11
ATOM     11  C   LIG    1       -2.273  -0.767  -2.699  0.00  0.00    +0.210 A 
ATOM     12  C   LIG    1       -2.318  -2.153  -2.628  0.00  0.00    +0.030 A 
ATOM     13  C   LIG    1       -3.106  -2.863  -3.513  0.00  0.00    +0.090 A 
ATOM     14  C   LIG    1       -3.841  -2.196  -4.475  0.00  0.00    -0.210 A 
ATOM     15  C   LIG    1       -3.794  -0.816  -4.552  0.00  0.00    +0.090 A 
ATOM     16  C   LIG    1       -3.012  -0.100  -3.667  0.00  0.00    -0.020 A 
BRANCH  14  17
ATOM     17  C   LIG    1       -4.696  -2.974  -5.442  0.00  0.00    +0.510 C 
ATOM     18  F   LIG    1       -5.798  -2.199  -5.819  0.00  0.00    -0.180 F 
ATOM     19  F   LIG    1       -5.141  -4.150  -4.829  0.00  0.00    -0.180 F 
ATOM     20  F   LIG    1       -3.942  -3.296  -6.576  0.00  0.00    -0.180 F 
ENDBRANCH  14  17
ENDBRANCH   7  11
BRANCH   1  21
ATOM     21  C   LIG    1        3.930  -0.158   0.874  0.00  0.00    -0.060 C 
BRANCH  21  23
ATOM     22  O   LIG    1        3.829  -1.781  -0.843  0.00  0.00    -0.690 OA
ATOM     23  C   LIG    1        4.406  -1.396   0.159  0.00  0.00    +0.490 C 
ATOM     24  O   LIG    1        5.369  -2.013   0.583  0.00  0.00    -0.710 OA
ENDBRANCH  21  23
ENDBRANCH   1  21
TORSDOF 4
