REMARK  Name = ZINCpk00001AZjfH.0
REMARK                            x       y       z     vdW  Elec       q    Type
REMARK                         _______ _______ _______ _____ _____    ______ ____
ROOT
ATOM      1  C   LIG    1        1.807   2.016  -0.719  0.00  0.00    +0.270 C 
ENDROOT
BRANCH   1   6
ATOM      2  N   LIG    1        1.848   3.296  -2.925  0.00  0.00    -0.300 N 
ATOM      3  N   LIG    1        2.196   3.025  -4.137  0.00  0.00    -0.090 NA
ATOM      4  N   LIG    1        2.603   1.805  -4.190  0.00  0.00    -0.070 NA
ATOM      5  N   LIG    1        2.529   1.278  -3.017  0.00  0.00    -0.280 NA
ATOM      6  C   LIG    1        2.062   2.185  -2.194  0.00  0.00    +0.200 A 
BRANCH   2   8
ATOM      7  C   LIG    1        2.482   5.461  -1.981  0.00  0.00    +0.060 C 
ATOM      8  C   LIG    1        1.322   4.572  -2.434  0.00  0.00    +0.330 C 
ENDBRANCH   2   8
ENDBRANCH   1   6
BRANCH   1   9
ATOM      9  C   LIG    1        0.900   0.805  -0.493  0.00  0.00    +0.090 C 
ATOM     10  F   LIG    1        1.453  -0.316  -1.122  0.00  0.00    -0.170 F 
ATOM     11  C   LIG    1        0.772   0.535   1.008  0.00  0.00    +0.060 C 
BRANCH   9  12
ATOM     12  C   LIG    1       -0.484   1.087  -1.080  0.00  0.00    +0.100 C 
ATOM     13  F   LIG    1       -1.007   2.250  -0.504  0.00  0.00    -0.200 F 
ATOM     14  C   LIG    1       -1.414  -0.091  -0.784  0.00  0.00    +0.060 C 
ATOM     15  C   LIG    1       -0.367   1.276  -2.594  0.00  0.00    +0.040 C 
ENDBRANCH   9  12
ENDBRANCH   1   9
BRANCH   1  16
ATOM     16  N   LIG    1        3.083   1.809  -0.022  0.00  0.00    -0.520 NA
ATOM     17  C   LIG    1        3.587   0.446  -0.240  0.00  0.00    +0.230 C 
BRANCH  16  18
ATOM     18  C   LIG    1        2.953   2.098   1.413  0.00  0.00    +0.200 C 
BRANCH  18  19
ATOM     19  C   LIG    1        4.339   2.357   2.008  0.00  0.00    +0.180 C 
ATOM     20  C   LIG    1        4.191   2.858   3.447  0.00  0.00    +0.150 C 
ATOM     21  N   LIG    1        5.525   3.031   4.040  0.00  0.00    -0.540 NA
ATOM     22  C   LIG    1        6.271   1.764   4.021  0.00  0.00    +0.150 C 
ATOM     23  C   LIG    1        6.398   1.274   2.577  0.00  0.00    +0.220 C 
ATOM     24  C   LIG    1        5.430   3.565   5.405  0.00  0.00    +0.190 C 
ATOM     25  O   LIG    1        5.093   1.142   2.007  0.00  0.00    -0.370 OA
ENDBRANCH  18  19
ENDBRANCH  16  18
ENDBRANCH   1  16
TORSDOF 7
