REMARK  Name = ZINCkj00000y7HYR.0
REMARK                            x       y       z     vdW  Elec       q    Type
REMARK                         _______ _______ _______ _____ _____    ______ ____
ROOT
ATOM      1  N   PHE A  1        1.964  -0.097  -2.116  0.00  0.00    -0.500 N 
ATOM      2  H1  PHE A  1        1.033   0.283  -2.032  0.00  0.00    +0.440 HD
ATOM      3  H2  PHE A  1        1.999  -1.002  -1.672  0.00  0.00    +0.430 HD
ENDROOT
BRANCH   1   4
ATOM      4  C   UNK A  0        2.310  -0.234  -3.537  0.00  0.00    +0.190 C 
BRANCH   4   5
ATOM      5  C   UNK A  0        1.390  -1.268  -4.188  0.00  0.00    +0.140 C 
ATOM      6  C   UNK A  0        1.816  -1.521  -5.652  0.00  0.00    +0.020 C 
ATOM      7  C   UNK A  0        0.480  -1.708  -6.405  0.00  0.00    +0.020 C 
ATOM      8  C   UNK A  0       -0.595  -1.545  -5.308  0.00  0.00    +0.220 C 
ATOM      9  O   UNK A  0        0.043  -0.756  -4.280  0.00  0.00    -0.340 OA
ENDBRANCH   4   5
BRANCH   4  10
ATOM     10  C   UNK A  0        2.136   1.116  -4.237  0.00  0.00    +0.190 C 
BRANCH  10  12
ATOM     11  C   UNK A  0        0.483   2.740  -4.850  0.00  0.00    +0.230 C 
ATOM     12  O   UNK A  0        0.756   1.488  -4.218  0.00  0.00    -0.360 OA
ENDBRANCH  10  12
ENDBRANCH   4  10
ENDBRANCH   1   4
BRANCH   1  13
ATOM     13  CA  PHE A  1        2.922   0.806  -1.464  0.00  0.00    +0.180 C 
BRANCH  13  14
ATOM     14  CB  PHE A  1        2.490   1.048  -0.016  0.00  0.00    +0.140 C 
BRANCH  14  15
ATOM     15  CG  PHE A  1        1.175   1.783   0.000  0.00  0.00    -0.130 A 
ATOM     16  CD2 PHE A  1       -0.013   1.076   0.008  0.00  0.00    -0.010 A 
ATOM     17  CE2 PHE A  1       -1.219   1.751   0.017  0.00  0.00    +0.030 A 
ATOM     18  CZ  PHE A  1       -1.238   3.133   0.029  0.00  0.00    +0.030 A 
ATOM     19  CE1 PHE A  1       -0.050   3.840   0.022  0.00  0.00    +0.020 A 
ATOM     20  CD1 PHE A  1        1.156   3.165   0.008  0.00  0.00    +0.020 A 
ENDBRANCH  14  15
ENDBRANCH  13  14
BRANCH  13  21
ATOM     21  C   PHE A  1        4.314   0.171  -1.482  0.00  0.00    +0.220 C 
BRANCH  21  22
ATOM     22  O   PHE A  1        4.307  -1.014  -0.684  0.00  0.00    -0.570 OA
ATOM     23  H   PHE A  1        5.159  -1.470  -0.649  0.00  0.00    +0.410 HD
ENDBRANCH  21  22
ENDBRANCH  13  21
ENDBRANCH   1  13
TORSDOF 9
