REMARK  Name = ZINCrH000004p2ca.0
REMARK                            x       y       z     vdW  Elec       q    Type
REMARK                         _______ _______ _______ _____ _____    ______ ____
ROOT
ATOM      1  N   LIG    1        6.884   0.919   0.131  0.00  0.00    -0.530 NA
ATOM      2  C   LIG    1        7.961   1.814   0.188  0.00  0.00    +0.180 C 
ATOM      3  C   LIG    1        9.316   1.073   0.147  0.00  0.00    +0.050 C 
ATOM      4  C   LIG    1        9.575   0.453   1.497  0.00  0.00    +0.180 C 
ATOM      5  N   LIG    1        9.095  -0.944   1.593  0.00  0.00    -0.520 N 
ATOM      6  C   LIG    1        7.776  -1.165   0.966  0.00  0.00    +0.250 C 
ATOM      7  C   LIG    1        6.819  -0.036   1.255  0.00  0.00    +0.160 C 
ENDROOT
BRANCH   5   8
ATOM      8  C   LIG    1        9.101  -1.384   2.912  0.00  0.00    +0.150 A 
ATOM      9  C   LIG    1        8.441  -0.656   3.892  0.00  0.00    -0.030 A 
ATOM     10  C   LIG    1        8.447  -1.095   5.201  0.00  0.00    +0.050 A 
ATOM     11  C   LIG    1        9.110  -2.261   5.547  0.00  0.00    +0.010 A 
ATOM     12  C   LIG    1        9.771  -2.997   4.587  0.00  0.00    +0.080 A 
ATOM     13  C   LIG    1        9.768  -2.570   3.257  0.00  0.00    -0.010 A 
BRANCH  13  14
ATOM     14  C   LIG    1       10.447  -3.333   2.254  0.00  0.00    +0.260 C 
ATOM     15  N   LIG    1       10.986  -3.939   1.458  0.00  0.00    -0.410 NA
ENDBRANCH  13  14
ENDBRANCH   5   8
BRANCH   1  17
ATOM     16  C   LIG    1        5.346   2.481   1.223  0.00  0.00    +0.020 C 
ATOM     17  C   LIG    1        5.612   1.637  -0.025  0.00  0.00    +0.190 C 
BRANCH  17  18
ATOM     18  C   LIG    1        4.494   0.642  -0.206  0.00  0.00    +0.520 C 
ATOM     19  N   LIG    1        3.227   1.074  -0.368  0.00  0.00    -0.670 N 
ATOM     20  H   LIG    1        3.041   2.025  -0.410  0.00  0.00    +0.410 HD
ATOM     21  O   LIG    1        4.733  -0.547  -0.205  0.00  0.00    -0.490 OA
BRANCH  19  22
ATOM     22  C   LIG    1        2.181   0.151  -0.477  0.00  0.00    +0.160 A 
ATOM     23  C   LIG    1        2.424  -1.119  -0.984  0.00  0.00    +0.040 A 
ATOM     24  C   LIG    1        1.389  -2.028  -1.090  0.00  0.00    +0.040 A 
ATOM     25  C   LIG    1        0.113  -1.676  -0.691  0.00  0.00    +0.010 A 
ATOM     26  C   LIG    1       -0.133  -0.413  -0.185  0.00  0.00    +0.050 A 
ATOM     27  C   LIG    1        0.897   0.502  -0.076  0.00  0.00    -0.070 A 
ATOM     28 CL   LIG    1        0.589   2.087   0.560  0.00  0.00    -0.070 Cl
ENDBRANCH  19  22
ENDBRANCH  17  18
ENDBRANCH   1  17
TORSDOF 5
