REMARK  Name = ZINCnE000004wPIq.0
REMARK                            x       y       z     vdW  Elec       q    Type
REMARK                         _______ _______ _______ _____ _____    ______ ____
ROOT
ATOM      1  C   LIG    1        4.021   7.464  -3.289  0.00  0.00    -0.200 A 
ATOM      2  C   LIG    1        2.748   7.475  -2.755  0.00  0.00    +0.070 A 
ATOM      3  N   LIG    1        2.222   6.245  -2.897  0.00  0.00    -0.430 N 
ATOM      4  C   LIG    1        3.109   5.417  -3.521  0.00  0.00    +0.020 A 
ATOM      5  C   LIG    1        4.235   6.101  -3.790  0.00  0.00    -0.020 A 
ENDROOT
BRANCH   1   7
ATOM      6  O   LIG    1        6.024   8.464  -3.949  0.00  0.00    -0.700 OA
ATOM      7  C   LIG    1        4.965   8.587  -3.349  0.00  0.00    +0.550 C 
ATOM      8  O   LIG    1        4.692   9.646  -2.799  0.00  0.00    -0.690 OA
ENDBRANCH   1   7
BRANCH   4   9
ATOM      9  C   LIG    1        2.865   3.968  -3.856  0.00  0.00    +0.020 C 
ATOM     10  C   LIG    1        4.064   3.019  -3.801  0.00  0.00    +0.020 C 
ATOM     11  C   LIG    1        3.475   3.431  -5.152  0.00  0.00    +0.020 C 
ENDBRANCH   4   9
BRANCH   2  12
ATOM     12  C   LIG    1        2.066   8.660  -2.119  0.00  0.00    +0.060 C 
ATOM     13  C   LIG    1        0.643   8.984  -2.576  0.00  0.00    -0.030 C 
ATOM     14  C   LIG    1        1.807   9.883  -3.002  0.00  0.00    +0.060 C 
ENDBRANCH   2  12
BRANCH   3  15
ATOM     15  C   LIG    1        0.883   5.852  -2.451  0.00  0.00    +0.330 C 
BRANCH  15  16
ATOM     16  C   LIG    1        0.956   5.338  -1.036  0.00  0.00    -0.100 A 
ATOM     17  C   LIG    1        0.802   6.210   0.025  0.00  0.00    +0.040 A 
ATOM     18  C   LIG    1        0.870   5.738   1.323  0.00  0.00    +0.000 A 
ATOM     19  C   LIG    1        1.092   4.394   1.559  0.00  0.00    +0.020 A 
ATOM     20  C   LIG    1        1.246   3.522   0.497  0.00  0.00    -0.100 A 
ATOM     21  C   LIG    1        1.184   3.994  -0.800  0.00  0.00    +0.040 A 
BRANCH  20  22
ATOM     22  C   LIG    1        1.488   2.057   0.755  0.00  0.00    +0.220 C 
BRANCH  22  23
ATOM     23  O   LIG    1        0.236   1.372   0.825  0.00  0.00    -0.570 OA
ATOM     24  H   LIG    1        0.316   0.422   0.989  0.00  0.00    +0.380 HD
ENDBRANCH  22  23
ENDBRANCH  20  22
ENDBRANCH  15  16
ENDBRANCH   3  15
TORSDOF 7
