REMARK  Name = ZINCAx0000000dYn.0
REMARK                            x       y       z     vdW  Elec       q    Type
REMARK                         _______ _______ _______ _____ _____    ______ ____
ROOT
ATOM      1  N   LIG    1        2.370   6.728  -3.707  0.00  0.00    -0.410 N 
ATOM      2  C   LIG    1        3.142   6.358  -2.667  0.00  0.00    +0.500 A 
ATOM      3  N   LIG    1        2.385   5.982  -1.667  0.00  0.00    -0.500 NA
ATOM      4  C   LIG    1        1.098   6.095  -2.006  0.00  0.00    +0.320 A 
ATOM      5  N   LIG    1       -0.094   5.833  -1.352  0.00  0.00    -0.500 N 
ATOM      6  C   LIG    1       -1.268   6.046  -1.976  0.00  0.00    +0.720 A 
ATOM      7  O   LIG    1       -2.305   5.815  -1.384  0.00  0.00    -0.530 OA
ATOM      8  N   LIG    1       -1.323   6.507  -3.237  0.00  0.00    -0.540 N 
ATOM      9  C   LIG    1       -0.196   6.775  -3.929  0.00  0.00    +0.600 A 
ATOM     10  O   LIG    1       -0.259   7.193  -5.071  0.00  0.00    -0.510 OA
ATOM     11  C   LIG    1        1.057   6.567  -3.313  0.00  0.00    -0.150 A 
ENDROOT
BRANCH   1  12
ATOM     12  C   LIG    1        2.836   7.212  -5.009  0.00  0.00    +0.310 C 
BRANCH  12  14
ATOM     13  C   LIG    1        3.464   9.245  -6.319  0.00  0.00    +0.030 C 
ATOM     14  C   LIG    1        2.861   8.742  -5.006  0.00  0.00    -0.030 C 
ATOM     15  C   LIG    1        1.434   9.275  -4.862  0.00  0.00    +0.020 C 
ENDBRANCH  12  14
ENDBRANCH   1  12
BRANCH   5  16
ATOM     16  C   LIG    1       -0.078   5.330   0.024  0.00  0.00    +0.380 C 
BRANCH  16  17
ATOM     17  C   LIG    1       -0.055   3.823   0.007  0.00  0.00    -0.120 A 
ATOM     18  C   LIG    1        1.153   3.151  -0.008  0.00  0.00    +0.040 A 
ATOM     19  C   LIG    1        1.175   1.769  -0.023  0.00  0.00    -0.010 A 
ATOM     20  C   LIG    1       -0.011   1.059  -0.024  0.00  0.00    +0.010 A 
ATOM     21  C   LIG    1       -1.219   1.731  -0.015  0.00  0.00    -0.010 A 
ATOM     22  C   LIG    1       -1.241   3.113   0.006  0.00  0.00    +0.040 A 
ENDBRANCH  16  17
ENDBRANCH   5  16
BRANCH   8  23
ATOM     23  C   LIG    1       -2.626   6.722  -3.871  0.00  0.00    +0.380 C 
BRANCH  23  24
ATOM     24  C   LIG    1       -3.091   8.130  -3.600  0.00  0.00    +0.510 C 
ATOM     25  N   LIG    1       -4.273   8.555  -4.088  0.00  0.00    -0.670 N 
ATOM     26  H   LIG    1       -4.793   7.979  -4.669  0.00  0.00    +0.420 HD
ATOM     27  O   LIG    1       -2.401   8.880  -2.942  0.00  0.00    -0.500 OA
BRANCH  25  28
ATOM     28  C   LIG    1       -4.749   9.829  -3.756  0.00  0.00    +0.140 A 
ATOM     29  C   LIG    1       -3.861  10.884  -3.596  0.00  0.00    +0.130 A 
ATOM     30  C   LIG    1       -4.333  12.140  -3.269  0.00  0.00    +0.040 A 
ATOM     31  C   LIG    1       -5.692  12.348  -3.101  0.00  0.00    +0.160 A 
ATOM     32  C   LIG    1       -6.580  11.297  -3.260  0.00  0.00    -0.060 A 
ATOM     33  F   LIG    1       -6.152  13.577  -2.781  0.00  0.00    -0.100 F 
ATOM     34  C   LIG    1       -6.112  10.041  -3.592  0.00  0.00    +0.110 A 
BRANCH  32  35
ATOM     35  N   LIG    1       -8.032  11.522  -3.080  0.00  0.00    +0.030 N 
ATOM     36  O   LIG    1       -8.445  12.631  -2.791  0.00  0.00    -0.140 OA
ATOM     37  O   LIG    1       -8.813  10.598  -3.220  0.00  0.00    -0.150 OA
ENDBRANCH  32  35
ENDBRANCH  25  28
ENDBRANCH  23  24
ENDBRANCH   8  23
TORSDOF 8
