REMARK  Name = ZINCqH0000051c70.0
REMARK                            x       y       z     vdW  Elec       q    Type
REMARK                         _______ _______ _______ _____ _____    ______ ____
ROOT
ATOM      1  O   LIG    1       -3.557   3.352   0.624  0.00  0.00    -0.490 OA
ATOM      2  C   LIG    1       -2.910   2.988   1.577  0.00  0.00    +0.480 C 
ENDROOT
BRANCH   2   3
ATOM      3  O   LIG    1       -1.749   2.341   1.392  0.00  0.00    -0.340 OA
BRANCH   3   4
ATOM      4  C   LIG    1       -1.333   2.113   0.020  0.00  0.00    +0.290 C 
BRANCH   4   5
ATOM      5  C   LIG    1       -0.017   1.379   0.010  0.00  0.00    -0.110 A 
ATOM      6  C   LIG    1        1.170   2.089   0.002  0.00  0.00    +0.080 A 
ATOM      7  C   LIG    1        2.377   1.419  -0.013  0.00  0.00    +0.000 A 
ATOM      8  C   LIG    1        2.399   0.031  -0.021  0.00  0.00    +0.150 A 
ATOM      9  C   LIG    1        1.207  -0.680  -0.013  0.00  0.00    +0.000 A 
ATOM     10  C   LIG    1        0.002  -0.004   0.002  0.00  0.00    +0.080 A 
BRANCH   8  11
ATOM     11  N   LIG    1        3.624  -0.652  -0.036  0.00  0.00    -0.420 N 
ATOM     12  C   LIG    1        4.873  -0.087  -0.051  0.00  0.00    +0.130 A 
ATOM     13  C   LIG    1        5.760  -1.100  -0.059  0.00  0.00    +0.160 A 
ATOM     14  N   LIG    1        5.077  -2.254  -0.060  0.00  0.00    -0.480 NA
ATOM     15  C   LIG    1        3.797  -2.000  -0.046  0.00  0.00    +0.400 A 
ENDBRANCH   8  11
ENDBRANCH   4   5
ENDBRANCH   3   4
ENDBRANCH   2   3
BRANCH   2  16
ATOM     16  C   LIG    1       -3.407   3.261   2.973  0.00  0.00    +0.150 C 
BRANCH  16  17
ATOM     17  S   LIG    1       -4.986   4.143   2.891  0.00  0.00    +0.060 S 
BRANCH  17  18
ATOM     18  C   LIG    1       -5.324   4.326   4.610  0.00  0.00    +0.200 A 
ATOM     19  C   LIG    1       -6.503   4.983   5.047  0.00  0.00    -0.160 A 
ATOM     20  C   LIG    1       -7.581   5.587   4.287  0.00  0.00    +0.060 A 
ATOM     21  C   LIG    1       -8.541   6.121   5.016  0.00  0.00    -0.010 A 
ATOM     22  S   LIG    1       -8.220   5.937   6.730  0.00  0.00    +0.180 S 
ATOM     23  C   LIG    1       -6.709   5.094   6.425  0.00  0.00    +0.100 A 
ATOM     24  N   LIG    1       -5.797   4.583   7.263  0.00  0.00    -0.490 NA
ATOM     25  C   LIG    1       -4.721   3.984   6.809  0.00  0.00    +0.540 A 
ATOM     26  N   LIG    1       -4.483   3.848   5.517  0.00  0.00    -0.530 NA
ENDBRANCH  17  18
ENDBRANCH  16  17
ENDBRANCH   2  16
TORSDOF 7
