REMARK  Name = ZINCrH00000tj13m.0
REMARK                            x       y       z     vdW  Elec       q    Type
REMARK                         _______ _______ _______ _____ _____    ______ ____
ROOT
ATOM      1  C   LIG    1       -3.745   2.262  -0.184  0.00  0.00    +0.350 C 
ATOM      2  S   LIG    1       -4.987   0.931  -0.419  0.00  0.00    -0.250 S 
ATOM      3  C   LIG    1       -3.759  -0.337  -0.949  0.00  0.00    +0.150 C 
ATOM      4  C   LIG    1       -2.538   0.105  -0.100  0.00  0.00    +0.260 C 
ATOM      5  N   LIG    1       -2.455   1.564  -0.079  0.00  0.00    -0.610 N 
ATOM      6  C   LIG    1       -1.282   2.221   0.022  0.00  0.00    +0.600 C 
ATOM      7  O   LIG    1       -1.271   3.433   0.119  0.00  0.00    -0.490 OA
ENDROOT
BRANCH   6   8
ATOM      8  C   LIG    1       -0.015   1.470   0.015  0.00  0.00    -0.250 A 
ATOM      9  C   LIG    1        0.453   0.832   1.156  0.00  0.00    +0.200 A 
ATOM     10  C   LIG    1        1.701   0.162   1.077  0.00  0.00    -0.160 A 
ATOM     11  C   LIG    1        2.124  -0.678   2.117  0.00  0.00    +0.090 A 
ATOM     12  C   LIG    1        3.298  -1.366   1.999  0.00  0.00    +0.000 A 
ATOM     13  C   LIG    1        4.081  -1.234   0.861  0.00  0.00    +0.090 A 
ATOM     14  C   LIG    1        3.696  -0.394  -0.164  0.00  0.00    +0.020 A 
ATOM     15  C   LIG    1        2.512   0.323  -0.062  0.00  0.00    +0.140 A 
ATOM     16  O   LIG    1        2.140   1.172  -1.049  0.00  0.00    -0.260 OA
ATOM     17  C   LIG    1        0.812   1.372  -1.201  0.00  0.00    +0.530 A 
ATOM     18  O   LIG    1        0.314   1.467  -2.307  0.00  0.00    -0.430 OA
ENDBRANCH   6   8
BRANCH   1  22
ATOM     19  C   LIG    1       -4.556   4.430   3.409  0.00  0.00    +0.230 A 
ATOM     20  C   LIG    1       -5.046   4.889   2.193  0.00  0.00    -0.070 A 
ATOM     21  C   LIG    1       -4.782   4.186   1.034  0.00  0.00    +0.080 A 
ATOM     22  C   LIG    1       -4.031   3.026   1.083  0.00  0.00    -0.140 A 
ATOM     23  C   LIG    1       -3.546   2.563   2.293  0.00  0.00    +0.070 A 
ATOM     24  C   LIG    1       -3.802   3.264   3.455  0.00  0.00    -0.080 A 
BRANCH  19  26
ATOM     25  C   LIG    1       -5.708   6.304   4.551  0.00  0.00    +0.280 C 
ATOM     26  N   LIG    1       -4.821   5.139   4.583  0.00  0.00    -0.640 N 
ATOM     27  C   LIG    1       -4.212   4.716   5.847  0.00  0.00    +0.280 C 
ENDBRANCH  19  26
ENDBRANCH   1  22
TORSDOF 3
