REMARK  Name = ZINCpk000000mGWJ.0
REMARK                            x       y       z     vdW  Elec       q    Type
REMARK                         _______ _______ _______ _____ _____    ______ ____
ROOT
ATOM      1  C   LIG    1       -1.797   0.212  -4.504  0.00  0.00    -0.050 C 
ATOM      2  C   LIG    1       -0.548   0.079  -5.395  0.00  0.00    +0.300 C 
ATOM      3  N   LIG    1       -1.491  -0.078  -6.520  0.00  0.00    -0.630 N 
ATOM      4  C   LIG    1       -1.423  -0.658  -7.734  0.00  0.00    +0.680 C 
ATOM      5  O   LIG    1       -2.386  -0.632  -8.475  0.00  0.00    -0.570 OA
ATOM      6  C   LIG    1       -2.537   0.654  -5.780  0.00  0.00    +0.320 C 
ENDROOT
BRANCH   1   8
ATOM      7  C   LIG    1       -2.743  -1.153  -2.715  0.00  0.00    +0.040 C 
ATOM      8  C   LIG    1       -2.286  -1.097  -3.942  0.00  0.00    -0.020 C 
ENDBRANCH   1   8
BRANCH   4   9
ATOM      9  O   LIG    1       -0.288  -1.266  -8.128  0.00  0.00    -0.360 OA
BRANCH   9  10
ATOM     10  C   LIG    1       -0.287  -1.868  -9.449  0.00  0.00    +0.140 C 
ATOM     11  C   LIG    1       -1.374  -2.942  -9.520  0.00  0.00    +0.040 C 
ATOM     12  C   LIG    1        1.078  -2.506  -9.717  0.00  0.00    +0.080 C 
ATOM     13  C   LIG    1       -0.563  -0.792 -10.501  0.00  0.00    +0.040 C 
ENDBRANCH   9  10
ENDBRANCH   4   9
BRANCH   1  14
ATOM     14  C   LIG    1       -1.685   1.312  -3.446  0.00  0.00    +0.090 C 
BRANCH  14  15
ATOM     15  C   LIG    1       -0.947   0.778  -2.244  0.00  0.00    +0.520 C 
ATOM     16  N   LIG    1       -0.729   1.575  -1.180  0.00  0.00    -0.620 N 
ATOM     17  C   LIG    1       -1.198   2.971  -1.156  0.00  0.00    +0.290 C 
ATOM     18  C   LIG    1       -2.189   3.125  -0.001  0.00  0.00    +0.260 C 
ATOM     19  N   LIG    1       -1.664   2.517   1.214  0.00  0.00    -0.610 N 
ATOM     20  C   LIG    1       -0.722   1.573   1.242  0.00  0.00    +0.510 C 
ATOM     21  O   LIG    1       -0.422   1.087   2.312  0.00  0.00    -0.540 OA
ATOM     22  C   LIG    1       -2.210   2.973   2.495  0.00  0.00    +0.280 C 
ATOM     23  C   LIG    1       -0.013   1.086   0.008  0.00  0.00    +0.260 C 
ATOM     24  C   LIG    1        1.422   1.618  -0.003  0.00  0.00    +0.070 C 
ATOM     25  O   LIG    1       -0.551  -0.368  -2.236  0.00  0.00    -0.510 OA
ENDBRANCH  14  15
ENDBRANCH   1  14
TORSDOF 5
