REMARK  Name = ZINCqH00000053Ev.0
REMARK                            x       y       z     vdW  Elec       q    Type
REMARK                         _______ _______ _______ _____ _____    ______ ____
ROOT
ATOM      1  C   LIG    1       -1.757  -1.043  -4.812  0.00  0.00    +0.070 A 
ATOM      2  N   LIG    1       -2.779  -0.822  -4.038  0.00  0.00    -0.250 NA
ATOM      3  N   LIG    1       -2.352  -0.005  -2.981  0.00  0.00    -0.500 NA
ATOM      4  C   LIG    1       -1.018   0.236  -3.186  0.00  0.00    +0.440 A 
ATOM      5  N   LIG    1       -0.233   0.956  -2.430  0.00  0.00    -0.660 NA
ATOM      6  O   LIG    1       -0.671  -0.407  -4.320  0.00  0.00    -0.290 OA
ENDROOT
BRANCH   5   7
ATOM      7  C   LIG    1       -0.765   1.599  -1.226  0.00  0.00    +0.180 C 
ATOM      8  C   LIG    1       -0.013   1.086   0.008  0.00  0.00    +0.020 C 
ATOM      9  C   LIG    1       -0.738   1.584   1.257  0.00  0.00    +0.060 C 
ATOM     10  C   LIG    1       -0.968   3.070   1.178  0.00  0.00    -0.070 A 
ATOM     11  C   LIG    1       -1.271   3.741   2.356  0.00  0.00    +0.000 A 
ATOM     12  C   LIG    1       -1.504   5.101   2.348  0.00  0.00    -0.010 A 
ATOM     13  C   LIG    1       -1.435   5.802   1.159  0.00  0.00    -0.010 A 
ATOM     14  C   LIG    1       -1.131   5.138  -0.011  0.00  0.00    +0.000 A 
ATOM     15  C   LIG    1       -0.895   3.770  -0.006  0.00  0.00    -0.060 A 
ATOM     16  C   LIG    1       -0.564   3.110  -1.319  0.00  0.00    +0.070 C 
ENDBRANCH   5   7
BRANCH   1  20
ATOM     17  C   LIG    1       -1.828  -3.391  -8.352  0.00  0.00    -0.200 A 
ATOM     18  C   LIG    1       -2.984  -3.228  -7.610  0.00  0.00    +0.050 A 
ATOM     19  C   LIG    1       -2.968  -2.467  -6.459  0.00  0.00    +0.030 A 
ATOM     20  C   LIG    1       -1.782  -1.860  -6.044  0.00  0.00    +0.090 A 
ATOM     21  C   LIG    1       -0.621  -2.023  -6.801  0.00  0.00    +0.020 A 
ATOM     22  C   LIG    1       -0.649  -2.792  -7.946  0.00  0.00    +0.040 A 
BRANCH  17  23
ATOM     23  C   LIG    1       -1.853  -4.224  -9.607  0.00  0.00    +0.310 C 
BRANCH  23  25
ATOM     24  C   LIG    1       -1.101  -2.391 -10.960  0.00  0.00    +0.320 C 
ATOM     25  N   LIG    1       -2.178  -3.368 -10.756  0.00  0.00    -0.390 N 
ATOM     26  C   LIG    1       -2.320  -4.198 -11.960  0.00  0.00    +0.310 C 
ATOM     27  H   LIG    1       -3.044  -2.882 -10.579  0.00  0.00    +0.430 HD
ENDBRANCH  23  25
ENDBRANCH  17  23
ENDBRANCH   1  20
TORSDOF 4
