REMARK  Name = ZINCpk000000nJmT.0
REMARK                            x       y       z     vdW  Elec       q    Type
REMARK                         _______ _______ _______ _____ _____    ______ ____
ROOT
ATOM      1  C   LIG    1       -2.449   1.117   0.020  0.00  0.00    +0.390 C 
ENDROOT
BRANCH   1   2
ATOM      2  C   LIG    1       -3.537   1.963   0.630  0.00  0.00    +0.180 A 
ATOM      3  N   LIG    1       -4.426   1.572   1.508  0.00  0.00    -0.450 NA
ATOM      4  C   LIG    1       -5.186   2.660   1.765  0.00  0.00    +0.210 A 
ATOM      5  N   LIG    1       -4.724   3.636   1.028  0.00  0.00    -0.360 NA
ATOM      6  O   LIG    1       -3.779   3.252   0.372  0.00  0.00    +0.090 OA
BRANCH   4   7
ATOM      7  C   LIG    1       -6.335   2.732   2.703  0.00  0.00    +0.020 A 
ATOM      8  C   LIG    1       -6.737   1.610   3.433  0.00  0.00    +0.020 A 
ATOM      9  C   LIG    1       -7.807   1.722   4.298  0.00  0.00    +0.270 A 
ATOM     10  N   LIG    1       -8.453   2.864   4.431  0.00  0.00    -0.470 NA
ATOM     11  C   LIG    1       -8.109   3.944   3.757  0.00  0.00    +0.270 A 
ATOM     12  C   LIG    1       -7.047   3.921   2.876  0.00  0.00    +0.000 A 
ENDBRANCH   4   7
ENDBRANCH   1   2
BRANCH   1  13
ATOM     13  N   LIG    1       -1.191   1.867   0.018  0.00  0.00    -0.730 N 
ATOM     14  H   LIG    1       -1.204   2.837   0.023  0.00  0.00    +0.410 HD
ATOM     15  C   LIG    1       -0.014   1.209   0.009  0.00  0.00    +0.500 C 
ATOM     16  O   LIG    1        0.002  -0.004   0.002  0.00  0.00    -0.500 OA
BRANCH  15  17
ATOM     17  C   LIG    1        1.280   1.980   0.001  0.00  0.00    +0.340 C 
BRANCH  17  18
ATOM     18  N   LIG    1        2.407   1.043  -0.015  0.00  0.00    -0.600 N 
ATOM     19  C   LIG    1        2.977   0.565  -1.283  0.00  0.00    +0.380 C 
ATOM     20  S   LIG    1        3.947  -0.909  -0.775  0.00  0.00    -0.230 S 
ATOM     21  C   LIG    1        4.099  -0.371   0.976  0.00  0.00    +0.170 C 
ATOM     22  C   LIG    1        2.947   0.604   1.115  0.00  0.00    +0.520 C 
ATOM     23  O   LIG    1        2.539   0.961   2.200  0.00  0.00    -0.510 OA
ENDBRANCH  17  18
ENDBRANCH  15  17
ENDBRANCH   1  13
BRANCH   1  25
ATOM     24  C   LIG    1       -1.726  -0.103  -2.037  0.00  0.00    +0.040 C 
ATOM     25  C   LIG    1       -2.830   0.756  -1.417  0.00  0.00    -0.020 C 
ATOM     26  C   LIG    1       -4.144  -0.027  -1.415  0.00  0.00    +0.040 C 
ENDBRANCH   1  25
TORSDOF 6
