REMARK  Name = ZINCpk000000pJ7w.0
REMARK                            x       y       z     vdW  Elec       q    Type
REMARK                         _______ _______ _______ _____ _____    ______ ____
ROOT
ATOM      1  N   LIG    1       -3.676   3.179   0.050  0.00  0.00    -0.500 N 
ATOM      2  H   LIG    1       -3.664   2.209   0.045  0.00  0.00    +0.430 HD
ATOM      3  C   LIG    1       -2.517   3.866   0.045  0.00  0.00    +0.570 C 
ATOM      4  O   LIG    1       -2.531   5.082   0.052  0.00  0.00    -0.500 OA
ENDROOT
BRANCH   3   5
ATOM      5  C   LIG    1       -1.231   3.144   0.030  0.00  0.00    -0.090 A 
ATOM      6  C   LIG    1       -1.216   1.747   0.017  0.00  0.00    +0.050 A 
ATOM      7  C   LIG    1       -0.013   1.076   0.008  0.00  0.00    +0.090 A 
ATOM      8  C   LIG    1        1.181   1.785   0.000  0.00  0.00    -0.100 A 
ATOM      9  S   LIG    1        2.721   0.924  -0.027  0.00  0.00    -0.060 S 
ATOM     10  C   LIG    1        3.781   2.086  -0.938  0.00  0.00    +0.060 C 
ATOM     11  C   LIG    1        3.551   3.475  -0.410  0.00  0.00    +0.530 C 
ATOM     12  N   LIG    1        2.367   3.914   0.010  0.00  0.00    -0.650 N 
ATOM     13  H   LIG    1        2.326   4.823   0.344  0.00  0.00    +0.420 HD
ATOM     14  O   LIG    1        4.495   4.235  -0.363  0.00  0.00    -0.510 OA
ATOM     15  C   LIG    1        3.432   2.040  -2.427  0.00  0.00    +0.090 C 
ATOM     16  C   LIG    1        1.180   3.184   0.011  0.00  0.00    +0.160 A 
ATOM     17  C   LIG    1       -0.030   3.858   0.025  0.00  0.00    +0.080 A 
ENDBRANCH   3   5
BRANCH   1  22
ATOM     18  C   LIG    1       -6.897   4.799  -0.526  0.00  0.00    +0.130 C 
ATOM     19  N   LIG    1       -6.590   5.060   0.891  0.00  0.00    -0.710 N 
ATOM     20  H   LIG    1       -7.136   5.556   1.520  0.00  0.00    +0.440 HD
ATOM     21  C   LIG    1       -5.407   4.471   1.143  0.00  0.00    +0.710 C 
ATOM     22  N   LIG    1       -4.897   3.865   0.064  0.00  0.00    -0.380 N 
ATOM     23  O   LIG    1       -4.860   4.491   2.228  0.00  0.00    -0.520 OA
ATOM     24  C   LIG    1       -7.006   6.110  -1.307  0.00  0.00    +0.100 C 
ATOM     25  C   LIG    1       -5.708   3.990  -1.005  0.00  0.00    +0.530 C 
ATOM     26  O   LIG    1       -5.524   3.547  -2.119  0.00  0.00    -0.450 OA
BRANCH  18  28
ATOM     27  C   LIG    1       -9.369   4.827  -0.167  0.00  0.00    +0.050 C 
ATOM     28  C   LIG    1       -8.187   3.987  -0.657  0.00  0.00    +0.050 C 
ENDBRANCH  18  28
ENDBRANCH   1  22
TORSDOF 3
