REMARK  Name = ZINCwl0000000jjC.0
REMARK                            x       y       z     vdW  Elec       q    Type
REMARK                         _______ _______ _______ _____ _____    ______ ____
ROOT
ATOM      1  C   LIG    1        0.103  -4.753   3.854  0.00  0.00    +0.340 C 
ENDROOT
BRANCH   1   5
ATOM      2  N   LIG    1        0.043  -1.987   1.434  0.00  0.00    -0.740 N 
ATOM      3  H   LIG    1        0.041  -2.467   0.591  0.00  0.00    +0.400 HD
ATOM      4  C   LIG    1        0.063  -2.667   2.597  0.00  0.00    +0.700 C 
ATOM      5  N   LIG    1        0.081  -4.014   2.590  0.00  0.00    -0.750 N 
ATOM      6  H   LIG    1        0.080  -4.495   1.747  0.00  0.00    +0.400 HD
ATOM      7  O   LIG    1        0.065  -2.064   3.653  0.00  0.00    -0.580 OA
BRANCH   2   8
ATOM      8  C   LIG    1        0.023  -0.522   1.442  0.00  0.00    +0.280 C 
BRANCH   8   9
ATOM      9  C   LIG    1        0.002  -0.004   0.002  0.00  0.00    +0.070 C 
BRANCH   9  14
ATOM     10  C   LIG    1        1.147   3.603   0.010  0.00  0.00    -0.140 A 
ATOM     11  C   LIG    1       -0.075   4.277   0.025  0.00  0.00    +0.050 A 
ATOM     12  C   LIG    1       -1.254   3.560   0.032  0.00  0.00    +0.010 A 
ATOM     13  C   LIG    1       -1.227   2.177   0.020  0.00  0.00    +0.050 A 
ATOM     14  C   LIG    1       -0.018   1.503   0.010  0.00  0.00    -0.090 A 
ATOM     15  C   LIG    1        1.168   2.207   0.003  0.00  0.00    +0.090 A 
BRANCH  10  19
ATOM     16  N   LIG    1        2.391   5.712   0.009  0.00  0.00    -0.850 N 
ATOM     17  H   LIG    1        3.222   6.212   0.003  0.00  0.00    +0.410 HD
ATOM     18  H   LIG    1        1.542   6.182   0.019  0.00  0.00    +0.400 HD
ATOM     19  C   LIG    1        2.414   4.364   0.002  0.00  0.00    +0.560 C 
ATOM     20  O   LIG    1        3.477   3.775  -0.012  0.00  0.00    -0.540 OA
ENDBRANCH  10  19
ENDBRANCH   9  14
ENDBRANCH   8   9
ENDBRANCH   2   8
ENDBRANCH   1   5
BRANCH   1  21
ATOM     21  C   LIG    1        0.121  -6.234   3.571  0.00  0.00    -0.100 A 
ATOM     22  C   LIG    1       -1.068  -6.930   3.458  0.00  0.00    +0.080 A 
ATOM     23  C   LIG    1       -1.052  -8.286   3.193  0.00  0.00    +0.030 A 
ATOM     24  C   LIG    1        0.153  -8.949   3.051  0.00  0.00    +0.040 A 
ATOM     25  C   LIG    1        1.342  -8.254   3.170  0.00  0.00    -0.160 A 
ATOM     26  C   LIG    1        1.326  -6.896   3.429  0.00  0.00    +0.060 A 
BRANCH  25  27
ATOM     27  C   LIG    1        2.655  -8.976   3.016  0.00  0.00    +0.320 C 
BRANCH  27  28
ATOM     28  N   LIG    1        3.099  -9.470   4.326  0.00  0.00    -0.380 N 
ATOM     29  C   LIG    1        2.153 -10.483   4.811  0.00  0.00    +0.240 C 
ATOM     30  C   LIG    1        2.566 -10.943   6.211  0.00  0.00    +0.070 C 
ATOM     31  C   LIG    1        3.973 -11.544   6.150  0.00  0.00    +0.060 C 
ATOM     32  C   LIG    1        4.938 -10.504   5.574  0.00  0.00    -0.010 C 
ATOM     33  C   LIG    1        4.437 -10.060   4.197  0.00  0.00    +0.290 C 
ATOM     34  H   LIG    1        3.133  -8.703   4.980  0.00  0.00    +0.420 HD
BRANCH  32  35
ATOM     35  C   LIG    1        6.310 -11.111   5.438  0.00  0.00    +0.530 C 
ATOM     36  O   LIG    1        6.839 -11.178   4.349  0.00  0.00    -0.530 OA
ATOM     37  N   LIG    1        6.950 -11.579   6.528  0.00  0.00    -0.840 N 
ATOM     38  H   LIG    1        7.834 -11.970   6.441  0.00  0.00    +0.420 HD
ATOM     39  H   LIG    1        6.528 -11.525   7.399  0.00  0.00    +0.410 HD
ENDBRANCH  32  35
ENDBRANCH  27  28
ENDBRANCH  25  27
ENDBRANCH   1  21
TORSDOF 9
