REMARK  Name = ZINCwl0000000jjC.1
REMARK                            x       y       z     vdW  Elec       q    Type
REMARK                         _______ _______ _______ _____ _____    ______ ____
ROOT
ATOM      1  C   LIG    1       -2.514   0.979   0.019  0.00  0.00    +0.340 C 
ENDROOT
BRANCH   1   5
ATOM      2  N   LIG    1       -4.444  -0.194   2.920  0.00  0.00    -0.740 N 
ATOM      3  H   LIG    1       -3.899   0.124   3.657  0.00  0.00    +0.400 HD
ATOM      4  C   LIG    1       -4.064   0.043   1.649  0.00  0.00    +0.700 C 
ATOM      5  N   LIG    1       -2.927   0.722   1.401  0.00  0.00    -0.750 N 
ATOM      6  H   LIG    1       -2.381   1.040   2.138  0.00  0.00    +0.400 HD
ATOM      7  O   LIG    1       -4.747  -0.357   0.726  0.00  0.00    -0.580 OA
BRANCH   2   8
ATOM      8  C   LIG    1       -5.680  -0.933   3.190  0.00  0.00    +0.280 C 
BRANCH   8   9
ATOM      9  C   LIG    1       -5.877  -1.063   4.701  0.00  0.00    +0.070 C 
BRANCH   9  14
ATOM     10  C   LIG    1       -8.297  -3.898   5.354  0.00  0.00    -0.140 A 
ATOM     11  C   LIG    1       -9.500  -3.204   5.490  0.00  0.00    +0.050 A 
ATOM     12  C   LIG    1       -9.517  -1.830   5.370  0.00  0.00    +0.010 A 
ATOM     13  C   LIG    1       -8.344  -1.140   5.120  0.00  0.00    +0.050 A 
ATOM     14  C   LIG    1       -7.149  -1.822   4.979  0.00  0.00    -0.090 A 
ATOM     15  C   LIG    1       -7.118  -3.196   5.097  0.00  0.00    +0.090 A 
BRANCH  10  19
ATOM     16  N   LIG    1       -9.411  -6.046   5.731  0.00  0.00    -0.850 N 
ATOM     17  H   LIG    1       -9.394  -7.012   5.815  0.00  0.00    +0.410 HD
ATOM     18  H   LIG    1      -10.248  -5.566   5.825  0.00  0.00    +0.400 HD
ATOM     19  C   LIG    1       -8.271  -5.371   5.482  0.00  0.00    +0.560 C 
ATOM     20  O   LIG    1       -7.221  -5.973   5.364  0.00  0.00    -0.540 OA
ENDBRANCH  10  19
ENDBRANCH   9  14
ENDBRANCH   8   9
ENDBRANCH   2   8
ENDBRANCH   1   5
BRANCH   1  21
ATOM     21  C   LIG    1       -1.219   1.750   0.017  0.00  0.00    -0.100 A 
ATOM     22  C   LIG    1       -0.013   1.076   0.008  0.00  0.00    +0.070 A 
ATOM     23  C   LIG    1        1.175   1.783   0.000  0.00  0.00    +0.030 A 
ATOM     24  C   LIG    1        1.157   3.165   0.008  0.00  0.00    +0.040 A 
ATOM     25  C   LIG    1       -0.050   3.840   0.023  0.00  0.00    -0.160 A 
ATOM     26  C   LIG    1       -1.238   3.133   0.030  0.00  0.00    +0.060 A 
BRANCH  25  27
ATOM     27  C   LIG    1       -0.070   5.347   0.031  0.00  0.00    +0.330 C 
BRANCH  27  28
ATOM     28  N   LIG    1       -0.090   5.844  -1.351  0.00  0.00    -0.380 N 
ATOM     29  C   LIG    1        1.159   5.468  -2.023  0.00  0.00    +0.240 C 
ATOM     30  C   LIG    1        1.110   5.913  -3.486  0.00  0.00    +0.050 C 
ATOM     31  C   LIG    1        0.934   7.433  -3.546  0.00  0.00    +0.070 C 
ATOM     32  C   LIG    1       -0.334   7.820  -2.779  0.00  0.00    +0.010 C 
ATOM     33  C   LIG    1       -0.231   7.305  -1.342  0.00  0.00    +0.290 C 
ATOM     34  H   LIG    1       -0.871   5.435  -1.843  0.00  0.00    +0.430 HD
BRANCH  32  35
ATOM     35  C   LIG    1       -1.536   7.206  -3.449  0.00  0.00    +0.520 C 
ATOM     36  O   LIG    1       -2.241   6.432  -2.838  0.00  0.00    -0.560 OA
ATOM     37  N   LIG    1       -1.826   7.517  -4.728  0.00  0.00    -0.830 N 
ATOM     38  H   LIG    1       -2.600   7.121  -5.160  0.00  0.00    +0.420 HD
ATOM     39  H   LIG    1       -1.262   8.136  -5.217  0.00  0.00    +0.410 HD
ENDBRANCH  32  35
ENDBRANCH  27  28
ENDBRANCH  25  27
ENDBRANCH   1  21
TORSDOF 9
