REMARK  Name = ZINCnE000001ED8A.0
REMARK                            x       y       z     vdW  Elec       q    Type
REMARK                         _______ _______ _______ _____ _____    ______ ____
ROOT
ATOM      1  N   LIG    1       -0.297  -1.684   1.555  0.00  0.00    -0.720 N 
ATOM      2  H   LIG    1       -0.284  -2.305   0.810  0.00  0.00    +0.400 HD
ATOM      3  C   LIG    1       -0.533  -0.375   1.337  0.00  0.00    +0.520 C 
ATOM      4  O   LIG    1       -0.549   0.402   2.268  0.00  0.00    -0.520 OA
ENDROOT
BRANCH   1   9
ATOM      5  C   LIG    1       -3.544  -4.619   2.339  0.00  0.00    +0.060 C 
ATOM      6  C   LIG    1       -2.301  -3.831   2.663  0.00  0.00    -0.150 C 
ATOM      7  C   LIG    1       -2.430  -2.759   3.377  0.00  0.00    -0.110 C 
ATOM      8  C   LIG    1       -1.284  -1.874   3.788  0.00  0.00    +0.080 C 
ATOM      9  C   LIG    1       -0.060  -2.169   2.917  0.00  0.00    +0.180 C 
ATOM     10  C   LIG    1        0.169  -3.685   2.893  0.00  0.00    +0.030 C 
ATOM     11  C   LIG    1        1.169  -1.472   3.505  0.00  0.00    +0.020 C 
ATOM     12  C   LIG    1       -3.816  -2.372   3.825  0.00  0.00    +0.070 C 
ATOM     13  C   LIG    1       -0.990  -4.338   2.136  0.00  0.00    +0.060 C 
ENDBRANCH   1   9
BRANCH   3  14
ATOM     14  C   LIG    1       -0.776   0.123  -0.064  0.00  0.00    +0.100 C 
BRANCH  14  15
ATOM     15  C   LIG    1       -1.011   1.612  -0.034  0.00  0.00    -0.050 A 
ATOM     16  C   LIG    1       -2.298   2.102   0.111  0.00  0.00    -0.020 A 
ATOM     17  C   LIG    1       -2.522   3.462   0.145  0.00  0.00    +0.070 A 
ATOM     18  C   LIG    1       -1.449   4.348   0.021  0.00  0.00    -0.170 A 
ATOM     19  C   LIG    1       -0.151   3.846  -0.131  0.00  0.00    +0.130 A 
ATOM     20  F   LIG    1        0.894   4.694  -0.252  0.00  0.00    -0.120 F 
ATOM     21  C   LIG    1        0.058   2.479  -0.158  0.00  0.00    -0.040 A 
BRANCH  18  22
ATOM     22  C   LIG    1       -1.681   5.803   0.052  0.00  0.00    +0.520 C 
ATOM     23  O   LIG    1       -0.739   6.575  -0.057  0.00  0.00    -0.670 OA
ATOM     24  O   LIG    1       -2.817   6.238   0.185  0.00  0.00    -0.690 OA
ENDBRANCH  18  22
ENDBRANCH  14  15
ENDBRANCH   3  14
TORSDOF 4
