REMARK  Name = ZINCrD0000074jLt.0
REMARK                            x       y       z     vdW  Elec       q    Type
REMARK                         _______ _______ _______ _____ _____    ______ ____
ROOT
ATOM      1  C   LIG    1       -1.643   0.122  -1.048  0.00  0.00    +0.510 C 
ATOM      2  N   LIG    1       -1.518  -0.668   0.036  0.00  0.00    -0.570 N 
ATOM      3  O   LIG    1       -1.329   1.291  -0.986  0.00  0.00    -0.500 OA
ENDROOT
BRANCH   1  12
ATOM      4  C   LIG    1       -0.933   2.034  -4.084  0.00  0.00    +0.080 C 
ATOM      5  C   LIG    1       -2.009   0.975  -4.335  0.00  0.00    +0.170 C 
ATOM      6  C   LIG    1       -3.065   1.433  -5.354  0.00  0.00    +0.090 C 
ATOM      7  C   LIG    1       -4.096   2.106  -4.415  0.00  0.00    +0.090 C 
ATOM      8  C   LIG    1       -3.889   1.426  -3.082  0.00  0.00    +0.550 C 
ATOM      9  O   LIG    1       -4.611   1.563  -2.117  0.00  0.00    -0.510 OA
ATOM     10  S   LIG    1       -1.322  -0.656  -4.820  0.00  0.00    -0.230 S 
ATOM     11  C   LIG    1       -1.023  -1.166  -3.073  0.00  0.00    +0.170 C 
ATOM     12  C   LIG    1       -2.175  -0.448  -2.338  0.00  0.00    +0.250 C 
ATOM     13  N   LIG    1       -2.784   0.638  -3.115  0.00  0.00    -0.610 N 
ENDBRANCH   1  12
BRANCH   2  14
ATOM     14  C   LIG    1       -1.077  -0.127   1.249  0.00  0.00    +0.150 A 
ATOM     15  C   LIG    1       -1.972   0.526   2.086  0.00  0.00    +0.080 A 
ATOM     16  C   LIG    1       -1.534   1.059   3.283  0.00  0.00    +0.050 A 
ATOM     17  C   LIG    1       -0.205   0.943   3.647  0.00  0.00    +0.110 A 
ATOM     18  C   LIG    1        0.689   0.292   2.816  0.00  0.00    -0.040 A 
ATOM     19  C   LIG    1        0.257  -0.242   1.619  0.00  0.00    +0.110 A 
BRANCH  18  20
ATOM     20  N   LIG    1        2.110   0.170   3.211  0.00  0.00    +0.030 N 
ATOM     21  O   LIG    1        2.492   0.641   4.267  0.00  0.00    -0.150 OA
ATOM     22  O   LIG    1        2.898  -0.403   2.479  0.00  0.00    -0.160 OA
ENDBRANCH  18  20
ENDBRANCH   2  14
BRANCH   2  23
ATOM     23  C   LIG    1       -1.843  -2.094  -0.054  0.00  0.00    +0.230 C 
ATOM     24  C   LIG    1       -2.829  -2.483   1.066  0.00  0.00    +0.020 C 
ATOM     25  C   LIG    1       -2.379  -3.903   1.492  0.00  0.00    +0.020 C 
ATOM     26  C   LIG    1       -0.835  -3.812   1.408  0.00  0.00    +0.010 C 
ATOM     27  C   LIG    1       -0.575  -2.938   0.163  0.00  0.00    +0.010 C 
ENDBRANCH   2  23
TORSDOF 4
