REMARK  Name = ZINCpk00000ebBR8.0
REMARK                            x       y       z     vdW  Elec       q    Type
REMARK                         _______ _______ _______ _____ _____    ______ ____
ROOT
ATOM      1  N   LIG    1        6.194  -1.717  -0.065  0.00  0.00    -0.700 N 
ATOM      2  H   LIG    1        6.112  -0.750  -0.059  0.00  0.00    +0.410 HD
ATOM      3  C   LIG    1        5.089  -2.488  -0.058  0.00  0.00    +0.570 C 
ATOM      4  O   LIG    1        5.192  -3.699  -0.065  0.00  0.00    -0.530 OA
ENDROOT
BRANCH   3   5
ATOM      5  C   LIG    1        3.748  -1.859  -0.043  0.00  0.00    +0.070 A 
ATOM      6  C   LIG    1        2.609  -2.675  -0.036  0.00  0.00    +0.080 A 
ATOM      7  C   LIG    1        1.365  -2.103  -0.022  0.00  0.00    +0.080 A 
ATOM      8  C   LIG    1        1.283  -0.705  -0.014  0.00  0.00    -0.020 A 
ATOM      9  C   LIG    1        0.002  -0.004   0.002  0.00  0.00    -0.050 A 
ATOM     10  C   LIG    1       -0.016   1.341   0.009  0.00  0.00    +0.300 A 
ATOM     11  N   LIG    1        1.125   2.086   0.003  0.00  0.00    -0.630 N 
ATOM     12  H   LIG    1        1.052   3.054   0.008  0.00  0.00    +0.420 HD
ATOM     13  C   LIG    1        2.352   1.528  -0.012  0.00  0.00    +0.560 A 
ATOM     14  O   LIG    1        3.347   2.229  -0.018  0.00  0.00    -0.490 OA
ATOM     15  C   LIG    1        2.474   0.061  -0.021  0.00  0.00    +0.050 A 
ATOM     16  N   LIG    1        3.652  -0.540  -0.035  0.00  0.00    -0.390 NA
ENDBRANCH   3   5
BRANCH   1  17
ATOM     17  C   LIG    1        7.521  -2.339  -0.080  0.00  0.00    +0.360 C 
BRANCH  17  28
ATOM     18  O   LIG    1        8.494  -1.037  -2.348  0.00  0.00    -0.540 OA
ATOM     19  C   LIG    1        8.992  -0.678  -1.293  0.00  0.00    +0.530 A 
ATOM     20  N   LIG    1        9.936   0.278  -1.286  0.00  0.00    -0.600 N 
ATOM     21  H   LIG    1       10.216   0.679  -2.124  0.00  0.00    +0.410 HD
ATOM     22  C   LIG    1       10.508   0.696  -0.122  0.00  0.00    +0.150 A 
ATOM     23  C   LIG    1       10.132   0.150   1.058  0.00  0.00    -0.210 A 
ATOM     24  C   LIG    1       10.907   0.778   2.197  0.00  0.00    +0.090 C 
ATOM     25  C   LIG    1       11.493   2.080   1.613  0.00  0.00    +0.050 C 
ATOM     26  C   LIG    1        9.143  -0.848   1.083  0.00  0.00    +0.170 A 
ATOM     27  C   LIG    1       11.576   1.746   0.108  0.00  0.00    +0.100 C 
ATOM     28  C   LIG    1        8.579  -1.266  -0.085  0.00  0.00    -0.240 A 
ENDBRANCH  17  28
ENDBRANCH   1  17
TORSDOF 3
