REMARK  Name = ZINCnE000001TzcZ.0
REMARK                            x       y       z     vdW  Elec       q    Type
REMARK                         _______ _______ _______ _____ _____    ______ ____
ROOT
ATOM      1  N   LIG    1       -2.601   0.348   1.359  0.00  0.00    -0.710 N 
ATOM      2  H   LIG    1       -3.191   0.673   2.057  0.00  0.00    +0.400 HD
ATOM      3  C   LIG    1       -1.825  -0.731   1.581  0.00  0.00    +0.590 C 
ATOM      4  O   LIG    1       -1.152  -1.191   0.679  0.00  0.00    -0.510 OA
ENDROOT
BRANCH   3   5
ATOM      5  C   LIG    1       -1.791  -1.357   2.925  0.00  0.00    -0.010 A 
ATOM      6  N   LIG    1       -2.458  -0.974   3.987  0.00  0.00    -0.330 NA
ATOM      7  O   LIG    1       -2.228  -1.679   4.942  0.00  0.00    +0.140 OA
ATOM      8  C   LIG    1       -1.353  -2.655   4.639  0.00  0.00    +0.040 A 
ATOM      9  C   LIG    1       -1.036  -2.491   3.315  0.00  0.00    +0.020 A 
BRANCH   8  10
ATOM     10  C   LIG    1       -0.842  -3.695   5.546  0.00  0.00    -0.140 A 
ATOM     11  C   LIG    1       -1.179  -3.829   6.859  0.00  0.00    +0.050 A 
ATOM     12  C   LIG    1       -0.570  -4.886   7.497  0.00  0.00    +0.010 A 
ATOM     13  C   LIG    1        0.261  -5.608   6.738  0.00  0.00    -0.040 A 
ATOM     14  S   LIG    1        0.304  -4.954   5.106  0.00  0.00    +0.180 S 
ENDBRANCH   8  10
ENDBRANCH   3   5
BRANCH   1  15
ATOM     15  C   LIG    1       -2.555   1.030   0.063  0.00  0.00    +0.350 C 
BRANCH  15  16
ATOM     16  C   LIG    1       -3.819   1.828  -0.130  0.00  0.00    -0.160 A 
ATOM     17  C   LIG    1       -4.489   1.941  -1.278  0.00  0.00    +0.070 A 
ATOM     18  C   LIG    1       -5.628   2.726  -1.213  0.00  0.00    +0.010 A 
ATOM     19  C   LIG    1       -5.877   3.258  -0.016  0.00  0.00    -0.060 A 
ATOM     20  S   LIG    1       -4.632   2.758   1.122  0.00  0.00    +0.050 S 
ENDBRANCH  15  16
BRANCH  15  21
ATOM     21  C   LIG    1       -1.348   1.969   0.024  0.00  0.00    -0.060 C 
BRANCH  21  23
ATOM     22  O   LIG    1       -1.923   2.151  -2.263  0.00  0.00    -0.690 OA
ATOM     23  C   LIG    1       -1.208   2.549  -1.360  0.00  0.00    +0.500 C 
ATOM     24  O   LIG    1       -0.382   3.420  -1.575  0.00  0.00    -0.700 OA
ENDBRANCH  21  23
ENDBRANCH  15  21
ENDBRANCH   1  15
TORSDOF 6
