REMARK  Name = ZINCvU0000000DnA.0
REMARK                            x       y       z     vdW  Elec       q    Type
REMARK                         _______ _______ _______ _____ _____    ______ ____
ROOT
ATOM      1  C   LIG    1        1.682   3.804  -1.415  0.00  0.00    +0.470 C 
ATOM      2  O   LIG    1        1.491   3.045  -2.335  0.00  0.00    -0.490 OA
ENDROOT
BRANCH   1   3
ATOM      3  O   LIG    1        1.984   5.089  -1.656  0.00  0.00    -0.350 OA
BRANCH   3   4
ATOM      4  C   LIG    1        2.066   5.497  -3.047  0.00  0.00    +0.350 C 
BRANCH   4   7
ATOM      5  C   LIG    1        2.851   8.855  -4.216  0.00  0.00    +0.110 A 
ATOM      6  N   LIG    1        2.554   7.587  -4.266  0.00  0.00    -0.450 NA
ATOM      7  C   LIG    1        2.413   6.962  -3.121  0.00  0.00    +0.060 A 
ATOM      8  C   LIG    1        2.601   7.704  -2.024  0.00  0.00    -0.030 A 
ATOM      9  S   LIG    1        2.987   9.348  -2.530  0.00  0.00    +0.120 S 
BRANCH   5  13
ATOM     10  C   LIG    1        3.413  11.387  -7.577  0.00  0.00    -0.010 A 
ATOM     11  C   LIG    1        3.550  11.901  -6.284  0.00  0.00    +0.070 A 
ATOM     12  C   LIG    1        3.369  11.083  -5.199  0.00  0.00    +0.040 A 
ATOM     13  C   LIG    1        3.047   9.736  -5.385  0.00  0.00    +0.000 A 
ATOM     14  C   LIG    1        2.916   9.221  -6.678  0.00  0.00    +0.080 A 
ATOM     15  C   LIG    1        3.092  10.040  -7.763  0.00  0.00    +0.070 A 
BRANCH  10  17
ATOM     16  N   LIG    1        3.754  12.919  -9.610  0.00  0.00    -0.400 NA
ATOM     17  C   LIG    1        3.603  12.242  -8.710  0.00  0.00    +0.250 C 
ENDBRANCH  10  17
ENDBRANCH   5  13
ENDBRANCH   4   7
ENDBRANCH   3   4
ENDBRANCH   1   3
BRANCH   1  18
ATOM     18  C   LIG    1        1.580   3.307   0.005  0.00  0.00    +0.240 C 
BRANCH  18  19
ATOM     19  C   LIG    1        1.232   1.841   0.000  0.00  0.00    +0.020 A 
ATOM     20  C   LIG    1        2.123   0.836  -0.014  0.00  0.00    -0.010 A 
ATOM     21  C   LIG    1        1.343  -0.399  -0.013  0.00  0.00    -0.130 A 
ATOM     22  C   LIG    1        0.002  -0.004   0.002  0.00  0.00    +0.050 A 
ATOM     23  C   LIG    1       -1.008  -0.973   0.006  0.00  0.00    +0.040 A 
ATOM     24  C   LIG    1       -0.724  -2.299  -0.002  0.00  0.00    +0.060 A 
ATOM     25  C   LIG    1        0.608  -2.758  -0.018  0.00  0.00    -0.070 A 
ATOM     26  C   LIG    1        0.906  -4.130  -0.028  0.00  0.00    +0.030 A 
ATOM     27  C   LIG    1        2.206  -4.538  -0.042  0.00  0.00    +0.010 A 
ATOM     28  C   LIG    1        3.246  -3.613  -0.047  0.00  0.00    +0.020 A 
ATOM     29  C   LIG    1        2.992  -2.273  -0.038  0.00  0.00    +0.020 A 
ATOM     30  C   LIG    1        1.669  -1.820  -0.023  0.00  0.00    -0.000 A 
ATOM     31  O   LIG    1       -0.016   1.344   0.009  0.00  0.00    -0.170 OA
ENDBRANCH  18  19
ENDBRANCH   1  18
TORSDOF 7
