REMARK  Name = ZINCvU0000000Bn7.0
REMARK                            x       y       z     vdW  Elec       q    Type
REMARK                         _______ _______ _______ _____ _____    ______ ____
ROOT
ATOM      1  C   LIG    1       -3.696   1.762   0.705  0.00  0.00    -0.270 A 
ATOM      2  C   LIG    1       -4.740   0.901   0.431  0.00  0.00    +0.340 A 
ATOM      3  N   LIG    1       -4.268  -0.087  -0.346  0.00  0.00    -0.300 N 
ATOM      4  N   LIG    1       -2.908   0.119  -0.596  0.00  0.00    -0.270 NA
ATOM      5  C   LIG    1       -2.519   1.215   0.020  0.00  0.00    +0.220 A 
ENDROOT
BRANCH   3   6
ATOM      6  C   LIG    1       -5.024  -1.159  -0.837  0.00  0.00    +0.140 A 
ATOM      7  C   LIG    1       -6.373  -1.261  -0.522  0.00  0.00    +0.000 A 
ATOM      8  C   LIG    1       -7.117  -2.315  -1.013  0.00  0.00    +0.050 A 
ATOM      9  C   LIG    1       -6.519  -3.276  -1.807  0.00  0.00    +0.010 A 
ATOM     10  C   LIG    1       -5.175  -3.181  -2.118  0.00  0.00    +0.040 A 
ATOM     11  C   LIG    1       -4.426  -2.125  -1.635  0.00  0.00    +0.030 A 
ENDBRANCH   3   6
BRANCH   5  12
ATOM     12  C   LIG    1       -1.158   1.788   0.017  0.00  0.00    -0.160 A 
ATOM     13  C   LIG    1       -0.013   1.076   0.008  0.00  0.00    +0.050 A 
ATOM     14  C   LIG    1        1.138   1.836   0.001  0.00  0.00    -0.010 A 
ATOM     15  C   LIG    1        0.944   3.158   0.009  0.00  0.00    -0.060 A 
ATOM     16  S   LIG    1       -0.780   3.506   0.027  0.00  0.00    +0.230 S 
ENDBRANCH   5  12
BRANCH   1  18
ATOM     17  O   LIG    1       -2.751   3.655   1.679  0.00  0.00    -0.490 OA
ATOM     18  C   LIG    1       -3.753   2.985   1.519  0.00  0.00    +0.550 C 
BRANCH  18  19
ATOM     19  O   LIG    1       -4.915   3.362   2.089  0.00  0.00    -0.350 OA
BRANCH  19  20
ATOM     20  C   LIG    1       -4.896   4.580   2.880  0.00  0.00    +0.410 C 
BRANCH  20  21
ATOM     21  C   LIG    1       -6.274   4.841   3.433  0.00  0.00    +0.150 A 
ATOM     22  N   LIG    1       -6.739   4.414   4.573  0.00  0.00    -0.250 NA
ATOM     23  N   LIG    1       -7.949   4.824   4.725  0.00  0.00    -0.270 NA
ATOM     24  C   LIG    1       -8.300   5.532   3.678  0.00  0.00    +0.230 A 
ATOM     25  O   LIG    1       -7.243   5.561   2.842  0.00  0.00    -0.210 OA
BRANCH  24  26
ATOM     26  C   LIG    1       -9.609   6.183   3.458  0.00  0.00    -0.040 A 
ATOM     27  C   LIG    1       -9.841   6.915   2.293  0.00  0.00    +0.050 A 
ATOM     28  C   LIG    1      -11.067   7.515   2.092  0.00  0.00    +0.020 A 
ATOM     29  C   LIG    1      -12.061   7.403   3.048  0.00  0.00    +0.040 A 
ATOM     30  C   LIG    1      -11.835   6.684   4.208  0.00  0.00    +0.020 A 
ATOM     31  C   LIG    1      -10.616   6.073   4.418  0.00  0.00    +0.080 A 
ENDBRANCH  24  26
ENDBRANCH  20  21
ENDBRANCH  19  20
ENDBRANCH  18  19
ENDBRANCH   1  18
TORSDOF 7
