REMARK  Name = ZINCnE000001RfWh.0
REMARK                            x       y       z     vdW  Elec       q    Type
REMARK                         _______ _______ _______ _____ _____    ______ ____
ROOT
ATOM      1  N   LIG    1       -1.900   1.811   3.721  0.00  0.00    -0.640 N 
ATOM      2  H   LIG    1       -2.742   1.337   3.813  0.00  0.00    +0.420 HD
ATOM      3  C   LIG    1       -1.387   2.041   2.496  0.00  0.00    +0.500 C 
ATOM      4  O   LIG    1       -0.335   2.634   2.381  0.00  0.00    -0.460 OA
ENDROOT
BRANCH   1   9
ATOM      5  C   LIG    1        1.411   3.875   7.359  0.00  0.00    +0.140 C 
ATOM      6  C   LIG    1        0.308   3.209   6.577  0.00  0.00    -0.270 A 
ATOM      7  C   LIG    1       -0.755   2.631   7.118  0.00  0.00    -0.050 A 
ATOM      8  C   LIG    1       -1.660   2.074   6.137  0.00  0.00    -0.140 A 
ATOM      9  C   LIG    1       -1.224   2.251   4.851  0.00  0.00    +0.080 A 
ATOM     10  C   LIG    1       -1.000   2.567   8.604  0.00  0.00    +0.110 C 
ATOM     11  S   LIG    1        0.258   3.093   4.827  0.00  0.00    +0.340 S 
BRANCH   8  12
ATOM     12  C   LIG    1       -2.880   1.405   6.475  0.00  0.00    +0.290 C 
ATOM     13  N   LIG    1       -3.848   0.873   6.743  0.00  0.00    -0.440 NA
ENDBRANCH   8  12
ENDBRANCH   1   9
BRANCH   3  14
ATOM     14  C   LIG    1       -2.121   1.563   1.270  0.00  0.00    +0.090 C 
BRANCH  14  15
ATOM     15  C   LIG    1       -1.330   1.951   0.019  0.00  0.00    -0.030 C 
BRANCH  15  16
ATOM     16  C   LIG    1       -2.121   1.583  -1.210  0.00  0.00    -0.050 A 
ATOM     17  C   LIG    1       -2.471   0.265  -1.437  0.00  0.00    +0.030 A 
ATOM     18  C   LIG    1       -3.200  -0.072  -2.562  0.00  0.00    -0.010 A 
ATOM     19  C   LIG    1       -3.572   0.907  -3.464  0.00  0.00    -0.030 A 
ATOM     20  C   LIG    1       -3.216   2.224  -3.240  0.00  0.00    -0.020 A 
ATOM     21  C   LIG    1       -2.491   2.562  -2.113  0.00  0.00    +0.000 A 
ENDBRANCH  15  16
BRANCH  15  22
ATOM     22  C   LIG    1       -0.015   1.215   0.009  0.00  0.00    +0.510 C 
ATOM     23  O   LIG    1        1.033   1.839   0.002  0.00  0.00    -0.680 OA
ATOM     24  O   LIG    1        0.002  -0.004   0.002  0.00  0.00    -0.700 OA
ENDBRANCH  15  22
ENDBRANCH  14  15
ENDBRANCH   3  14
TORSDOF 6
