REMARK  Name = ZINCqH00000363lI.0
REMARK                            x       y       z     vdW  Elec       q    Type
REMARK                         _______ _______ _______ _____ _____    ______ ____
ROOT
ATOM      1  N   LIG    1       -1.598  -1.771   0.630  0.00  0.00    -0.730 N 
ATOM      2  H   LIG    1       -0.815  -2.329   0.504  0.00  0.00    +0.400 HD
ATOM      3  C   LIG    1       -1.459  -0.439   0.787  0.00  0.00    +0.530 C 
ATOM      4  O   LIG    1       -2.439   0.258   0.946  0.00  0.00    -0.520 OA
ENDROOT
BRANCH   3   5
ATOM      5  C   LIG    1       -0.087   0.183   0.767  0.00  0.00    -0.030 C 
ATOM      6  C   LIG    1        0.758  -0.389   1.913  0.00  0.00    +0.260 C 
ATOM      7  O   LIG    1        2.080   0.139   1.804  0.00  0.00    -0.300 OA
ATOM      8  C   LIG    1        2.217   1.481   1.642  0.00  0.00    +0.130 A 
ATOM      9  C   LIG    1        3.459   2.056   1.890  0.00  0.00    +0.010 A 
ATOM     10  C   LIG    1        3.640   3.415   1.731  0.00  0.00    +0.060 A 
ATOM     11  C   LIG    1        2.583   4.210   1.325  0.00  0.00    -0.060 A 
ATOM     12  C   LIG    1        1.346   3.641   1.080  0.00  0.00    +0.070 A 
ATOM     13 CL   LIG    1        2.808   5.919   1.122  0.00  0.00    -0.070 Cl
ATOM     14  C   LIG    1        1.160   2.279   1.238  0.00  0.00    -0.140 A 
ATOM     15  C   LIG    1       -0.203   1.696   0.965  0.00  0.00    +0.130 C 
ENDBRANCH   3   5
BRANCH   1  16
ATOM     16  C   LIG    1       -2.932  -2.376   0.651  0.00  0.00    +0.300 C 
ATOM     17  C   LIG    1       -3.527  -2.345  -0.758  0.00  0.00    +0.040 C 
BRANCH  16  22
ATOM     18  C   LIG    1       -1.566  -5.827   1.360  0.00  0.00    +0.100 A 
ATOM     19  C   LIG    1       -2.644  -6.428   1.992  0.00  0.00    -0.040 A 
ATOM     20  C   LIG    1       -3.813  -5.718   2.189  0.00  0.00    -0.020 A 
ATOM     21  C   LIG    1       -3.906  -4.403   1.759  0.00  0.00    +0.100 A 
ATOM     22  C   LIG    1       -2.829  -3.803   1.122  0.00  0.00    -0.090 A 
ATOM     23  C   LIG    1       -1.661  -4.513   0.925  0.00  0.00    +0.020 A 
BRANCH  18  25
ATOM     24  C   LIG    1       -0.388  -7.874   1.639  0.00  0.00    +0.250 C 
ATOM     25  O   LIG    1       -0.416  -6.526   1.166  0.00  0.00    -0.320 OA
ENDBRANCH  18  25
BRANCH  21  26
ATOM     26  O   LIG    1       -5.054  -3.702   1.958  0.00  0.00    -0.310 OA
ATOM     27  C   LIG    1       -6.122  -4.382   2.621  0.00  0.00    +0.250 C 
ENDBRANCH  21  26
ENDBRANCH  16  22
ENDBRANCH   1  16
TORSDOF 5
