REMARK  Name = ZINCrH000004rEJa.0
REMARK                            x       y       z     vdW  Elec       q    Type
REMARK                         _______ _______ _______ _____ _____    ______ ____
ROOT
ATOM      1  C   LIG    1        4.139   3.832  -1.432  0.00  0.00    +0.510 C 
ATOM      2  N   LIG    1        5.447   3.634  -1.691  0.00  0.00    -0.740 N 
ATOM      3  H   LIG    1        6.087   3.610  -0.963  0.00  0.00    +0.400 HD
ATOM      4  O   LIG    1        3.339   3.863  -2.343  0.00  0.00    -0.520 OA
ENDROOT
BRANCH   1   5
ATOM      5  C   LIG    1        3.672   4.014  -0.011  0.00  0.00    +0.150 C 
BRANCH   5  11
ATOM      6  C   LIG    1       -2.513   0.968   0.019  0.00  0.00    +0.100 C 
ATOM      7  C   LIG    1       -1.225   1.750   0.017  0.00  0.00    -0.070 A 
ATOM      8  C   LIG    1       -0.013   1.076   0.008  0.00  0.00    +0.000 A 
ATOM      9  C   LIG    1        1.173   1.778   0.000  0.00  0.00    +0.050 A 
ATOM     10  C   LIG    1        1.147   3.171   0.008  0.00  0.00    -0.110 A 
ATOM     11  C   LIG    1        2.178   4.216   0.004  0.00  0.00    -0.160 A 
ATOM     12  C   LIG    1        1.525   5.386   0.016  0.00  0.00    +0.230 A 
ATOM     13  O   LIG    1        0.197   5.175   0.028  0.00  0.00    -0.190 OA
ATOM     14  C   LIG    1       -0.080   3.855   0.024  0.00  0.00    +0.060 A 
ATOM     15  C   LIG    1       -1.263   3.128   0.032  0.00  0.00    -0.070 A 
ATOM     16  C   LIG    1       -2.589   3.845   0.049  0.00  0.00    +0.100 C 
ENDBRANCH   5  11
ENDBRANCH   1   5
BRANCH   2  17
ATOM     17  C   LIG    1        5.902   3.457  -3.073  0.00  0.00    +0.260 C 
BRANCH  17  18
ATOM     18  C   LIG    1        7.418   3.252  -3.088  0.00  0.00    +0.070 C 
BRANCH  18  19
ATOM     19  C   LIG    1        7.885   3.069  -4.509  0.00  0.00    -0.080 A 
ATOM     20  C   LIG    1        7.946   1.802  -5.058  0.00  0.00    +0.020 A 
ATOM     21  C   LIG    1        8.370   1.632  -6.363  0.00  0.00    +0.030 A 
ATOM     22  C   LIG    1        8.747   2.730  -7.120  0.00  0.00    +0.050 A 
ATOM     23  O   LIG    1        9.172   2.545  -8.400  0.00  0.00    -0.310 OA
ATOM     24  C   LIG    1        9.184   3.700  -9.247  0.00  0.00    +0.220 C 
ATOM     25  C   LIG    1        9.829   4.857  -8.472  0.00  0.00    +0.220 C 
ATOM     26  O   LIG    1        9.051   5.096  -7.294  0.00  0.00    -0.310 OA
ATOM     27  C   LIG    1        8.690   4.004  -6.567  0.00  0.00    +0.050 A 
ATOM     28  C   LIG    1        8.259   4.169  -5.259  0.00  0.00    +0.030 A 
ENDBRANCH  18  19
ENDBRANCH  17  18
ENDBRANCH   2  17
TORSDOF 5
