REMARK  Name = ZINCrH000004tEaV.0
REMARK                            x       y       z     vdW  Elec       q    Type
REMARK                         _______ _______ _______ _____ _____    ______ ____
ROOT
ATOM      1  C   LIG    1       -2.550  -4.195   0.018  0.00  0.00    +0.320 C 
ENDROOT
BRANCH   1   4
ATOM      2  O   LIG    1       -0.354  -2.633   0.025  0.00  0.00    -0.540 OA
ATOM      3  C   LIG    1       -1.412  -2.041   0.030  0.00  0.00    +0.520 C 
ATOM      4  N   LIG    1       -2.570  -2.731   0.027  0.00  0.00    -0.720 N 
ATOM      5  H   LIG    1       -3.417  -2.257   0.031  0.00  0.00    +0.420 HD
BRANCH   3   6
ATOM      6  C   LIG    1       -1.432  -0.534   0.039  0.00  0.00    +0.090 C 
BRANCH   6   7
ATOM      7  C   LIG    1        0.003  -0.005   0.040  0.00  0.00    +0.060 C 
BRANCH   7   8
ATOM      8  C   LIG    1       -0.017   1.502   0.049  0.00  0.00    +0.430 C 
ATOM      9  O   LIG    1       -1.077   2.095   0.049  0.00  0.00    -0.440 OA
BRANCH   8  10
ATOM     10  C   LIG    1        1.197   2.224   0.051  0.00  0.00    -0.310 A 
ATOM     11  C   LIG    1        1.309   3.592   0.059  0.00  0.00    +0.140 A 
ATOM     12  C   LIG    1        2.611   4.028   0.061  0.00  0.00    -0.130 A 
ATOM     13  C   LIG    1        3.536   3.058   0.054  0.00  0.00    -0.020 A 
ATOM     14 BR   LIG    1        3.065   5.863   0.071  0.00  0.00    -0.020 Br
ATOM     15  S   LIG    1        2.806   1.516   0.053  0.00  0.00    +0.290 S 
ENDBRANCH   8  10
ENDBRANCH   7   8
ENDBRANCH   6   7
ENDBRANCH   3   6
ENDBRANCH   1   4
BRANCH   1  16
ATOM     16  C   LIG    1       -3.965  -4.717   0.017  0.00  0.00    +0.510 C 
ATOM     17  N   LIG    1       -4.193  -6.045   0.010  0.00  0.00    -0.660 N 
ATOM     18  H   LIG    1       -3.451  -6.664  -0.076  0.00  0.00    +0.410 HD
ATOM     19  O   LIG    1       -4.897  -3.941   0.023  0.00  0.00    -0.510 OA
BRANCH  17  20
ATOM     20  C   LIG    1       -5.496  -6.529   0.125  0.00  0.00    +0.160 A 
ATOM     21  C   LIG    1       -6.469  -5.770   0.739  0.00  0.00    +0.020 A 
ATOM     22  C   LIG    1       -7.773  -6.244   0.852  0.00  0.00    +0.060 A 
ATOM     23  C   LIG    1       -8.121  -7.470   0.373  0.00  0.00    +0.030 A 
ATOM     24  C   LIG    1       -7.158  -8.279  -0.255  0.00  0.00    +0.140 A 
ATOM     25  N   LIG    1       -7.480  -9.486  -0.732  0.00  0.00    -0.470 NA
ATOM     26  C   LIG    1       -6.587 -10.247  -1.319  0.00  0.00    +0.290 A 
ATOM     27  C   LIG    1       -5.265  -9.838  -1.474  0.00  0.00    -0.030 A 
ATOM     28  C   LIG    1       -4.871  -8.615  -1.009  0.00  0.00    +0.070 A 
ATOM     29  C   LIG    1       -5.830  -7.803  -0.381  0.00  0.00    -0.120 A 
ENDBRANCH  17  20
ENDBRANCH   1  16
TORSDOF 7
