REMARK  Name = ZINCpe000000U2M5.0
REMARK                            x       y       z     vdW  Elec       q    Type
REMARK                         _______ _______ _______ _____ _____    ______ ____
ROOT
ATOM      1  S   LIG    1       -1.528  -0.895  -0.023  0.00  0.00    +2.690 S 
ATOM      2  O   LIG    1       -2.503  -0.029   0.541  0.00  0.00    -0.940 OA
ATOM      3  O   LIG    1       -1.234  -2.182   0.502  0.00  0.00    -0.950 OA
ENDROOT
BRANCH   1   4
ATOM      4  C   LIG    1       -0.010   0.000  -0.025  0.00  0.00    -0.670 A 
ATOM      5  C   LIG    1        1.193  -0.681  -0.044  0.00  0.00    +0.140 A 
ATOM      6  C   LIG    1        2.387   0.017  -0.045  0.00  0.00    +0.000 A 
ATOM      7  C   LIG    1        2.380   1.399  -0.027  0.00  0.00    +0.120 A 
ATOM      8  C   LIG    1        1.171   2.087  -0.008  0.00  0.00    +0.100 A 
ATOM      9  F   LIG    1        3.546   2.082  -0.027  0.00  0.00    -0.130 F 
ATOM     10  C   LIG    1       -0.024   1.382  -0.007  0.00  0.00    +0.160 A 
BRANCH   8  11
ATOM     11  N   LIG    1        1.160   3.487   0.009  0.00  0.00    -0.670 N 
ATOM     12  H   LIG    1        1.916   3.983  -0.343  0.00  0.00    +0.420 HD
ATOM     13  C   LIG    1        0.099   4.146   0.516  0.00  0.00    +0.510 C 
ATOM     14  O   LIG    1       -0.800   3.530   1.047  0.00  0.00    -0.510 OA
ATOM     15  C   LIG    1        0.031   5.649   0.422  0.00  0.00    +0.110 C 
ENDBRANCH   8  11
ENDBRANCH   1   4
BRANCH   1  19
ATOM     16  N   LIG    1       -1.834  -0.998  -4.385  0.00  0.00    -0.520 NA
ATOM     17  C   LIG    1       -0.889  -1.861  -3.664  0.00  0.00    +0.170 C 
ATOM     18  C   LIG    1       -1.521  -2.315  -2.344  0.00  0.00    +0.310 C 
ATOM     19  N   LIG    1       -1.964  -1.124  -1.604  0.00  0.00    -1.000 NA
ATOM     20  C   LIG    1       -2.808  -0.144  -2.304  0.00  0.00    +0.290 C 
ATOM     21  C   LIG    1       -2.120   0.227  -3.627  0.00  0.00    +0.200 C 
BRANCH  16  22
ATOM     22  C   LIG    1       -1.337  -0.681  -5.731  0.00  0.00    +0.190 C 
BRANCH  22  24
ATOM     23  C   LIG    1       -3.632  -0.767  -6.713  0.00  0.00    +0.020 C 
ATOM     24  C   LIG    1       -2.400   0.112  -6.493  0.00  0.00    +0.020 C 
ENDBRANCH  22  24
BRANCH  22  25
ATOM     25  C   LIG    1       -0.060   0.153  -5.619  0.00  0.00    +0.140 C 
BRANCH  25  26
ATOM     26  O   LIG    1       -0.365   1.415  -5.022  0.00  0.00    -0.560 OA
ATOM     27  H   LIG    1        0.400   1.998  -4.920  0.00  0.00    +0.370 HD
ENDBRANCH  25  26
ENDBRANCH  22  25
ENDBRANCH  16  22
ENDBRANCH   1  19
TORSDOF 7
