REMARK  Name = ZINCrg00000SjSDx.0
REMARK                            x       y       z     vdW  Elec       q    Type
REMARK                         _______ _______ _______ _____ _____    ______ ____
ROOT
ATOM      1  N   LIG    1        2.407   1.043  -0.015  0.00  0.00    -0.720 N 
ATOM      2  H   LIG    1        2.242   0.087  -0.019  0.00  0.00    +0.420 HD
ATOM      3  C   LIG    1        3.671   1.510  -0.025  0.00  0.00    +0.520 C 
ATOM      4  O   LIG    1        3.876   2.705  -0.020  0.00  0.00    -0.530 OA
ENDROOT
BRANCH   1   5
ATOM      5  C   LIG    1        1.280   1.980   0.001  0.00  0.00    +0.300 C 
BRANCH   5   8
ATOM      6  N   LIG    1       -1.191   1.867   0.018  0.00  0.00    -0.720 N 
ATOM      7  H   LIG    1       -1.204   2.837   0.023  0.00  0.00    +0.400 HD
ATOM      8  C   LIG    1       -0.014   1.209   0.009  0.00  0.00    +0.510 C 
ATOM      9  O   LIG    1        0.002  -0.004   0.002  0.00  0.00    -0.530 OA
BRANCH   6  11
ATOM     10  C   LIG    1       -2.816   0.740   1.456  0.00  0.00    +0.040 C 
ATOM     11  C   LIG    1       -2.449   1.117   0.020  0.00  0.00    +0.280 C 
BRANCH  11  12
ATOM     12  C   LIG    1       -3.543   1.969  -0.571  0.00  0.00    -0.100 A 
ATOM     13  C   LIG    1       -3.610   3.316  -0.266  0.00  0.00    +0.000 A 
ATOM     14  C   LIG    1       -4.611   4.099  -0.811  0.00  0.00    +0.020 A 
ATOM     15  C   LIG    1       -5.549   3.533  -1.654  0.00  0.00    +0.000 A 
ATOM     16  C   LIG    1       -5.484   2.186  -1.955  0.00  0.00    +0.020 A 
ATOM     17  C   LIG    1       -4.481   1.404  -1.413  0.00  0.00    +0.020 A 
ENDBRANCH  11  12
ENDBRANCH   6  11
ENDBRANCH   5   8
ENDBRANCH   1   5
BRANCH   3  18
ATOM     18  C   LIG    1        4.830   0.546  -0.041  0.00  0.00    +0.320 C 
BRANCH  18  19
ATOM     19  N   LIG    1        6.088   1.296  -0.049  0.00  0.00    -1.110 NA
ATOM     20  H   LIG    1        6.088   2.242  -0.262  0.00  0.00    +0.430 HD
BRANCH  19  21
ATOM     21  S   LIG    1        7.512   0.527   0.304  0.00  0.00    +2.610 S 
ATOM     22  O   LIG    1        7.252  -0.146   1.529  0.00  0.00    -0.950 OA
ATOM     23  O   LIG    1        8.492   1.553   0.226  0.00  0.00    -0.940 OA
BRANCH  21  24
ATOM     24  C   LIG    1        7.729  -0.666  -1.044  0.00  0.00    -0.290 C 
BRANCH  24  25
ATOM     25  C   LIG    1        9.007  -1.437  -0.833  0.00  0.00    -0.100 A 
ATOM     26  C   LIG    1       10.192  -0.971  -1.371  0.00  0.00    +0.030 A 
ATOM     27  C   LIG    1       11.365  -1.675  -1.172  0.00  0.00    +0.010 A 
ATOM     28  C   LIG    1       11.351  -2.850  -0.445  0.00  0.00    +0.020 A 
ATOM     29  C   LIG    1       10.165  -3.319   0.089  0.00  0.00    +0.010 A 
ATOM     30  C   LIG    1        8.993  -2.612  -0.105  0.00  0.00    +0.030 A 
ENDBRANCH  24  25
ENDBRANCH  21  24
ENDBRANCH  19  21
ENDBRANCH  18  19
ENDBRANCH   3  18
TORSDOF 9
