REMARK  Name = ZINCpk00000Ke7mP.0
REMARK                            x       y       z     vdW  Elec       q    Type
REMARK                         _______ _______ _______ _____ _____    ______ ____
ROOT
ATOM      1  N   LIG    1        1.123   3.445   0.010  0.00  0.00    -0.720 N 
ATOM      2  H   LIG    1        0.276   3.919   0.021  0.00  0.00    +0.400 HD
ATOM      3  C   LIG    1        1.141   2.098   0.002  0.00  0.00    +0.720 C 
ATOM      4  N   LIG    1       -0.017   1.408   0.010  0.00  0.00    -0.650 N 
ATOM      5  H   LIG    1       -0.864   1.881   0.016  0.00  0.00    +0.410 HD
ATOM      6  O   LIG    1        2.202   1.504  -0.011  0.00  0.00    -0.580 OA
ENDROOT
BRANCH   4   7
ATOM      7  C   LIG    1        0.002  -0.004   0.002  0.00  0.00    +0.010 A 
ATOM      8  C   LIG    1       -1.081  -0.818   0.013  0.00  0.00    +0.230 A 
ATOM      9  O   LIG    1       -2.400  -0.486   0.017  0.00  0.00    -0.290 OA
ATOM     10  C   LIG    1       -3.295  -1.553  -0.332  0.00  0.00    +0.240 C 
ATOM     11  C   LIG    1       -2.908  -2.814   0.448  0.00  0.00    +0.020 C 
ATOM     12  C   LIG    1       -1.512  -3.276   0.005  0.00  0.00    +0.320 C 
ATOM     13  N   LIG    1       -0.629  -2.106  -0.001  0.00  0.00    -0.400 N 
ATOM     14  N   LIG    1        0.764  -2.072  -0.015  0.00  0.00    -0.270 NA
ATOM     15  C   LIG    1        1.146  -0.817  -0.013  0.00  0.00    +0.290 A 
ENDBRANCH   4   7
BRANCH   1  16
ATOM     16  C   LIG    1        2.381   4.195   0.002  0.00  0.00    +0.280 C 
BRANCH  16  17
ATOM     17  C   LIG    1        2.890   4.338   1.413  0.00  0.00    +0.510 C 
ATOM     18  O   LIG    1        2.262   3.861   2.335  0.00  0.00    -0.530 OA
ATOM     19  N   LIG    1        4.041   4.996   1.651  0.00  0.00    -0.850 N 
ATOM     20  H   LIG    1        4.369   5.088   2.560  0.00  0.00    +0.400 HD
ATOM     21  H   LIG    1        4.543   5.378   0.914  0.00  0.00    +0.400 HD
ENDBRANCH  16  17
BRANCH  16  23
ATOM     22  C   LIG    1        1.628   5.437  -2.031  0.00  0.00    +0.050 C 
ATOM     23  C   LIG    1        2.145   5.582  -0.598  0.00  0.00    +0.040 C 
BRANCH  23  24
ATOM     24  C   LIG    1        3.439   6.353  -0.606  0.00  0.00    -0.090 A 
ATOM     25  C   LIG    1        4.530   5.865  -1.301  0.00  0.00    +0.010 A 
ATOM     26  C   LIG    1        5.716   6.575  -1.312  0.00  0.00    +0.010 A 
ATOM     27  C   LIG    1        5.815   7.768  -0.621  0.00  0.00    +0.010 A 
ATOM     28  C   LIG    1        4.725   8.253   0.078  0.00  0.00    +0.010 A 
ATOM     29  C   LIG    1        3.538   7.546   0.086  0.00  0.00    +0.010 A 
ENDBRANCH  23  24
ENDBRANCH  16  23
ENDBRANCH   1  16
TORSDOF 5
