REMARK  Name = ZINCqH00000098ow.0
REMARK                            x       y       z     vdW  Elec       q    Type
REMARK                         _______ _______ _______ _____ _____    ______ ____
ROOT
ATOM      1  C   LIG    1        1.472  -2.024  -0.023  0.00  0.00    +0.060 C 
ENDROOT
BRANCH   1   4
ATOM      2  N   LIG    1        3.164  -3.829  -0.049  0.00  0.00    -0.730 N 
ATOM      3  H   LIG    1        2.435  -4.469  -0.045  0.00  0.00    +0.400 HD
ATOM      4  C   LIG    1        2.900  -2.507  -0.039  0.00  0.00    +0.510 C 
ATOM      5  O   LIG    1        3.811  -1.707  -0.043  0.00  0.00    -0.530 OA
BRANCH   2   7
ATOM      6  C   LIG    1        5.088  -4.350   1.367  0.00  0.00    +0.040 C 
ATOM      7  C   LIG    1        4.551  -4.298  -0.065  0.00  0.00    +0.280 C 
BRANCH   7   8
ATOM      8  C   LIG    1        4.609  -5.676  -0.673  0.00  0.00    -0.080 A 
ATOM      9  C   LIG    1        3.632  -6.606  -0.371  0.00  0.00    +0.020 A 
ATOM     10  C   LIG    1        3.680  -7.868  -0.933  0.00  0.00    +0.040 A 
ATOM     11  C   LIG    1        4.713  -8.204  -1.789  0.00  0.00    +0.030 A 
ATOM     12  C   LIG    1        5.694  -7.275  -2.087  0.00  0.00    -0.030 A 
ATOM     13 CL   LIG    1        6.991  -7.697  -3.161  0.00  0.00    -0.060 Cl
ATOM     14  C   LIG    1        5.642  -6.011  -1.528  0.00  0.00    +0.040 A 
ENDBRANCH   7   8
ENDBRANCH   2   7
ENDBRANCH   1   4
BRANCH   1  15
ATOM     15  C   LIG    1        1.451  -0.494  -0.015  0.00  0.00    +0.070 C 
BRANCH  15  16
ATOM     16  C   LIG    1        0.002  -0.004   0.002  0.00  0.00    +0.120 C 
BRANCH  16  17
ATOM     17  C   LIG    1       -0.018   1.503   0.010  0.00  0.00    +0.390 A 
ATOM     18  N   LIG    1        1.116   2.134   0.003  0.00  0.00    -0.510 NA
ATOM     19  C   LIG    1        1.176   3.489   0.009  0.00  0.00    +0.150 A 
ATOM     20  C   LIG    1        2.395   4.169   0.002  0.00  0.00    +0.030 A 
ATOM     21  C   LIG    1        2.409   5.546   0.008  0.00  0.00    +0.070 A 
ATOM     22  C   LIG    1        1.224   6.269   0.024  0.00  0.00    -0.010 A 
ATOM     23  C   LIG    1        0.007   5.621   0.031  0.00  0.00    +0.100 A 
ATOM     24  C   LIG    1       -0.028   4.228   0.024  0.00  0.00    -0.200 A 
ATOM     25  C   LIG    1       -1.296   3.482   0.032  0.00  0.00    +0.550 A 
ATOM     26  O   LIG    1       -2.368   4.058   0.045  0.00  0.00    -0.510 OA
ATOM     27  N   LIG    1       -1.223   2.131   0.020  0.00  0.00    -0.650 N 
ATOM     28  H   LIG    1       -2.039   1.606   0.021  0.00  0.00    +0.420 HD
ENDBRANCH  16  17
ENDBRANCH  15  16
ENDBRANCH   1  15
TORSDOF 6
