REMARK  Name = ZINCrH000004os21.0
REMARK                            x       y       z     vdW  Elec       q    Type
REMARK                         _______ _______ _______ _____ _____    ______ ____
ROOT
ATOM      1  C   LIG    1        7.600   7.831  -1.476  0.00  0.00    +0.160 A 
ATOM      2  N   LIG    1        7.648   7.613  -0.195  0.00  0.00    -0.230 NA
ATOM      3  N   LIG    1        6.670   6.850   0.149  0.00  0.00    -0.280 NA
ATOM      4  C   LIG    1        5.958   6.553  -0.911  0.00  0.00    +0.140 A 
ATOM      5  O   LIG    1        6.536   7.163  -1.964  0.00  0.00    -0.200 OA
ENDROOT
BRANCH   1   7
ATOM      6  C   LIG    1        8.285  10.154  -2.010  0.00  0.00    +0.080 C 
ATOM      7  C   LIG    1        8.564   8.672  -2.273  0.00  0.00    +0.300 C 
BRANCH   7   8
ATOM      8  O   LIG    1        9.903   8.363  -1.881  0.00  0.00    -0.290 OA
BRANCH   8   9
ATOM      9  C   LIG    1       10.883   8.602  -2.791  0.00  0.00    +0.090 A 
ATOM     10  C   LIG    1       10.580   9.226  -3.991  0.00  0.00    -0.040 A 
ATOM     11  C   LIG    1       11.579   9.472  -4.914  0.00  0.00    +0.050 A 
ATOM     12  C   LIG    1       12.880   9.087  -4.646  0.00  0.00    +0.020 A 
ATOM     13  C   LIG    1       13.186   8.460  -3.452  0.00  0.00    +0.040 A 
ATOM     14  C   LIG    1       12.191   8.216  -2.523  0.00  0.00    +0.080 A 
ATOM     15  F   LIG    1       12.490   7.603  -1.357  0.00  0.00    -0.130 F 
ENDBRANCH   8   9
ENDBRANCH   7   8
ENDBRANCH   1   7
BRANCH   4  16
ATOM     16  S   LIG    1        4.519   5.538  -0.953  0.00  0.00    +0.110 S 
BRANCH  16  17
ATOM     17  C   LIG    1        4.391   5.103   0.799  0.00  0.00    +0.180 C 
BRANCH  17  18
ATOM     18  C   LIG    1        3.194   4.211   1.009  0.00  0.00    +0.210 A 
ATOM     19  C   LIG    1        3.360   2.860   1.225  0.00  0.00    -0.100 A 
ATOM     20  C   LIG    1        2.235   2.055   1.417  0.00  0.00    +0.530 A 
ATOM     21  N   LIG    1        0.990   2.613   1.388  0.00  0.00    -0.470 N 
ATOM     22  C   LIG    1       -0.210   1.967   1.556  0.00  0.00    +0.240 A 
ATOM     23  C   LIG    1       -1.329   2.667   1.492  0.00  0.00    +0.020 A 
ATOM     24  S   LIG    1       -0.825   4.339   1.193  0.00  0.00    +0.190 S 
ATOM     25  C   LIG    1        0.904   3.955   1.169  0.00  0.00    +0.320 A 
ATOM     26  O   LIG    1        2.365   0.857   1.609  0.00  0.00    -0.510 OA
ATOM     27  N   LIG    1        1.967   4.717   0.988  0.00  0.00    -0.500 NA
ENDBRANCH  17  18
ENDBRANCH  16  17
ENDBRANCH   4  16
TORSDOF 6
