REMARK  Name = ZINCrH000004nHav.0
REMARK                            x       y       z     vdW  Elec       q    Type
REMARK                         _______ _______ _______ _____ _____    ______ ____
ROOT
ATOM      1  C   LIG    1        2.346   1.385  -0.983  0.00  0.00    +0.210 C 
ATOM      2  C   LIG    1        2.311  -0.147  -0.952  0.00  0.00    +0.300 C 
ATOM      3  N   LIG    1        0.904  -0.580  -0.983  0.00  0.00    -0.620 N 
ATOM      4  C   LIG    1       -0.028   0.027  -0.019  0.00  0.00    +0.250 C 
ATOM      5  C   LIG    1        0.122   1.551  -0.096  0.00  0.00    +0.220 C 
ATOM      6  C   LIG    1        0.482  -1.504  -1.868  0.00  0.00    +0.710 C 
ATOM      7  N   LIG    1       -0.783  -1.964  -1.810  0.00  0.00    -0.680 N 
ATOM      8  H   LIG    1       -1.409  -1.584  -1.174  0.00  0.00    +0.410 HD
ATOM      9  O   LIG    1        1.244  -1.924  -2.718  0.00  0.00    -0.560 OA
ATOM     10  O   LIG    1        1.501   1.897   0.050  0.00  0.00    -0.370 OA
ENDROOT
BRANCH   1  16
ATOM     11  C   LIG    1        4.639   1.946  -1.829  0.00  0.00    +0.140 A 
ATOM     12  C   LIG    1        5.937   2.390  -1.622  0.00  0.00    -0.080 A 
ATOM     13  C   LIG    1        6.353   2.734  -0.350  0.00  0.00    +0.060 A 
ATOM     14  C   LIG    1        5.476   2.642   0.714  0.00  0.00    -0.030 A 
ATOM     15  C   LIG    1        4.179   2.206   0.509  0.00  0.00    +0.090 A 
ATOM     16  C   LIG    1        3.759   1.861  -0.760  0.00  0.00    -0.120 A 
BRANCH  11  18
ATOM     17  C   LIG    1        5.189   1.714  -4.130  0.00  0.00    +0.250 C 
ATOM     18  O   LIG    1        4.229   1.601  -3.078  0.00  0.00    -0.320 OA
ENDBRANCH  11  18
ENDBRANCH   1  16
BRANCH   7  19
ATOM     19  C   LIG    1       -1.194  -2.991  -2.668  0.00  0.00    +0.150 A 
ATOM     20  C   LIG    1       -0.697  -3.069  -3.966  0.00  0.00    +0.080 A 
ATOM     21  C   LIG    1       -1.129  -4.106  -4.776  0.00  0.00    +0.050 A 
ATOM     22  C   LIG    1       -2.042  -5.017  -4.277  0.00  0.00    +0.010 A 
ATOM     23  N   LIG    1       -2.498  -4.912  -3.044  0.00  0.00    -0.420 NA
ATOM     24  C   LIG    1       -2.109  -3.944  -2.239  0.00  0.00    +0.250 A 
BRANCH  22  25
ATOM     25  C   LIG    1       -2.522  -6.145  -5.154  0.00  0.00    +0.520 C 
ATOM     26  F   LIG    1       -1.450  -6.994  -5.449  0.00  0.00    -0.170 F 
ATOM     27  F   LIG    1       -3.045  -5.622  -6.341  0.00  0.00    -0.170 F 
ATOM     28  F   LIG    1       -3.516  -6.865  -4.484  0.00  0.00    -0.160 F 
ENDBRANCH  22  25
ENDBRANCH   7  19
TORSDOF 4
