REMARK  Name = ZINCkj000005hmWq.1
REMARK                            x       y       z     vdW  Elec       q    Type
REMARK                         _______ _______ _______ _____ _____    ______ ____
ROOT
ATOM      1  C   LIG    1       -0.024   1.717  -0.189  0.00  0.00    +0.500 C 
ATOM      2  N   LIG    1        0.972   2.581  -0.467  0.00  0.00    -0.590 N 
ATOM      3  C   LIG    1        0.682   3.979  -0.821  0.00  0.00    +0.290 C 
ATOM      4  C   LIG    1        1.537   4.890   0.074  0.00  0.00    +0.190 C 
ATOM      5  N   LIG    1        2.948   4.500  -0.044  0.00  0.00    -0.530 NA
ATOM      6  C   LIG    1        3.166   3.132   0.444  0.00  0.00    +0.190 C 
ATOM      7  C   LIG    1        2.378   2.150  -0.430  0.00  0.00    +0.300 C 
ATOM      8  O   LIG    1        0.225   0.544  -0.003  0.00  0.00    -0.510 OA
ENDROOT
BRANCH   1  14
ATOM      9  C   LIG    1       -1.425   0.595  -1.903  0.00  0.00    +0.330 C 
ATOM     10  N   LIG    1       -2.268   1.515  -1.126  0.00  0.00    -0.380 N 
ATOM     11  C   LIG    1       -3.328   0.752  -0.432  0.00  0.00    +0.270 C 
ATOM     12  C   LIG    1       -3.507   1.473   0.927  0.00  0.00    +0.080 C 
ATOM     13  C   LIG    1       -2.047   1.871   1.267  0.00  0.00    +0.100 C 
ATOM     14  C   LIG    1       -1.447   2.206  -0.115  0.00  0.00    +0.150 C 
ATOM     15  H   LIG    1       -2.687   2.193  -1.744  0.00  0.00    +0.430 HD
ENDBRANCH   1  14
BRANCH   5  16
ATOM     16  C   LIG    1        3.818   5.454   0.657  0.00  0.00    +0.220 C 
ATOM     17  C   LIG    1        5.253   5.071   0.439  0.00  0.00    -0.050 C 
ATOM     18  C   LIG    1        6.155   5.082   1.366  0.00  0.00    -0.030 C 
ATOM     19  C   LIG    1        5.891   5.468   2.792  0.00  0.00    +0.050 C 
ATOM     20  C   LIG    1        4.570   6.233   2.895  0.00  0.00    +0.020 C 
ATOM     21  C   LIG    1        3.490   5.436   2.151  0.00  0.00    -0.020 C 
ENDBRANCH   5  16
TORSDOF 2
