REMARK  Name = ZINCkj000005hmWq.0
REMARK                            x       y       z     vdW  Elec       q    Type
REMARK                         _______ _______ _______ _____ _____    ______ ____
ROOT
ATOM      1  C   LIG    1        1.480  -1.921   0.950  0.00  0.00    +0.510 C 
ATOM      2  N   LIG    1        2.720  -2.448   0.898  0.00  0.00    -0.590 N 
ATOM      3  C   LIG    1        3.830  -1.706   0.283  0.00  0.00    +0.290 C 
ATOM      4  C   LIG    1        5.003  -1.683   1.276  0.00  0.00    +0.190 C 
ATOM      5  N   LIG    1        5.324  -3.059   1.679  0.00  0.00    -0.530 NA
ATOM      6  C   LIG    1        4.200  -3.682   2.392  0.00  0.00    +0.190 C 
ATOM      7  C   LIG    1        2.996  -3.784   1.450  0.00  0.00    +0.300 C 
ATOM      8  O   LIG    1        0.596  -2.508   1.537  0.00  0.00    -0.520 OA
ENDROOT
BRANCH   1  14
ATOM      9  C   LIG    1       -0.435  -0.881  -1.475  0.00  0.00    +0.320 C 
ATOM     10  N   LIG    1       -0.240  -0.504  -0.068  0.00  0.00    -0.380 N 
ATOM     11  C   LIG    1       -0.678   0.889   0.137  0.00  0.00    +0.270 C 
ATOM     12  C   LIG    1        0.541   1.679   0.659  0.00  0.00    +0.080 C 
ATOM     13  C   LIG    1        1.445   0.570   1.259  0.00  0.00    +0.100 C 
ATOM     14  C   LIG    1        1.193  -0.603   0.279  0.00  0.00    +0.160 C 
ATOM     15  H   LIG    1       -0.777  -1.119   0.525  0.00  0.00    +0.430 HD
ENDBRANCH   1  14
BRANCH   5  16
ATOM     16  C   LIG    1        6.548  -3.099   2.490  0.00  0.00    +0.210 C 
ATOM     17  C   LIG    1        6.988  -4.524   2.658  0.00  0.00    -0.050 C 
ATOM     18  C   LIG    1        7.417  -5.025   3.770  0.00  0.00    -0.030 C 
ATOM     19  C   LIG    1        7.521  -4.255   5.053  0.00  0.00    +0.050 C 
ATOM     20  C   LIG    1        7.471  -2.752   4.772  0.00  0.00    +0.020 C 
ATOM     21  C   LIG    1        6.272  -2.470   3.857  0.00  0.00    -0.020 C 
ENDBRANCH   5  16
TORSDOF 2
