REMARK  Name = ZINCpk00000e9m0b.0
REMARK                            x       y       z     vdW  Elec       q    Type
REMARK                         _______ _______ _______ _____ _____    ______ ____
ROOT
ATOM      1  C   LIG    1        4.327   2.145   1.079  0.00  0.00    -0.230 C 
ATOM      2  C   LIG    1        3.660   1.929  -0.075  0.00  0.00    +0.200 C 
ATOM      3  N   LIG    1        3.924   2.670  -1.191  0.00  0.00    -0.640 N 
ATOM      4  H   LIG    1        3.416   2.482  -1.996  0.00  0.00    +0.430 HD
ATOM      5  C   LIG    1        4.843   3.643  -1.237  0.00  0.00    +0.710 C 
ATOM      6  N   LIG    1        5.593   3.971  -0.166  0.00  0.00    -0.710 N 
ATOM      7  H   LIG    1        6.254   4.679  -0.222  0.00  0.00    +0.440 HD
ATOM      8  O   LIG    1        5.007   4.249  -2.278  0.00  0.00    -0.560 OA
ATOM      9  C   LIG    1        5.386   3.230   1.089  0.00  0.00    +0.290 C 
ATOM     10  C   LIG    1        5.010   4.239   2.176  0.00  0.00    +0.040 C 
ENDROOT
BRANCH   1  11
ATOM     11  C   LIG    1        4.051   1.382   2.238  0.00  0.00    +0.540 C 
ATOM     12  O   LIG    1        4.792   0.471   2.557  0.00  0.00    -0.480 OA
BRANCH  11  13
ATOM     13  O   LIG    1        2.967   1.664   2.989  0.00  0.00    -0.340 OA
BRANCH  13  15
ATOM     14  C   LIG    1        1.482   1.320   4.864  0.00  0.00    +0.070 C 
ATOM     15  C   LIG    1        2.749   0.853   4.145  0.00  0.00    +0.200 C 
ENDBRANCH  13  15
ENDBRANCH  11  13
ENDBRANCH   1  11
BRANCH   2  16
ATOM     16  C   LIG    1        2.603   0.856  -0.130  0.00  0.00    +0.290 C 
BRANCH  16  17
ATOM     17  O   LIG    1        1.306   1.466  -0.361  0.00  0.00    -0.350 OA
BRANCH  17  18
ATOM     18  C   LIG    1        0.250   0.642  -0.438  0.00  0.00    +0.460 C 
ATOM     19  O   LIG    1        0.404  -0.550  -0.315  0.00  0.00    -0.490 OA
BRANCH  18  20
ATOM     20  C   LIG    1       -1.128   1.202  -0.682  0.00  0.00    +0.170 C 
BRANCH  20  21
ATOM     21  C   LIG    1       -2.127   0.075  -0.730  0.00  0.00    -0.100 A 
ATOM     22  C   LIG    1       -2.420  -0.537  -1.935  0.00  0.00    +0.060 A 
ATOM     23  C   LIG    1       -3.333  -1.574  -1.979  0.00  0.00    -0.010 A 
ATOM     24  C   LIG    1       -3.962  -1.992  -0.819  0.00  0.00    +0.110 A 
ATOM     25  C   LIG    1       -3.672  -1.374   0.386  0.00  0.00    -0.010 A 
ATOM     26  F   LIG    1       -4.859  -3.002  -0.862  0.00  0.00    -0.140 F 
ATOM     27  C   LIG    1       -2.755  -0.341   0.429  0.00  0.00    +0.060 A 
ENDBRANCH  20  21
ENDBRANCH  18  20
ENDBRANCH  17  18
ENDBRANCH  16  17
ENDBRANCH   2  16
TORSDOF 8
