REMARK  Name = ZINCrD00000F5Lrp.0
REMARK                            x       y       z     vdW  Elec       q    Type
REMARK                         _______ _______ _______ _____ _____    ______ ____
ROOT
ATOM      1  N   LIG    1       -3.797   1.931   0.364  0.00  0.00    -0.560 N 
ATOM      2  C   LIG    1       -4.009   2.457  -0.852  0.00  0.00    +0.710 C 
ATOM      3  N   LIG    1       -4.574   3.674  -0.761  0.00  0.00    -0.660 N 
ATOM      4  H   LIG    1       -4.820   4.246  -1.505  0.00  0.00    +0.440 HD
ATOM      5  C   LIG    1       -4.745   3.966   0.598  0.00  0.00    +0.010 C 
ATOM      6  C   LIG    1       -5.279   5.088   1.138  0.00  0.00    +0.130 C 
ATOM      7  O   LIG    1       -3.726   1.905  -1.898  0.00  0.00    -0.520 OA
ATOM      8  C   LIG    1       -4.224   2.788   1.314  0.00  0.00    +0.560 C 
ATOM      9  O   LIG    1       -4.186   2.623   2.519  0.00  0.00    -0.450 OA
ENDROOT
BRANCH   6  10
ATOM     10  C   LIG    1       -5.224   5.303   2.591  0.00  0.00    -0.090 A 
ATOM     11  C   LIG    1       -6.290   5.924   3.252  0.00  0.00    +0.040 A 
ATOM     12  C   LIG    1       -6.232   6.116   4.616  0.00  0.00    +0.000 A 
ATOM     13  C   LIG    1       -5.119   5.708   5.330  0.00  0.00    +0.020 A 
ATOM     14  C   LIG    1       -4.058   5.098   4.683  0.00  0.00    -0.010 A 
ATOM     15  C   LIG    1       -4.102   4.893   3.321  0.00  0.00    +0.060 A 
ENDBRANCH   6  10
BRANCH   1  16
ATOM     16  C   LIG    1       -3.198   0.620   0.622  0.00  0.00    +0.370 C 
BRANCH  16  19
ATOM     17  N   LIG    1       -0.937  -0.317   0.984  0.00  0.00    -0.670 N 
ATOM     18  H   LIG    1       -1.337  -1.201   0.997  0.00  0.00    +0.410 HD
ATOM     19  C   LIG    1       -1.703   0.766   0.745  0.00  0.00    +0.500 C 
ATOM     20  O   LIG    1       -1.189   1.858   0.628  0.00  0.00    -0.500 OA
BRANCH  17  24
ATOM     21  C   LIG    1        3.151   0.128   1.651  0.00  0.00    -0.090 A 
ATOM     22  C   LIG    1        2.272   1.107   2.076  0.00  0.00    +0.030 A 
ATOM     23  C   LIG    1        0.916   0.963   1.857  0.00  0.00    +0.010 A 
ATOM     24  C   LIG    1        0.436  -0.168   1.208  0.00  0.00    +0.140 A 
ATOM     25  C   LIG    1        1.321  -1.152   0.787  0.00  0.00    -0.010 A 
ATOM     26  C   LIG    1        2.676  -0.999   1.006  0.00  0.00    +0.030 A 
BRANCH  21  28
ATOM     27  C   LIG    1        5.136  -0.871   2.752  0.00  0.00    +0.040 C 
ATOM     28  C   LIG    1        4.630   0.289   1.893  0.00  0.00    +0.020 C 
ATOM     29  C   LIG    1        5.368   0.291   0.553  0.00  0.00    +0.030 C 
ENDBRANCH  21  28
ENDBRANCH  17  24
ENDBRANCH  16  19
ENDBRANCH   1  16
TORSDOF 5
