REMARK  Name = ZINCAx0000000bpX.0
REMARK                            x       y       z     vdW  Elec       q    Type
REMARK                         _______ _______ _______ _____ _____    ______ ____
ROOT
ATOM      1  C   LIG    1       -1.650  -5.780  -3.471  0.00  0.00    +0.170 C 
ATOM      2  C   LIG    1       -2.042  -6.161  -4.828  0.00  0.00    +0.180 C 
ATOM      3  N   LIG    1       -2.730  -7.468  -4.868  0.00  0.00    -0.510 NA
ATOM      4  C   LIG    1       -1.752  -8.525  -4.846  0.00  0.00    +0.170 C 
ATOM      5  C   LIG    1       -1.479  -9.049  -3.417  0.00  0.00    +0.010 C 
ATOM      6  C   LIG    1       -1.428  -7.884  -2.403  0.00  0.00    +0.210 C 
ATOM      7  O   LIG    1       -0.757  -6.757  -2.890  0.00  0.00    -0.370 OA
ENDROOT
BRANCH   1   8
ATOM      8  C   LIG    1       -0.946  -4.422  -3.515  0.00  0.00    +0.290 C 
BRANCH   8  10
ATOM      9  C   LIG    1        0.090  -2.866  -1.954  0.00  0.00    +0.490 C 
ATOM     10  N   LIG    1       -0.549  -4.034  -2.160  0.00  0.00    -0.720 N 
ATOM     11  H   LIG    1       -0.747  -4.617  -1.411  0.00  0.00    +0.410 HD
ATOM     12  O   LIG    1        0.338  -2.136  -2.890  0.00  0.00    -0.520 OA
BRANCH   9  13
ATOM     13  C   LIG    1        0.499  -2.466  -0.559  0.00  0.00    +0.340 C 
BRANCH  13  23
ATOM     14  C   LIG    1        3.539  -2.038  -0.927  0.00  0.00    +0.190 C 
ATOM     15  C   LIG    1        2.506  -0.954  -0.761  0.00  0.00    +0.300 A 
ATOM     16  N   LIG    1        2.761   0.322  -0.751  0.00  0.00    -0.490 NA
ATOM     17  C   LIG    1        1.606   1.017  -0.584  0.00  0.00    +0.050 A 
ATOM     18  C   LIG    1        1.304   2.378  -0.500  0.00  0.00    +0.070 A 
ATOM     19  C   LIG    1        0.009   2.779  -0.325  0.00  0.00    +0.000 A 
ATOM     20  C   LIG    1       -1.013   1.846  -0.228  0.00  0.00    +0.030 A 
ATOM     21  C   LIG    1       -0.738   0.497  -0.307  0.00  0.00    +0.010 A 
ATOM     22  C   LIG    1        0.571   0.071  -0.485  0.00  0.00    +0.060 A 
ATOM     23  N   LIG    1        1.172  -1.166  -0.601  0.00  0.00    -0.480 N 
ENDBRANCH  13  23
ENDBRANCH   9  13
ENDBRANCH   8  10
ENDBRANCH   1   8
BRANCH   3  24
ATOM     24  C   LIG    1       -3.593  -7.573  -6.052  0.00  0.00    +0.220 C 
BRANCH  24  25
ATOM     25  C   LIG    1       -4.252  -8.929  -6.074  0.00  0.00    +0.520 C 
ATOM     26  N   LIG    1       -4.984  -9.304  -7.142  0.00  0.00    -0.580 N 
ATOM     27  O   LIG    1       -4.123  -9.681  -5.132  0.00  0.00    -0.510 OA
BRANCH  26  28
ATOM     28  C   LIG    1       -5.047  -8.444  -8.326  0.00  0.00    +0.200 C 
ATOM     29  C   LIG    1       -6.085  -8.790  -9.396  0.00  0.00    +0.020 C 
ATOM     30  C   LIG    1       -4.599  -9.044  -9.660  0.00  0.00    +0.020 C 
ENDBRANCH  26  28
BRANCH  26  31
ATOM     31  C   LIG    1       -5.715 -10.573  -7.119  0.00  0.00    +0.330 C 
BRANCH  31  32
ATOM     32  C   LIG    1       -7.046 -10.373  -6.441  0.00  0.00    -0.110 A 
ATOM     33  C   LIG    1       -7.137 -10.436  -5.063  0.00  0.00    +0.040 A 
ATOM     34  C   LIG    1       -8.357 -10.247  -4.441  0.00  0.00    +0.000 A 
ATOM     35  C   LIG    1       -9.489 -10.007  -5.198  0.00  0.00    +0.010 A 
ATOM     36  C   LIG    1       -9.399  -9.949  -6.576  0.00  0.00    +0.000 A 
ATOM     37  C   LIG    1       -8.178 -10.133  -7.198  0.00  0.00    +0.010 A 
ENDBRANCH  31  32
ENDBRANCH  26  31
ENDBRANCH  24  25
ENDBRANCH   3  24
TORSDOF 9
