REMARK  Name = ZINCrD000000B6j5.0
REMARK                            x       y       z     vdW  Elec       q    Type
REMARK                         _______ _______ _______ _____ _____    ______ ____
ROOT
ATOM      1  O   LIG    1       -0.638   2.705   3.116  0.00  0.00    -0.590 OA
ATOM      2  C   LIG    1       -0.037   2.238   2.168  0.00  0.00    +0.710 C 
ATOM      3  N   LIG    1       -0.706   1.563   1.212  0.00  0.00    -0.630 N 
ATOM      4  C   LIG    1       -0.014   1.091   0.005  0.00  0.00    +0.260 C 
ATOM      5  C   LIG    1       -0.764   1.602  -1.228  0.00  0.00    +0.020 C 
ATOM      6  C   LIG    1       -2.231   1.175  -1.141  0.00  0.00    -0.010 C 
ATOM      7  C   LIG    1       -2.871   1.794   0.104  0.00  0.00    +0.020 C 
ATOM      8  C   LIG    1       -2.145   1.285   1.353  0.00  0.00    +0.290 C 
ATOM      9  N   LIG    1        1.298   2.394   2.073  0.00  0.00    -0.750 N 
ATOM     10  H   LIG    1        1.768   2.085   1.282  0.00  0.00    +0.400 HD
ENDROOT
BRANCH   6  11
ATOM     11  C   LIG    1       -2.977   1.654  -2.389  0.00  0.00    +0.030 C 
BRANCH  11  12
ATOM     12  C   LIG    1       -4.411   1.122  -2.362  0.00  0.00    +0.080 C 
BRANCH  12  13
ATOM     13  C   LIG    1       -5.145   1.593  -3.591  0.00  0.00    -0.130 A 
ATOM     14  C   LIG    1       -5.923   2.734  -3.535  0.00  0.00    +0.080 A 
ATOM     15  C   LIG    1       -6.593   3.171  -4.663  0.00  0.00    -0.020 A 
ATOM     16  C   LIG    1       -6.493   2.460  -5.846  0.00  0.00    +0.130 A 
ATOM     17  C   LIG    1       -5.718   1.314  -5.902  0.00  0.00    -0.040 A 
ATOM     18  F   LIG    1       -7.151   2.885  -6.947  0.00  0.00    -0.130 F 
ATOM     19  C   LIG    1       -5.043   0.881  -4.774  0.00  0.00    +0.130 A 
ATOM     20  F   LIG    1       -4.287  -0.237  -4.827  0.00  0.00    -0.130 F 
ENDBRANCH  12  13
ENDBRANCH  11  12
ENDBRANCH   6  11
BRANCH   9  21
ATOM     21  C   LIG    1        2.041   3.032   3.163  0.00  0.00    +0.280 C 
BRANCH  21  22
ATOM     22  C   LIG    1        3.527   3.085   2.805  0.00  0.00    +0.100 C 
BRANCH  22  23
ATOM     23  C   LIG    1        4.291   3.740   3.927  0.00  0.00    -0.190 A 
ATOM     24  C   LIG    1        4.494   5.111   3.941  0.00  0.00    +0.330 A 
ATOM     25  N   LIG    1        5.165   5.653   4.945  0.00  0.00    -0.520 NA
ATOM     26  C   LIG    1        5.646   4.904   5.917  0.00  0.00    +0.490 A 
ATOM     27  N   LIG    1        5.476   3.597   5.935  0.00  0.00    -0.520 NA
ATOM     28  C   LIG    1        4.812   2.986   4.967  0.00  0.00    +0.330 A 
ENDBRANCH  22  23
ENDBRANCH  21  22
ENDBRANCH   9  21
TORSDOF 6
