REMARK  Name = ZINCvU0000000Cn9.0
REMARK                            x       y       z     vdW  Elec       q    Type
REMARK                         _______ _______ _______ _____ _____    ______ ____
ROOT
ATOM      1  O   LIG    1        5.109   0.716  -1.893  0.00  0.00    -0.510 OA
ATOM      2  C   LIG    1        4.643  -0.334  -2.283  0.00  0.00    +0.520 C 
ATOM      3  N   LIG    1        4.069  -1.183  -1.408  0.00  0.00    -0.610 N 
ENDROOT
BRANCH   3   4
ATOM      4  C   LIG    1        3.608  -2.498  -1.858  0.00  0.00    +0.230 C 
ATOM      5  C   LIG    1        4.792  -3.305  -2.431  0.00  0.00    +0.010 C 
ATOM      6  C   LIG    1        4.180  -4.080  -3.626  0.00  0.00    +0.020 C 
ATOM      7  C   LIG    1        3.190  -3.052  -4.229  0.00  0.00    +0.000 C 
ATOM      8  C   LIG    1        2.590  -2.338  -3.000  0.00  0.00    +0.020 C 
ENDBRANCH   3   4
BRANCH   3   9
ATOM      9  C   LIG    1        3.905  -0.789  -0.006  0.00  0.00    +0.350 C 
BRANCH   9  10
ATOM     10  C   LIG    1        2.577  -0.099   0.170  0.00  0.00    -0.100 A 
ATOM     11  C   LIG    1        2.505   1.260   0.147  0.00  0.00    +0.050 A 
ATOM     12  C   LIG    1        1.286   1.917   0.308  0.00  0.00    +0.010 A 
ATOM     13  C   LIG    1        0.133   1.218   0.493  0.00  0.00    +0.030 A 
ATOM     14  C   LIG    1        0.168  -0.186   0.522  0.00  0.00    -0.060 A 
ATOM     15  C   LIG    1       -1.002  -0.942   0.710  0.00  0.00    +0.030 A 
ATOM     16  C   LIG    1       -0.930  -2.301   0.733  0.00  0.00    +0.000 A 
ATOM     17  C   LIG    1        0.289  -2.957   0.572  0.00  0.00    +0.010 A 
ATOM     18  C   LIG    1        1.442  -2.258   0.388  0.00  0.00    +0.010 A 
ATOM     19  C   LIG    1        1.407  -0.854   0.359  0.00  0.00    -0.030 A 
ENDBRANCH   9  10
ENDBRANCH   3   9
BRANCH   2  20
ATOM     20  C   LIG    1        4.705  -0.689  -3.746  0.00  0.00    +0.150 C 
BRANCH  20  21
ATOM     21  C   LIG    1        5.532   0.338  -4.477  0.00  0.00    +0.080 A 
ATOM     22  C   LIG    1        6.588  -0.002  -5.225  0.00  0.00    -0.060 A 
ATOM     23  S   LIG    1        7.277   1.471  -5.906  0.00  0.00    +0.100 S 
ATOM     24  C   LIG    1        6.037   2.421  -5.091  0.00  0.00    +0.110 A 
ATOM     25  N   LIG    1        5.256   1.619  -4.425  0.00  0.00    -0.400 NA
BRANCH  24  26
ATOM     26  C   LIG    1        5.901   3.892  -5.157  0.00  0.00    +0.190 A 
ATOM     27  C   LIG    1        6.808   4.638  -5.910  0.00  0.00    -0.010 A 
ATOM     28  C   LIG    1        6.664   6.013  -5.967  0.00  0.00    +0.070 A 
ATOM     29  C   LIG    1        5.625   6.600  -5.260  0.00  0.00    -0.020 A 
ATOM     30  C   LIG    1        4.764   5.801  -4.529  0.00  0.00    +0.270 A 
ATOM     31  N   LIG    1        4.919   4.494  -4.495  0.00  0.00    -0.440 NA
ENDBRANCH  24  26
ENDBRANCH  20  21
ENDBRANCH   2  20
TORSDOF 6
