REMARK  Name = ZINCqH0000051Lvw.0
REMARK                            x       y       z     vdW  Elec       q    Type
REMARK                         _______ _______ _______ _____ _____    ______ ____
ROOT
ATOM      1  C   LIG    1        5.710  -1.958   0.223  0.00  0.00    +0.170 A 
ATOM      2  N   LIG    1        5.213  -1.122  -0.657  0.00  0.00    -0.450 NA
ATOM      3  C   LIG    1        5.358   0.101  -0.116  0.00  0.00    +0.180 A 
ATOM      4  N   LIG    1        5.930  -0.050   1.041  0.00  0.00    -0.370 NA
ATOM      5  O   LIG    1        6.136  -1.226   1.257  0.00  0.00    +0.090 OA
ENDROOT
BRANCH   1   6
ATOM      6  C   LIG    1        5.787  -3.457   0.092  0.00  0.00    +0.330 C 
BRANCH   6  14
ATOM      7  C   LIG    1       10.956  -4.760   0.811  0.00  0.00    +0.080 A 
ATOM      8  C   LIG    1       10.029  -4.455   1.798  0.00  0.00    -0.010 A 
ATOM      9  C   LIG    1        8.741  -4.140   1.467  0.00  0.00    +0.100 A 
ATOM     10  C   LIG    1        8.354  -4.124   0.126  0.00  0.00    -0.190 A 
ATOM     11  C   LIG    1        9.289  -4.432  -0.877  0.00  0.00    +0.080 A 
ATOM     12  O   LIG    1        8.647  -4.340  -2.059  0.00  0.00    -0.080 OA
ATOM     13  N   LIG    1        7.299  -3.980  -1.833  0.00  0.00    -0.260 NA
ATOM     14  C   LIG    1        7.090  -3.838  -0.561  0.00  0.00    +0.120 A 
ATOM     15  C   LIG    1       10.593  -4.750  -0.519  0.00  0.00    +0.020 A 
ENDBRANCH   6  14
ENDBRANCH   1   6
BRANCH   3  16
ATOM     16  C   LIG    1        4.940   1.408  -0.741  0.00  0.00    +0.270 C 
BRANCH  16  17
ATOM     17  C   LIG    1        3.523   1.726  -0.339  0.00  0.00    +0.070 A 
ATOM     18  N   LIG    1        2.486   0.945  -0.502  0.00  0.00    -0.280 NA
ATOM     19  N   LIG    1        1.357   1.606  -0.002  0.00  0.00    -0.360 N 
ATOM     20  C   LIG    1        1.754   2.804   0.474  0.00  0.00    +0.230 A 
ATOM     21  C   LIG    1        3.090   2.904   0.278  0.00  0.00    -0.110 A 
BRANCH  19  22
ATOM     22  C   LIG    1       -0.013   1.086   0.008  0.00  0.00    +0.260 C 
ATOM     23  C   LIG    1       -0.763   1.597   1.255  0.00  0.00    +0.030 C 
ATOM     24  C   LIG    1       -1.531   2.845   0.750  0.00  0.00    +0.020 C 
ATOM     25  C   LIG    1       -1.978   2.421  -0.670  0.00  0.00    +0.020 C 
ATOM     26  C   LIG    1       -0.784   1.609  -1.216  0.00  0.00    +0.010 C 
ENDBRANCH  19  22
ENDBRANCH  16  17
ENDBRANCH   3  16
TORSDOF 5
