REMARK  Name = ZINCrD00000fMTQ8.0
REMARK                            x       y       z     vdW  Elec       q    Type
REMARK                         _______ _______ _______ _____ _____    ______ ____
ROOT
ATOM      1  C   LIG    1        2.907   1.496   3.725  0.00  0.00    -0.060 A 
ATOM      2  C   LIG    1        3.946   1.544   4.605  0.00  0.00    +0.080 A 
ATOM      3  C   LIG    1        4.825   2.730   4.905  0.00  0.00    +0.150 C 
ATOM      4  C   LIG    1        6.195   2.233   5.375  0.00  0.00    +0.020 C 
ATOM      5  C   LIG    1        6.173   2.028   6.888  0.00  0.00    +0.010 C 
ATOM      6  C   LIG    1        5.132   0.977   7.269  0.00  0.00    +0.020 C 
ATOM      7  C   LIG    1        5.042  -0.085   6.170  0.00  0.00    +0.300 C 
ATOM      8  N   LIG    1        4.043   0.322   5.179  0.00  0.00    -0.440 N 
ATOM      9  C   LIG    1        3.050  -0.456   4.655  0.00  0.00    +0.240 A 
ATOM     10  N   LIG    1        2.373   0.257   3.786  0.00  0.00    -0.440 NA
ENDROOT
BRANCH   1  12
ATOM     11  O   LIG    1        3.006   3.678   2.905  0.00  0.00    -0.540 OA
ATOM     12  C   LIG    1        2.444   2.600   2.866  0.00  0.00    +0.620 C 
ATOM     13  N   LIG    1        1.398   2.415   2.037  0.00  0.00    -0.610 N 
ATOM     14  C   LIG    1        0.839   3.430   1.131  0.00  0.00    +0.250 C 
ATOM     15  C   LIG    1       -0.339   2.776   0.396  0.00  0.00    -0.010 C 
ATOM     16  C   LIG    1       -0.488   3.276  -1.012  0.00  0.00    +0.010 C 
ATOM     17  C   LIG    1        0.406   2.586  -2.024  0.00  0.00    +0.210 C 
ATOM     18  O   LIG    1        0.393   1.173  -1.834  0.00  0.00    -0.380 OA
ATOM     19  C   LIG    1        0.869   0.774  -0.549  0.00  0.00    +0.220 C 
ATOM     20  C   LIG    1       -0.096   1.270   0.530  0.00  0.00    -0.030 C 
ATOM     21  C   LIG    1        0.634   1.167   1.893  0.00  0.00    +0.280 C 
ENDBRANCH   1  12
BRANCH   9  22
ATOM     22  C   LIG    1        2.779  -1.865   5.014  0.00  0.00    -0.010 A 
ATOM     23  C   LIG    1        3.827  -2.708   5.385  0.00  0.00    +0.000 A 
ATOM     24  C   LIG    1        3.567  -4.020   5.724  0.00  0.00    +0.010 A 
ATOM     25  C   LIG    1        2.271  -4.503   5.685  0.00  0.00    +0.020 A 
ATOM     26  C   LIG    1        1.228  -3.674   5.312  0.00  0.00    +0.010 A 
ATOM     27  C   LIG    1        1.474  -2.359   4.977  0.00  0.00    +0.050 A 
ENDBRANCH   9  22
TORSDOF 2
