REMARK  Name = ZINCrH00000tj1gW.0
REMARK                            x       y       z     vdW  Elec       q    Type
REMARK                         _______ _______ _______ _____ _____    ______ ____
ROOT
ATOM      1  O   LIG    1       -2.239   1.496   0.021  0.00  0.00    -0.530 OA
ATOM      2  C   LIG    1       -1.194   2.119   0.019  0.00  0.00    +0.590 C 
ATOM      3  N   LIG    1       -0.018   1.461   0.010  0.00  0.00    -0.730 N 
ATOM      4  H   LIG    1        0.816   1.957   0.005  0.00  0.00    +0.400 HD
ENDROOT
BRANCH   2   5
ATOM      5  C   LIG    1       -1.214   3.591   0.027  0.00  0.00    -0.290 A 
ATOM      6  C   LIG    1       -0.121   4.433   0.033  0.00  0.00    +0.300 A 
ATOM      7  N   LIG    1       -0.573   5.696   0.036  0.00  0.00    -0.460 N 
ATOM      8  H   LIG    1       -0.015   6.489   0.037  0.00  0.00    +0.450 HD
ATOM      9  N   LIG    1       -1.970   5.695   0.042  0.00  0.00    -0.280 NA
ATOM     10  C   LIG    1       -2.400   4.454   0.038  0.00  0.00    +0.180 A 
BRANCH  10  11
ATOM     11  C   LIG    1       -3.814   4.009   0.043  0.00  0.00    -0.050 A 
ATOM     12  C   LIG    1       -4.189   2.863  -0.657  0.00  0.00    +0.130 A 
ATOM     13  C   LIG    1       -5.505   2.450  -0.645  0.00  0.00    -0.020 A 
ATOM     14  C   LIG    1       -6.456   3.178   0.052  0.00  0.00    +0.110 A 
ATOM     15  C   LIG    1       -6.089   4.321   0.745  0.00  0.00    -0.030 A 
ATOM     16  F   LIG    1       -7.745   2.773   0.057  0.00  0.00    -0.140 F 
ATOM     17  C   LIG    1       -4.774   4.738   0.743  0.00  0.00    +0.070 A 
ENDBRANCH  10  11
ENDBRANCH   2   5
BRANCH   3  18
ATOM     18  C   LIG    1        0.002  -0.004   0.002  0.00  0.00    +0.270 C 
BRANCH  18  19
ATOM     19  C   LIG    1        1.451  -0.494  -0.015  0.00  0.00    -0.040 C 
ATOM     20  C   LIG    1        2.123  -0.154  -1.364  0.00  0.00    +0.010 C 
ATOM     21  C   LIG    1        2.498  -1.536  -1.952  0.00  0.00    +0.200 C 
ATOM     22  O   LIG    1        2.600  -2.409  -0.806  0.00  0.00    -0.360 OA
ATOM     23  C   LIG    1        1.502  -2.037   0.055  0.00  0.00    +0.210 C 
BRANCH  23  24
ATOM     24  C   LIG    1        1.766  -2.490   1.468  0.00  0.00    -0.090 A 
ATOM     25  C   LIG    1        3.054  -2.477   1.968  0.00  0.00    +0.040 A 
ATOM     26  C   LIG    1        3.296  -2.888   3.266  0.00  0.00    +0.000 A 
ATOM     27  C   LIG    1        2.251  -3.322   4.059  0.00  0.00    +0.000 A 
ATOM     28  C   LIG    1        0.963  -3.341   3.557  0.00  0.00    +0.000 A 
ATOM     29  C   LIG    1        0.721  -2.925   2.261  0.00  0.00    +0.010 A 
ENDBRANCH  23  24
ENDBRANCH  18  19
ENDBRANCH   3  18
TORSDOF 5
