REMARK  Name = ZINCpk000005crtz.0
REMARK                            x       y       z     vdW  Elec       q    Type
REMARK                         _______ _______ _______ _____ _____    ______ ____
ROOT
ATOM      1  C   LIG    1        0.052  -3.483  -1.560  0.00  0.00    +0.000 C 
ATOM      2  C   LIG    1        0.966  -4.083  -2.631  0.00  0.00    +0.040 C 
ATOM      3  C   LIG    1        1.495  -5.436  -2.145  0.00  0.00    +0.280 C 
ATOM      4  N   LIG    1        0.354  -6.287  -1.780  0.00  0.00    -0.600 N 
ATOM      5  C   LIG    1       -0.636  -5.769  -0.825  0.00  0.00    +0.260 C 
ATOM      6  C   LIG    1        0.219  -7.519  -2.310  0.00  0.00    +0.560 C 
ATOM      7  O   LIG    1        1.062  -7.948  -3.073  0.00  0.00    -0.520 OA
ATOM      8  C   LIG    1       -1.141  -4.413  -1.326  0.00  0.00    +0.020 C 
ENDROOT
BRANCH   6   9
ATOM      9  C   LIG    1       -0.956  -8.347  -1.963  0.00  0.00    -0.070 A 
ATOM     10  C   LIG    1       -1.531  -8.251  -0.696  0.00  0.00    +0.020 A 
ATOM     11  C   LIG    1       -2.632  -9.024  -0.379  0.00  0.00    +0.130 A 
ATOM     12  C   LIG    1       -3.157  -9.902  -1.313  0.00  0.00    -0.010 A 
ATOM     13  C   LIG    1       -2.586 -10.006  -2.571  0.00  0.00    +0.130 A 
ATOM     14  F   LIG    1       -3.104 -10.864  -3.477  0.00  0.00    -0.120 F 
ATOM     15  F   LIG    1       -3.193  -8.928   0.847  0.00  0.00    -0.120 F 
ATOM     16  C   LIG    1       -1.489  -9.233  -2.901  0.00  0.00    +0.040 A 
ENDBRANCH   6   9
BRANCH   1  17
ATOM     17  C   LIG    1       -0.452  -2.116  -2.028  0.00  0.00    +0.210 C 
BRANCH  17  19
ATOM     18  C   LIG    1        1.267  -0.913  -0.818  0.00  0.00    +0.240 C 
ATOM     19  N   LIG    1        0.682  -1.188  -2.137  0.00  0.00    -0.470 N 
BRANCH  19  20
ATOM     20  C   LIG    1        0.304  -0.015  -2.766  0.00  0.00    +0.410 A 
ATOM     21  N   LIG    1       -0.634   0.817  -2.369  0.00  0.00    -0.350 NA
ATOM     22  N   LIG    1       -0.731   1.806  -3.182  0.00  0.00    -0.030 NA
ATOM     23  N   LIG    1        0.122   1.683  -4.141  0.00  0.00    -0.080 NA
ATOM     24  N   LIG    1        0.829   0.491  -3.906  0.00  0.00    -0.360 N 
ATOM     25  C   LIG    1        1.903  -0.081  -4.721  0.00  0.00    +0.390 C 
ENDBRANCH  19  20
ENDBRANCH  17  19
ENDBRANCH   1  17
TORSDOF 4
