REMARK  Name = ZINCrD00000hQ6QA.1
REMARK                            x       y       z     vdW  Elec       q    Type
REMARK                         _______ _______ _______ _____ _____    ______ ____
ROOT
ATOM      1  C   LIG    1        0.569   0.574   8.314  0.00  0.00    +0.160 C 
ATOM      2  C   LIG    1        0.188   1.802   7.529  0.00  0.00    +0.130 A 
ATOM      3  N   LIG    1       -0.202   1.817   6.279  0.00  0.00    -0.320 NA
ATOM      4  N   LIG    1       -0.469   3.136   5.895  0.00  0.00    -0.320 N 
ATOM      5  C   LIG    1       -0.227   3.947   6.972  0.00  0.00    +0.300 A 
ATOM      6  N   LIG    1       -0.405   5.266   6.883  0.00  0.00    -0.480 NA
ATOM      7  C   LIG    1       -0.815   5.839   5.763  0.00  0.00    +0.230 A 
ATOM      8  C   LIG    1       -0.994   7.335   5.761  0.00  0.00    +0.110 C 
ATOM      9  C   LIG    1       -1.036   7.867   4.330  0.00  0.00    +0.030 C 
ATOM     10  C   LIG    1       -2.071   7.058   3.540  0.00  0.00    +0.030 C 
ATOM     11  C   LIG    1       -1.526   5.646   3.333  0.00  0.00    +0.110 C 
ATOM     12  C   LIG    1       -1.065   5.061   4.640  0.00  0.00    -0.200 A 
ATOM     13  C   LIG    1       -0.894   3.689   4.719  0.00  0.00    +0.450 A 
ATOM     14  C   LIG    1        0.191   3.114   8.018  0.00  0.00    -0.220 A 
ENDROOT
BRANCH  13  15
ATOM     15  N   LIG    1       -1.145   2.892   3.623  0.00  0.00    -0.640 N 
ATOM     16  C   LIG    1       -2.228   1.898   3.645  0.00  0.00    +0.300 C 
ATOM     17  C   LIG    1       -1.658   0.546   3.201  0.00  0.00    +0.170 C 
ATOM     18  N   LIG    1       -0.986   0.704   1.905  0.00  0.00    -0.540 NA
ATOM     19  C   LIG    1        0.160   1.617   2.006  0.00  0.00    +0.170 C 
ATOM     20  C   LIG    1       -0.576  -0.598   1.362  0.00  0.00    +0.200 C 
ATOM     21  C   LIG    1       -0.336   3.013   2.401  0.00  0.00    +0.300 C 
ENDBRANCH  13  15
BRANCH  14  22
ATOM     22  C   LIG    1        0.567   3.542   9.385  0.00  0.00    +0.020 A 
ATOM     23  C   LIG    1        1.693   4.342   9.584  0.00  0.00    +0.020 A 
ATOM     24  C   LIG    1        2.035   4.742  10.859  0.00  0.00    +0.000 A 
ATOM     25  C   LIG    1        1.270   4.342  11.941  0.00  0.00    +0.000 A 
ATOM     26  C   LIG    1        0.156   3.544  11.751  0.00  0.00    +0.000 A 
ATOM     27  C   LIG    1       -0.200   3.142  10.479  0.00  0.00    +0.010 A 
ENDBRANCH  14  22
TORSDOF 2
