REMARK  Name = ZINCnE000001Qsvk.0
REMARK                            x       y       z     vdW  Elec       q    Type
REMARK                         _______ _______ _______ _____ _____    ______ ____
ROOT
ATOM      1  C   LIG    1        1.329   1.809   0.005  0.00  0.00    +0.550 C 
ATOM      2  N   LIG    1        2.314   1.256  -0.730  0.00  0.00    -0.690 N 
ATOM      3  H   LIG    1        2.148   0.441  -1.230  0.00  0.00    +0.400 HD
ATOM      4  O   LIG    1        1.562   2.775   0.701  0.00  0.00    -0.550 OA
ENDROOT
BRANCH   1   7
ATOM      5  C   LIG    1       -1.135   1.901   0.818  0.00  0.00    +0.080 C 
ATOM      6  C   LIG    1       -1.155   2.062  -0.704  0.00  0.00    +0.070 C 
ATOM      7  C   LIG    1       -0.060   1.227  -0.037  0.00  0.00    -0.050 C 
BRANCH   5  10
ATOM      8  C   LIG    1       -1.612   1.645   3.783  0.00  0.00    +0.100 C 
ATOM      9  C   LIG    1       -2.409   0.892   2.749  0.00  0.00    -0.110 A 
ATOM     10  C   LIG    1       -2.185   1.017   1.440  0.00  0.00    -0.140 A 
ATOM     11  S   LIG    1       -3.298  -0.014   0.550  0.00  0.00    +0.100 S 
ATOM     12  C   LIG    1       -4.031  -0.568   2.050  0.00  0.00    -0.060 A 
ATOM     13  C   LIG    1       -3.431   0.022   3.086  0.00  0.00    +0.010 A 
ENDBRANCH   5  10
ENDBRANCH   1   7
BRANCH   2  14
ATOM     14  C   LIG    1        3.636   1.885  -0.776  0.00  0.00    +0.310 C 
BRANCH  14  15
ATOM     15  C   LIG    1        4.464   1.400   0.387  0.00  0.00    -0.080 A 
ATOM     16  C   LIG    1        4.402   0.075   0.774  0.00  0.00    +0.010 A 
ATOM     17  C   LIG    1        5.165  -0.371   1.837  0.00  0.00    +0.000 A 
ATOM     18  C   LIG    1        5.981   0.511   2.520  0.00  0.00    -0.010 A 
ATOM     19  C   LIG    1        6.039   1.838   2.136  0.00  0.00    +0.000 A 
ATOM     20  C   LIG    1        5.281   2.282   1.069  0.00  0.00    +0.010 A 
ENDBRANCH  14  15
BRANCH  14  21
ATOM     21  C   LIG    1        4.333   1.515  -2.087  0.00  0.00    -0.060 C 
BRANCH  21  22
ATOM     22  C   LIG    1        3.579   2.118  -3.244  0.00  0.00    +0.490 C 
ATOM     23  O   LIG    1        4.014   2.010  -4.378  0.00  0.00    -0.700 OA
ATOM     24  O   LIG    1        2.533   2.713  -3.046  0.00  0.00    -0.680 OA
ENDBRANCH  21  22
ENDBRANCH  14  21
ENDBRANCH   2  14
TORSDOF 6
