REMARK  Name = ZINCpe000000ZuUK.0
REMARK                            x       y       z     vdW  Elec       q    Type
REMARK                         _______ _______ _______ _____ _____    ______ ____
ROOT
ATOM      1  O   LIG    1       -3.227  -1.669   3.232  0.00  0.00    -0.530 OA
ATOM      2  C   LIG    1       -3.610  -2.190   2.202  0.00  0.00    +0.570 C 
ATOM      3  N   LIG    1       -2.844  -2.137   1.094  0.00  0.00    -0.600 N 
ATOM      4  C   LIG    1       -3.240  -2.857  -0.124  0.00  0.00    +0.260 C 
ATOM      5  C   LIG    1       -2.077  -3.749  -0.570  0.00  0.00    +0.030 C 
ATOM      6  C   LIG    1       -0.815  -2.896  -0.724  0.00  0.00    +0.020 C 
ATOM      7  C   LIG    1       -0.454  -2.268   0.623  0.00  0.00    +0.260 C 
ATOM      8  C   LIG    1       -1.598  -1.359   1.082  0.00  0.00    +0.290 C 
ENDROOT
BRANCH   7   9
ATOM      9  N   LIG    1        0.771  -1.477   0.481  0.00  0.00    -0.630 N 
ATOM     10  C   LIG    1        2.024  -1.707   1.216  0.00  0.00    +0.250 C 
ATOM     11  C   LIG    1        2.968  -0.608   0.691  0.00  0.00    +0.250 C 
ATOM     12  N   LIG    1        2.147   0.125  -0.284  0.00  0.00    -0.740 N 
ATOM     13  H   LIG    1        2.440   0.889  -0.805  0.00  0.00    +0.430 HD
ATOM     14  C   LIG    1        0.929  -0.430  -0.339  0.00  0.00    +0.700 C 
ATOM     15  O   LIG    1        0.047  -0.023  -1.070  0.00  0.00    -0.580 OA
ENDBRANCH   7   9
BRANCH   2  16
ATOM     16  C   LIG    1       -4.915  -2.882   2.166  0.00  0.00    -0.200 A 
ATOM     17  C   LIG    1       -5.339  -3.659   3.253  0.00  0.00    +0.150 A 
ATOM     18  C   LIG    1       -6.569  -4.281   3.174  0.00  0.00    -0.010 A 
ATOM     19  C   LIG    1       -7.335  -4.128   2.023  0.00  0.00    +0.400 A 
ATOM     20  N   LIG    1       -6.904  -3.391   1.010  0.00  0.00    -0.510 NA
ATOM     21  C   LIG    1       -5.741  -2.776   1.046  0.00  0.00    +0.350 A 
BRANCH  19  22
ATOM     22  N   LIG    1       -8.577  -4.758   1.935  0.00  0.00    -0.330 N 
ATOM     23  C   LIG    1       -9.434  -4.695   0.883  0.00  0.00    +0.270 A 
ATOM     24  C   LIG    1      -10.517  -5.444   1.192  0.00  0.00    -0.100 A 
ATOM     25  C   LIG    1      -10.324  -5.974   2.473  0.00  0.00    +0.270 A 
ATOM     26  N   LIG    1       -9.165  -5.564   2.919  0.00  0.00    -0.280 NA
ENDBRANCH  19  22
ENDBRANCH   2  16
TORSDOF 3
