REMARK  Name = ZINCpk00000KfLry.0
REMARK                            x       y       z     vdW  Elec       q    Type
REMARK                         _______ _______ _______ _____ _____    ______ ____
ROOT
ATOM      1  N   LIG    1       -1.540   3.156   0.300  0.00  0.00    -0.530 N 
ATOM      2  C   LIG    1       -2.699   2.469   0.267  0.00  0.00    +0.550 C 
ATOM      3  C   LIG    1       -2.334   1.025   0.072  0.00  0.00    +0.210 C 
ATOM      4  C   LIG    1       -0.837   1.001  -0.013  0.00  0.00    -0.140 A 
ATOM      5  C   LIG    1        0.091  -0.001  -0.188  0.00  0.00    +0.100 A 
ATOM      6  C   LIG    1        1.440   0.302  -0.227  0.00  0.00    +0.000 A 
ATOM      7  C   LIG    1        1.855   1.613  -0.086  0.00  0.00    +0.080 A 
ATOM      8  C   LIG    1        0.930   2.621   0.093  0.00  0.00    -0.010 A 
ATOM      9  S   LIG    1       -2.922   0.013   1.478  0.00  0.00    -0.160 S 
ATOM     10  C   LIG    1       -4.402  -0.604   0.576  0.00  0.00    +0.180 C 
ATOM     11  C   LIG    1       -4.008  -0.389  -0.873  0.00  0.00    +0.520 C 
ATOM     12  O   LIG    1       -4.597  -0.932  -1.783  0.00  0.00    -0.490 OA
ATOM     13  N   LIG    1       -2.980   0.429  -1.090  0.00  0.00    -0.540 N 
ATOM     14  O   LIG    1       -3.817   2.925   0.381  0.00  0.00    -0.460 OA
ATOM     15  C   LIG    1       -0.430   2.325   0.134  0.00  0.00    +0.170 A 
ENDROOT
BRANCH  13  16
ATOM     16  C   LIG    1       -2.536   0.707  -2.387  0.00  0.00    +0.130 A 
ATOM     17  C   LIG    1       -2.992   1.839  -3.051  0.00  0.00    +0.030 A 
ATOM     18  C   LIG    1       -2.548   2.114  -4.330  0.00  0.00    +0.030 A 
ATOM     19  C   LIG    1       -1.660   1.257  -4.954  0.00  0.00    +0.020 A 
ATOM     20  C   LIG    1       -1.208   0.126  -4.298  0.00  0.00    +0.020 A 
ATOM     21  C   LIG    1       -1.644  -0.151  -3.017  0.00  0.00    +0.030 A 
ENDBRANCH  13  16
BRANCH   1  22
ATOM     22  C   LIG    1       -1.456   4.609   0.474  0.00  0.00    +0.340 C 
BRANCH  22  26
ATOM     23  N   LIG    1       -1.446   6.623  -0.962  0.00  0.00    -0.850 N 
ATOM     24  H   LIG    1       -1.480   7.054  -1.830  0.00  0.00    +0.410 HD
ATOM     25  H   LIG    1       -1.368   7.158  -0.157  0.00  0.00    +0.400 HD
ATOM     26  C   LIG    1       -1.508   5.279  -0.875  0.00  0.00    +0.500 C 
ATOM     27  O   LIG    1       -1.607   4.610  -1.882  0.00  0.00    -0.520 OA
ENDBRANCH  22  26
ENDBRANCH   1  22
TORSDOF 3
