REMARK  Name = ZINCrH000004nFoV.0
REMARK                            x       y       z     vdW  Elec       q    Type
REMARK                         _______ _______ _______ _____ _____    ______ ____
ROOT
ATOM      1  C   LIG    1       -2.429   4.482   8.609  0.00  0.00    +0.280 C 
ATOM      2  C   LIG    1       -3.818   4.387   9.275  0.00  0.00    +0.050 C 
ATOM      3  C   LIG    1       -4.724   3.880   8.123  0.00  0.00    +0.040 C 
ATOM      4  C   LIG    1       -3.761   2.934   7.363  0.00  0.00    +0.270 C 
ATOM      5  N   LIG    1       -2.446   3.596   7.436  0.00  0.00    -0.600 N 
ATOM      6  C   LIG    1       -1.427   3.415   6.573  0.00  0.00    +0.620 C 
ATOM      7  O   LIG    1       -0.382   4.017   6.731  0.00  0.00    -0.530 OA
ENDROOT
BRANCH   1  13
ATOM      8  C   LIG    1       -0.895   4.905  10.547  0.00  0.00    +0.140 A 
ATOM      9  C   LIG    1        0.087   4.488  11.434  0.00  0.00    -0.080 A 
ATOM     10  C   LIG    1        0.596   3.207  11.347  0.00  0.00    +0.040 A 
ATOM     11  C   LIG    1        0.128   2.340  10.377  0.00  0.00    -0.030 A 
ATOM     12  C   LIG    1       -0.854   2.751   9.495  0.00  0.00    +0.060 A 
ATOM     13  C   LIG    1       -1.363   4.033   9.574  0.00  0.00    -0.110 A 
BRANCH   8  15
ATOM     14  C   LIG    1       -0.869   7.008  11.656  0.00  0.00    +0.250 C 
ATOM     15  O   LIG    1       -1.397   6.165  10.630  0.00  0.00    -0.310 OA
ENDBRANCH   8  15
ENDBRANCH   1  13
BRANCH   6  16
ATOM     16  C   LIG    1       -1.579   2.487   5.436  0.00  0.00    -0.110 A 
ATOM     17  C   LIG    1       -0.625   2.212   4.497  0.00  0.00    +0.130 A 
ATOM     18  N   LIG    1       -1.166   1.323   3.641  0.00  0.00    -0.360 N 
ATOM     19  N   LIG    1       -2.467   1.063   4.093  0.00  0.00    -0.060 NA
ATOM     20  C   LIG    1        0.763   2.794   4.430  0.00  0.00    +0.180 C 
ATOM     21  N   LIG    1       -2.676   1.766   5.152  0.00  0.00    -0.200 NA
BRANCH  18  22
ATOM     22  C   LIG    1       -0.516   0.735   2.466  0.00  0.00    +0.340 C 
BRANCH  22  23
ATOM     23  C   LIG    1       -0.789   1.611   1.242  0.00  0.00    -0.030 C 
ATOM     24  C   LIG    1       -0.013   1.086   0.008  0.00  0.00    +0.030 C 
ATOM     25  C   LIG    1       -0.809   1.622  -1.200  0.00  0.00    +0.020 C 
ATOM     26  C   LIG    1       -2.243   1.875  -0.703  0.00  0.00    +0.000 C 
ATOM     27  C   LIG    1       -2.268   1.485   0.789  0.00  0.00    +0.010 C 
ENDBRANCH  22  23
ENDBRANCH  18  22
ENDBRANCH   6  16
TORSDOF 5
