REMARK  Name = ZINCvU0000000FAx.0
REMARK                            x       y       z     vdW  Elec       q    Type
REMARK                         _______ _______ _______ _____ _____    ______ ____
ROOT
ATOM      1  C   LIG    1        2.998  -1.168  -4.485  0.00  0.00    +0.170 C 
ATOM      2  C   LIG    1        3.113  -0.175  -3.358  0.00  0.00    +0.140 A 
ATOM      3  N   LIG    1        2.587  -0.303  -2.177  0.00  0.00    -0.260 NA
ATOM      4  N   LIG    1        2.903   0.817  -1.403  0.00  0.00    -0.340 N 
ATOM      5  C   LIG    1        3.670   1.656  -2.162  0.00  0.00    +0.030 A 
ATOM      6  S   LIG    1        4.517   3.197  -2.126  0.00  0.00    +0.230 S 
ATOM      7  C   LIG    1        5.052   2.993  -3.786  0.00  0.00    -0.270 A 
ATOM      8  C   LIG    1        4.598   1.833  -4.285  0.00  0.00    +0.200 A 
ATOM      9  C   LIG    1        3.825   1.065  -3.406  0.00  0.00    -0.230 A 
ENDROOT
BRANCH   7  10
ATOM     10  C   LIG    1        5.876   3.954  -4.521  0.00  0.00    +0.550 C 
ATOM     11  O   LIG    1        6.198   3.724  -5.672  0.00  0.00    -0.500 OA
BRANCH  10  12
ATOM     12  O   LIG    1        6.279   5.094  -3.924  0.00  0.00    -0.350 OA
BRANCH  12  13
ATOM     13  C   LIG    1        7.094   6.000  -4.713  0.00  0.00    +0.230 C 
BRANCH  13  14
ATOM     14  C   LIG    1        7.452   7.228  -3.874  0.00  0.00    +0.050 C 
BRANCH  14  15
ATOM     15  C   LIG    1        8.311   8.182  -4.706  0.00  0.00    +0.050 C 
BRANCH  15  16
ATOM     16  C   LIG    1        8.663   9.392  -3.878  0.00  0.00    +0.400 C 
ATOM     17  O   LIG    1        8.266   9.481  -2.736  0.00  0.00    -0.440 OA
BRANCH  16  18
ATOM     18  C   LIG    1        9.487  10.463  -4.457  0.00  0.00    -0.180 A 
ATOM     19  C   LIG    1        9.952  10.360  -5.772  0.00  0.00    +0.100 A 
ATOM     20  C   LIG    1       10.721  11.369  -6.309  0.00  0.00    -0.030 A 
ATOM     21  C   LIG    1       11.043  12.481  -5.545  0.00  0.00    +0.130 A 
ATOM     22  C   LIG    1       10.589  12.587  -4.239  0.00  0.00    -0.030 A 
ATOM     23  F   LIG    1       11.801  13.465  -6.076  0.00  0.00    -0.130 F 
ATOM     24  C   LIG    1        9.816  11.587  -3.691  0.00  0.00    +0.120 A 
ENDBRANCH  16  18
ENDBRANCH  15  16
ENDBRANCH  14  15
ENDBRANCH  13  14
ENDBRANCH  12  13
ENDBRANCH  10  12
ENDBRANCH   7  10
BRANCH   4  25
ATOM     25  C   LIG    1        2.490   1.048  -0.016  0.00  0.00    +0.390 C 
BRANCH  25  26
ATOM     26  C   LIG    1        1.175   1.783   0.000  0.00  0.00    -0.120 A 
ATOM     27  C   LIG    1       -0.013   1.076   0.008  0.00  0.00    +0.040 A 
ATOM     28  C   LIG    1       -1.219   1.751   0.017  0.00  0.00    +0.010 A 
ATOM     29  C   LIG    1       -1.238   3.133   0.030  0.00  0.00    +0.020 A 
ATOM     30  C   LIG    1       -0.050   3.840   0.022  0.00  0.00    +0.010 A 
ATOM     31  C   LIG    1        1.156   3.165   0.008  0.00  0.00    +0.020 A 
ENDBRANCH  25  26
ENDBRANCH   4  25
TORSDOF 9
