REMARK  Name = ZINCvU000000075e.0
REMARK                            x       y       z     vdW  Elec       q    Type
REMARK                         _______ _______ _______ _____ _____    ______ ____
ROOT
ATOM      1  C   LIG    1       -5.856   2.330  -0.535  0.00  0.00    -0.260 A 
ATOM      2  C   LIG    1       -5.605   3.648  -0.547  0.00  0.00    +0.190 A 
ATOM      3  C   LIG    1       -4.249   3.999  -0.549  0.00  0.00    -0.220 A 
ATOM      4  C   LIG    1       -3.404   2.901  -0.544  0.00  0.00    +0.020 A 
ATOM      5  N   LIG    1       -2.118   3.373  -0.541  0.00  0.00    -0.310 N 
ATOM      6  N   LIG    1       -2.169   4.770  -0.554  0.00  0.00    -0.240 NA
ATOM      7  C   LIG    1       -3.409   5.157  -0.559  0.00  0.00    +0.140 A 
ATOM      8  C   LIG    1       -3.884   6.588  -0.572  0.00  0.00    +0.180 C 
ATOM      9  S   LIG    1       -4.354   1.421  -0.525  0.00  0.00    +0.200 S 
ENDROOT
BRANCH   5  10
ATOM     10  C   LIG    1       -0.955   2.592  -0.532  0.00  0.00    +0.150 A 
ATOM     11  C   LIG    1       -0.827   1.526  -1.412  0.00  0.00    +0.030 A 
ATOM     12  C   LIG    1        0.322   0.758  -1.401  0.00  0.00    +0.050 A 
ATOM     13  C   LIG    1        1.343   1.049  -0.516  0.00  0.00    +0.040 A 
ATOM     14  C   LIG    1        1.219   2.111   0.362  0.00  0.00    +0.050 A 
ATOM     15  C   LIG    1        0.071   2.880   0.360  0.00  0.00    -0.030 A 
ATOM     16 CL   LIG    1       -0.087   4.208   1.467  0.00  0.00    -0.040 Cl
ENDBRANCH   5  10
BRANCH   1  21
ATOM     17  C   LIG    1       -8.457  -0.554  -0.601  0.00  0.00    +0.250 C 
ATOM     18  C   LIG    1       -7.479  -1.576  -1.198  0.00  0.00    +0.050 C 
ATOM     19  C   LIG    1       -6.434  -0.765  -0.424  0.00  0.00    +0.260 C 
ATOM     20  N   LIG    1       -7.335   0.393  -0.519  0.00  0.00    -0.650 N 
ATOM     21  C   LIG    1       -7.195   1.734  -0.531  0.00  0.00    +0.630 C 
ATOM     22  O   LIG    1       -8.180   2.449  -0.540  0.00  0.00    -0.520 OA
BRANCH  17  23
ATOM     23  C   LIG    1       -9.554  -0.118  -1.574  0.00  0.00    +0.090 C 
BRANCH  23  27
ATOM     24  C   LIG    1      -12.763  -2.938  -1.460  0.00  0.00    +0.120 A 
ATOM     25  C   LIG    1      -12.712  -1.905  -0.534  0.00  0.00    -0.020 A 
ATOM     26  C   LIG    1      -11.674  -0.995  -0.573  0.00  0.00    +0.060 A 
ATOM     27  C   LIG    1      -10.686  -1.112  -1.534  0.00  0.00    -0.120 A 
ATOM     28  C   LIG    1      -10.738  -2.137  -2.461  0.00  0.00    +0.050 A 
ATOM     29  C   LIG    1      -11.771  -3.053  -2.422  0.00  0.00    -0.080 A 
BRANCH  24  31
ATOM     30  C   LIG    1      -13.772  -4.871  -2.407  0.00  0.00    +0.250 C 
ATOM     31  O   LIG    1      -13.784  -3.834  -1.424  0.00  0.00    -0.320 OA
ENDBRANCH  24  31
ENDBRANCH  23  27
ENDBRANCH  17  23
ENDBRANCH   1  21
TORSDOF 5
