REMARK  Name = ZINCzw00000004lJ.0
REMARK                            x       y       z     vdW  Elec       q    Type
REMARK                         _______ _______ _______ _____ _____    ______ ____
ROOT
ATOM      1  N   LIG    1        1.625   1.013  -5.531  0.00  0.00    -0.490 N 
ATOM      2  C   LIG    1        1.711   1.482  -4.269  0.00  0.00    +0.490 C 
ATOM      3  O   LIG    1        2.640   2.193  -3.949  0.00  0.00    -0.520 OA
ENDROOT
BRANCH   1   4
ATOM      4  C   LIG    1        2.560   1.426  -6.503  0.00  0.00    -0.180 A 
ATOM      5  C   LIG    1        2.643   2.751  -6.880  0.00  0.00    +0.520 A 
ATOM      6  N   LIG    1        3.565   3.123  -7.830  0.00  0.00    -0.540 N 
ATOM      7  C   LIG    1        4.378   2.206  -8.386  0.00  0.00    +0.710 A 
ATOM      8  N   LIG    1        4.312   0.910  -8.031  0.00  0.00    -0.660 N 
ATOM      9  H   LIG    1        4.909   0.269  -8.446  0.00  0.00    +0.440 HD
ATOM     10  O   LIG    1        5.186   2.555  -9.224  0.00  0.00    -0.520 OA
ATOM     11  C   LIG    1        3.430   0.494  -7.101  0.00  0.00    +0.570 A 
ATOM     12  O   LIG    1        3.383  -0.682  -6.783  0.00  0.00    -0.520 OA
BRANCH   5  13
ATOM     13  N   LIG    1        1.812   3.688  -6.313  0.00  0.00    -0.820 N 
ATOM     14  H   LIG    1        1.946   4.630  -6.498  0.00  0.00    +0.410 HD
ATOM     15  H   LIG    1        1.092   3.406  -5.728  0.00  0.00    +0.420 HD
ENDBRANCH   5  13
BRANCH   6  16
ATOM     16  C   LIG    1        3.663   4.526  -8.240  0.00  0.00    +0.310 C 
BRANCH  16  17
ATOM     17  C   LIG    1        4.670   5.250  -7.345  0.00  0.00    +0.010 C 
ATOM     18  C   LIG    1        4.772   6.715  -7.773  0.00  0.00    +0.050 C 
ENDBRANCH  16  17
ENDBRANCH   6  16
ENDBRANCH   1   4
BRANCH   1  19
ATOM     19  C   LIG    1        0.559   0.074  -5.893  0.00  0.00    +0.300 C 
BRANCH  19  20
ATOM     20  C   LIG    1       -0.644   0.851  -6.431  0.00  0.00    -0.010 C 
BRANCH  20  22
ATOM     21  C   LIG    1       -2.960   0.648  -7.346  0.00  0.00    +0.010 C 
ATOM     22  C   LIG    1       -1.757  -0.129  -6.808  0.00  0.00    +0.020 C 
ENDBRANCH  20  22
ENDBRANCH  19  20
ENDBRANCH   1  19
BRANCH   2  23
ATOM     23  C   LIG    1        0.653   1.124  -3.258  0.00  0.00    +0.290 C 
BRANCH  23  24
ATOM     24  N   LIG    1        0.973   1.754  -1.970  0.00  0.00    -0.380 N 
ATOM     25  C   LIG    1        2.211   1.161  -1.420  0.00  0.00    +0.260 C 
ATOM     26  C   LIG    1        1.980   1.112   0.111  0.00  0.00    +0.080 C 
ATOM     27  C   LIG    1        0.472   0.758   0.189  0.00  0.00    +0.100 C 
ATOM     28  C   LIG    1       -0.126   1.514  -1.017  0.00  0.00    +0.260 C 
ATOM     29  H   LIG    1        1.100   2.746  -2.099  0.00  0.00    +0.430 HD
BRANCH  27  30
ATOM     30  C   LIG    1       -0.126   1.251   1.481  0.00  0.00    -0.190 A 
ATOM     31  C   LIG    1       -0.106   2.513   1.939  0.00  0.00    +0.230 A 
ATOM     32  N   LIG    1       -0.751   2.582   3.144  0.00  0.00    -0.480 N 
ATOM     33  C   LIG    1       -1.203   1.333   3.505  0.00  0.00    +0.100 A 
ATOM     34  C   LIG    1       -1.898   0.847   4.608  0.00  0.00    +0.000 A 
ATOM     35  C   LIG    1       -2.214  -0.492   4.683  0.00  0.00    +0.040 A 
ATOM     36  C   LIG    1       -1.846  -1.364   3.668  0.00  0.00    +0.000 A 
ATOM     37  C   LIG    1       -1.162  -0.909   2.576  0.00  0.00    +0.040 A 
ATOM     38  C   LIG    1       -0.927   3.802   3.936  0.00  0.00    +0.330 C 
ATOM     39  C   LIG    1       -0.832   0.444   2.479  0.00  0.00    -0.100 A 
ENDBRANCH  27  30
ENDBRANCH  23  24
ENDBRANCH   2  23
TORSDOF 10
