REMARK  Name = ZINCzw00000004lJ.1
REMARK                            x       y       z     vdW  Elec       q    Type
REMARK                         _______ _______ _______ _____ _____    ______ ____
ROOT
ATOM      1  N   LIG    1       -1.662  -1.766  -0.195  0.00  0.00    -0.490 N 
ATOM      2  C   LIG    1       -1.474  -0.443  -0.382  0.00  0.00    +0.490 C 
ATOM      3  O   LIG    1       -2.418   0.271  -0.652  0.00  0.00    -0.510 OA
ENDROOT
BRANCH   1   4
ATOM      4  C   LIG    1       -2.966  -2.304  -0.217  0.00  0.00    -0.180 A 
ATOM      5  C   LIG    1       -3.898  -1.923   0.726  0.00  0.00    +0.520 A 
ATOM      6  N   LIG    1       -5.162  -2.465   0.678  0.00  0.00    -0.540 N 
ATOM      7  C   LIG    1       -5.485  -3.355  -0.277  0.00  0.00    +0.710 A 
ATOM      8  N   LIG    1       -4.589  -3.738  -1.204  0.00  0.00    -0.660 N 
ATOM      9  H   LIG    1       -4.847  -4.382  -1.883  0.00  0.00    +0.440 HD
ATOM     10  O   LIG    1       -6.607  -3.823  -0.302  0.00  0.00    -0.520 OA
ATOM     11  C   LIG    1       -3.340  -3.234  -1.205  0.00  0.00    +0.570 A 
ATOM     12  O   LIG    1       -2.537  -3.584  -2.054  0.00  0.00    -0.520 OA
BRANCH   5  13
ATOM     13  N   LIG    1       -3.568  -1.014   1.702  0.00  0.00    -0.820 N 
ATOM     14  H   LIG    1       -4.254  -0.667   2.294  0.00  0.00    +0.410 HD
ATOM     15  H   LIG    1       -2.649  -0.719   1.800  0.00  0.00    +0.410 HD
ENDBRANCH   5  13
BRANCH   6  16
ATOM     16  C   LIG    1       -6.161  -2.070   1.674  0.00  0.00    +0.310 C 
BRANCH  16  17
ATOM     17  C   LIG    1       -6.939  -0.856   1.162  0.00  0.00    +0.010 C 
ATOM     18  C   LIG    1       -7.982  -0.443   2.202  0.00  0.00    +0.050 C 
ENDBRANCH  16  17
ENDBRANCH   6  16
ENDBRANCH   1   4
BRANCH   1  19
ATOM     19  C   LIG    1       -0.511  -2.644   0.031  0.00  0.00    +0.300 C 
BRANCH  19  20
ATOM     20  C   LIG    1       -0.263  -2.783   1.534  0.00  0.00    -0.010 C 
BRANCH  20  22
ATOM     21  C   LIG    1        1.187  -3.838   3.274  0.00  0.00    +0.020 C 
ATOM     22  C   LIG    1        0.939  -3.699   1.771  0.00  0.00    +0.020 C 
ENDBRANCH  20  22
ENDBRANCH  19  20
ENDBRANCH   1  19
BRANCH   2  23
ATOM     23  C   LIG    1       -0.094   0.148  -0.256  0.00  0.00    +0.290 C 
BRANCH  23  24
ATOM     24  N   LIG    1       -0.156   1.595  -0.504  0.00  0.00    -0.380 N 
ATOM     25  C   LIG    1       -0.881   2.270   0.594  0.00  0.00    +0.250 C 
ATOM     26  C   LIG    1       -0.202   3.635   0.811  0.00  0.00    +0.070 C 
ATOM     27  C   LIG    1        0.962   3.674  -0.206  0.00  0.00    +0.090 C 
ATOM     28  C   LIG    1        1.212   2.174  -0.503  0.00  0.00    +0.270 C 
ATOM     29  H   LIG    1       -0.611   1.778  -1.386  0.00  0.00    +0.440 HD
BRANCH  27  30
ATOM     30  C   LIG    1        2.185   4.309   0.403  0.00  0.00    -0.190 A 
ATOM     31  C   LIG    1        2.783   3.951   1.550  0.00  0.00    +0.240 A 
ATOM     32  N   LIG    1        3.867   4.754   1.782  0.00  0.00    -0.480 N 
ATOM     33  C   LIG    1        3.996   5.671   0.762  0.00  0.00    +0.100 A 
ATOM     34  C   LIG    1        4.902   6.694   0.504  0.00  0.00    +0.000 A 
ATOM     35  C   LIG    1        4.764   7.460  -0.633  0.00  0.00    +0.040 A 
ATOM     36  C   LIG    1        3.729   7.220  -1.526  0.00  0.00    +0.000 A 
ATOM     37  C   LIG    1        2.827   6.220  -1.292  0.00  0.00    +0.040 A 
ATOM     38  C   LIG    1        4.757   4.653   2.941  0.00  0.00    +0.330 C 
ATOM     39  C   LIG    1        2.952   5.428  -0.149  0.00  0.00    -0.100 A 
ENDBRANCH  27  30
ENDBRANCH  23  24
ENDBRANCH   2  23
TORSDOF 10
