REMARK  Name = ZINCqH0000006tBx.0
REMARK                            x       y       z     vdW  Elec       q    Type
REMARK                         _______ _______ _______ _____ _____    ______ ____
ROOT
ATOM      1  C   LIG    1       -1.229   1.753   0.017  0.00  0.00    +0.200 A 
ATOM      2  C   LIG    1       -0.013   1.076   0.008  0.00  0.00    -0.110 A 
ATOM      3  C   LIG    1        1.163   1.772   0.001  0.00  0.00    +0.160 A 
ATOM      4  C   LIG    1        1.142   3.170   0.008  0.00  0.00    -0.290 A 
ATOM      5  C   LIG    1        2.396   3.939   0.006  0.00  0.00    +0.410 C 
ATOM      6  C   LIG    1        2.277   5.428  -0.269  0.00  0.00    +0.020 C 
ATOM      7  C   LIG    1        1.032   5.929   0.476  0.00  0.00    +0.130 C 
ATOM      8  O   LIG    1       -0.115   5.215   0.017  0.00  0.00    -0.290 OA
ATOM      9  C   LIG    1        0.850   7.423   0.205  0.00  0.00    +0.070 C 
ATOM     10  C   LIG    1       -0.381   7.934   0.956  0.00  0.00    +0.020 C 
ATOM     11  C   LIG    1       -0.193   7.705   2.457  0.00  0.00    +0.010 C 
ATOM     12  C   LIG    1       -0.015   6.210   2.728  0.00  0.00    +0.020 C 
ATOM     13  C   LIG    1        1.216   5.700   1.976  0.00  0.00    +0.000 C 
ATOM     14  O   LIG    1        3.468   3.412   0.214  0.00  0.00    -0.450 OA
ATOM     15  C   LIG    1       -0.083   3.861   0.020  0.00  0.00    +0.230 A 
ATOM     16  C   LIG    1       -1.265   3.140   0.030  0.00  0.00    -0.050 A 
ENDROOT
BRANCH   1  17
ATOM     17  O   LIG    1       -2.390   1.050   0.020  0.00  0.00    -0.300 OA
BRANCH  17  18
ATOM     18  C   LIG    1       -2.285  -0.375   0.013  0.00  0.00    +0.220 C 
BRANCH  18  19
ATOM     19  C   LIG    1       -3.687  -0.989   0.017  0.00  0.00    +0.180 C 
BRANCH  19  20
ATOM     20  C   LIG    1       -3.578  -2.509  -0.117  0.00  0.00    -0.040 C 
ATOM     21  C   LIG    1       -4.983  -3.154  -0.260  0.00  0.00    +0.020 C 
ATOM     22  C   LIG    1       -4.641  -4.431  -1.068  0.00  0.00    +0.200 C 
ATOM     23  O   LIG    1       -3.599  -4.033  -1.974  0.00  0.00    -0.380 OA
ATOM     24  C   LIG    1       -2.902  -2.897  -1.450  0.00  0.00    +0.190 C 
ENDBRANCH  19  20
BRANCH  19  26
ATOM     25  C   LIG    1       -5.766  -0.561   1.130  0.00  0.00    +0.210 C 
ATOM     26  O   LIG    1       -4.345  -0.664   1.243  0.00  0.00    -0.370 OA
ENDBRANCH  19  26
ENDBRANCH  18  19
ENDBRANCH  17  18
ENDBRANCH   1  17
TORSDOF 5
