REMARK  Name = ZINCpe000000Y1HS.0
REMARK                            x       y       z     vdW  Elec       q    Type
REMARK                         _______ _______ _______ _____ _____    ______ ____
ROOT
ATOM      1  C   LIG    1        2.209  -0.001  -2.920  0.00  0.00    +0.540 C 
ATOM      2  N   LIG    1        1.084   0.320  -2.250  0.00  0.00    -0.590 N 
ATOM      3  C   LIG    1       -0.151   0.546  -3.001  0.00  0.00    +0.280 C 
ATOM      4  C   LIG    1       -0.735   1.891  -2.550  0.00  0.00    +0.030 C 
ATOM      5  C   LIG    1       -1.001   1.830  -1.059  0.00  0.00    +0.000 C 
ATOM      6  C   LIG    1        0.234   1.537  -0.247  0.00  0.00    +0.000 C 
ATOM      7  C   LIG    1        1.188   2.748  -0.215  0.00  0.00    +0.260 C 
ATOM      8  N   LIG    1        2.530   2.167  -0.070  0.00  0.00    -0.740 N 
ATOM      9  H   LIG    1        3.314   2.663   0.213  0.00  0.00    +0.410 HD
ATOM     10  C   LIG    1        2.530   0.858  -0.383  0.00  0.00    +0.520 C 
ATOM     11  O   LIG    1        3.499   0.130  -0.339  0.00  0.00    -0.470 OA
ATOM     12  C   LIG    1       -1.590   3.164  -0.597  0.00  0.00    +0.030 C 
ATOM     13  C   LIG    1        1.132   0.430  -0.798  0.00  0.00    +0.220 C 
ATOM     14  O   LIG    1        3.263  -0.100  -2.324  0.00  0.00    -0.480 OA
ENDROOT
BRANCH   1  22
ATOM     15  C   LIG    1        5.310   0.439  -9.573  0.00  0.00    +0.190 C 
ATOM     16  C   LIG    1        4.144   0.040  -8.706  0.00  0.00    +0.450 A 
ATOM     17  N   LIG    1        3.107  -0.507  -9.278  0.00  0.00    -0.600 NA
ATOM     18  C   LIG    1        2.027  -0.890  -8.571  0.00  0.00    +0.530 A 
ATOM     19  C   LIG    1        2.041  -0.675  -7.111  0.00  0.00    -0.190 A 
ATOM     20  C   LIG    1        0.968  -1.041  -6.302  0.00  0.00    +0.120 A 
ATOM     21  C   LIG    1        1.028  -0.821  -4.954  0.00  0.00    +0.020 A 
ATOM     22  C   LIG    1        2.159  -0.232  -4.381  0.00  0.00    -0.070 A 
ATOM     23  C   LIG    1        3.237   0.144  -5.178  0.00  0.00    +0.040 A 
ATOM     24  C   LIG    1        3.185  -0.081  -6.546  0.00  0.00    +0.170 A 
ATOM     25  O   LIG    1        1.067  -1.400  -9.120  0.00  0.00    -0.480 OA
ATOM     26  N   LIG    1        4.226   0.266  -7.383  0.00  0.00    -0.620 N 
ATOM     27  H   LIG    1        5.024   0.677  -7.015  0.00  0.00    +0.430 HD
ENDBRANCH   1  22
TORSDOF 1
