REMARK  Name = ZINCvU0000000EmO.0
REMARK                            x       y       z     vdW  Elec       q    Type
REMARK                         _______ _______ _______ _____ _____    ______ ____
ROOT
ATOM      1  N   LIG    1       -7.906   5.615   2.464  0.00  0.00    -0.410 N 
ATOM      2  C   LIG    1       -8.982   6.224   1.835  0.00  0.00    +0.100 A 
ATOM      3  C   LIG    1      -10.126   6.861   2.290  0.00  0.00    +0.060 A 
ATOM      4  C   LIG    1      -11.034   7.371   1.385  0.00  0.00    +0.110 A 
ATOM      5  C   LIG    1      -10.810   7.251   0.021  0.00  0.00    -0.050 A 
ATOM      6  C   LIG    1       -9.680   6.619  -0.448  0.00  0.00    +0.170 A 
ATOM      7  C   LIG    1       -8.750   6.098   0.455  0.00  0.00    +0.060 A 
ATOM      8  N   LIG    1       -7.571   5.440   0.304  0.00  0.00    -0.480 NA
ATOM      9  C   LIG    1       -7.071   5.157   1.482  0.00  0.00    +0.280 A 
ENDROOT
BRANCH   1  15
ATOM     10  C   LIG    1       -8.199   4.381   4.528  0.00  0.00    +0.160 A 
ATOM     11  C   LIG    1       -8.002   4.268   5.895  0.00  0.00    -0.060 A 
ATOM     12  C   LIG    1       -7.322   5.257   6.580  0.00  0.00    +0.090 A 
ATOM     13  C   LIG    1       -6.837   6.362   5.906  0.00  0.00    -0.010 A 
ATOM     14  C   LIG    1       -7.024   6.480   4.541  0.00  0.00    +0.090 A 
ATOM     15  C   LIG    1       -7.710   5.494   3.848  0.00  0.00    +0.050 A 
BRANCH  10  17
ATOM     16  C   LIG    1       -9.341   2.297   4.616  0.00  0.00    +0.250 C 
ATOM     17  O   LIG    1       -8.868   3.409   3.853  0.00  0.00    -0.310 OA
ENDBRANCH  10  17
ENDBRANCH   1  15
BRANCH   5  18
ATOM     18  N   LIG    1      -11.794   7.804  -0.936  0.00  0.00    +0.030 N 
ATOM     19  O   LIG    1      -11.602   7.701  -2.135  0.00  0.00    -0.160 OA
ATOM     20  O   LIG    1      -12.795   8.363  -0.526  0.00  0.00    -0.150 OA
ENDBRANCH   5  18
BRANCH   9  21
ATOM     21  S   LIG    1       -5.552   4.306   1.760  0.00  0.00    +0.040 S 
BRANCH  21  22
ATOM     22  C   LIG    1       -5.034   4.022   0.049  0.00  0.00    +0.160 C 
BRANCH  22  23
ATOM     23  C   LIG    1       -3.719   3.286   0.038  0.00  0.00    -0.030 A 
ATOM     24  C   LIG    1       -3.700   1.904   0.030  0.00  0.00    +0.050 A 
ATOM     25  C   LIG    1       -2.494   1.229   0.021  0.00  0.00    +0.110 A 
ATOM     26  C   LIG    1       -1.306   1.936   0.019  0.00  0.00    -0.040 A 
ATOM     27  C   LIG    1       -1.325   3.319   0.032  0.00  0.00    +0.110 A 
ATOM     28  C   LIG    1       -2.531   3.993   0.036  0.00  0.00    +0.050 A 
BRANCH  26  29
ATOM     29  N   LIG    1       -0.014   1.214   0.009  0.00  0.00    +0.020 N 
ATOM     30  O   LIG    1        1.032   1.837   0.002  0.00  0.00    -0.150 OA
ATOM     31  O   LIG    1        0.002  -0.004   0.002  0.00  0.00    -0.150 OA
ENDBRANCH  26  29
ENDBRANCH  22  23
ENDBRANCH  21  22
ENDBRANCH   9  21
TORSDOF 7
