REMARK  Name = ZINCrH00000tj1gb.1
REMARK                            x       y       z     vdW  Elec       q    Type
REMARK                         _______ _______ _______ _____ _____    ______ ____
ROOT
ATOM      1  C   LIG    1       -0.047   1.107  -2.471  0.00  0.00    +0.170 A 
ATOM      2  N   LIG    1       -0.279  -0.012  -3.100  0.00  0.00    -0.270 NA
ATOM      3  N   LIG    1        0.504  -0.103  -4.117  0.00  0.00    -0.270 NA
ATOM      4  C   LIG    1        1.274   0.959  -4.168  0.00  0.00    +0.210 A 
ATOM      5  O   LIG    1        0.938   1.745  -3.125  0.00  0.00    -0.220 OA
ENDROOT
BRANCH   4   6
ATOM      6  C   LIG    1        2.314   1.240  -5.180  0.00  0.00    -0.030 A 
ATOM      7  C   LIG    1        3.057   2.420  -5.112  0.00  0.00    +0.090 A 
ATOM      8  C   LIG    1        4.030   2.674  -6.056  0.00  0.00    +0.030 A 
ATOM      9  C   LIG    1        4.263   1.768  -7.075  0.00  0.00    +0.110 A 
ATOM     10  C   LIG    1        3.527   0.599  -7.151  0.00  0.00    -0.180 A 
ATOM     11  C   LIG    1        2.554   0.330  -6.210  0.00  0.00    +0.130 A 
BRANCH  10  12
ATOM     12  C   LIG    1        3.788  -0.383  -8.264  0.00  0.00    +0.510 C 
ATOM     13  F   LIG    1        3.501  -1.678  -7.820  0.00  0.00    -0.170 F 
ATOM     14  F   LIG    1        5.131  -0.308  -8.647  0.00  0.00    -0.170 F 
ATOM     15  F   LIG    1        2.973  -0.074  -9.359  0.00  0.00    -0.170 F 
ENDBRANCH  10  12
ENDBRANCH   4   6
BRANCH   1  16
ATOM     16  C   LIG    1       -0.753   1.593  -1.232  0.00  0.00    +0.230 C 
BRANCH  16  17
ATOM     17  C   LIG    1       -0.013   1.086   0.008  0.00  0.00    +0.090 C 
BRANCH  17  20
ATOM     18  N   LIG    1       -0.242   1.246   2.466  0.00  0.00    -0.630 N 
ATOM     19  H   LIG    1        0.555   0.699   2.544  0.00  0.00    +0.430 HD
ATOM     20  C   LIG    1       -0.718   1.572   1.248  0.00  0.00    +0.510 C 
ATOM     21  O   LIG    1       -1.715   2.256   1.150  0.00  0.00    -0.460 OA
BRANCH  18  25
ATOM     22  C   LIG    1       -1.789   2.313   5.799  0.00  0.00    +0.020 A 
ATOM     23  N   LIG    1       -2.429   2.751   4.761  0.00  0.00    -0.230 NA
ATOM     24  N   LIG    1       -1.960   2.434   3.633  0.00  0.00    -0.270 NA
ATOM     25  C   LIG    1       -0.892   1.694   3.610  0.00  0.00    +0.220 A 
ATOM     26  S   LIG    1       -0.415   1.369   5.223  0.00  0.00    +0.110 S 
BRANCH  22  28
ATOM     27  C   LIG    1       -3.094   1.460   7.727  0.00  0.00    +0.040 C 
ATOM     28  C   LIG    1       -2.154   2.564   7.239  0.00  0.00    +0.150 C 
ENDBRANCH  22  28
ENDBRANCH  18  25
ENDBRANCH  17  20
ENDBRANCH  16  17
ENDBRANCH   1  16
TORSDOF 7
