REMARK  Name = ZINCrD0000071eKC.0
REMARK                            x       y       z     vdW  Elec       q    Type
REMARK                         _______ _______ _______ _____ _____    ______ ____
ROOT
ATOM      1  N   LIG    1       -5.899   2.584  -0.006  0.00  0.00    -0.570 N 
ATOM      2  C   LIG    1       -5.149   3.700  -0.001  0.00  0.00    +0.570 C 
ATOM      3  C   LIG    1       -3.721   3.307   0.001  0.00  0.00    -0.110 A 
ATOM      4  C   LIG    1       -2.528   4.011   0.005  0.00  0.00    +0.100 A 
ATOM      5  C   LIG    1       -1.323   3.327   0.011  0.00  0.00    +0.080 A 
ATOM      6  C   LIG    1       -1.306   1.933   0.002  0.00  0.00    -0.110 A 
ATOM      7  C   LIG    1       -2.506   1.215  -0.003  0.00  0.00    +0.170 A 
ATOM      8  C   LIG    1       -3.710   1.897  -0.004  0.00  0.00    -0.140 A 
ATOM      9  O   LIG    1       -5.571   4.838   0.001  0.00  0.00    -0.450 OA
ATOM     10  C   LIG    1       -5.129   1.481  -0.008  0.00  0.00    +0.580 C 
ATOM     11  O   LIG    1       -5.532   0.335  -0.013  0.00  0.00    -0.450 OA
ENDROOT
BRANCH   6  12
ATOM     12  C   LIG    1       -0.014   1.211   0.003  0.00  0.00    +0.560 C 
ATOM     13  N   LIG    1        1.143   1.901   0.001  0.00  0.00    -0.660 N 
ATOM     14  H   LIG    1        1.131   2.869  -0.062  0.00  0.00    +0.410 HD
ATOM     15  O   LIG    1        0.003  -0.004  -0.001  0.00  0.00    -0.500 OA
BRANCH  13  16
ATOM     16  C   LIG    1        2.364   1.221   0.092  0.00  0.00    +0.090 A 
ATOM     17  C   LIG    1        2.514  -0.021  -0.507  0.00  0.00    +0.040 A 
ATOM     18  C   LIG    1        3.723  -0.689  -0.420  0.00  0.00    +0.060 A 
ATOM     19  C   LIG    1        4.781  -0.126   0.272  0.00  0.00    +0.030 A 
ATOM     20  C   LIG    1        4.637   1.110   0.876  0.00  0.00    -0.010 A 
ATOM     21  F   LIG    1        3.870  -1.897  -1.008  0.00  0.00    -0.140 F 
ATOM     22  C   LIG    1        3.431   1.788   0.789  0.00  0.00    +0.190 A 
BRANCH  22  23
ATOM     23  N   LIG    1        3.284   3.040   1.399  0.00  0.00    -0.880 N 
ATOM     24  H   LIG    1        4.027   3.433   1.884  0.00  0.00    +0.410 HD
ATOM     25  H   LIG    1        2.440   3.513   1.338  0.00  0.00    +0.390 HD
ENDBRANCH  22  23
ENDBRANCH  13  16
ENDBRANCH   6  12
BRANCH   1  26
ATOM     26  C   LIG    1       -7.364   2.571  -0.010  0.00  0.00    +0.310 C 
BRANCH  26  27
ATOM     27  C   LIG    1       -7.878   2.561   1.432  0.00  0.00    +0.010 C 
BRANCH  27  29
ATOM     28  C   LIG    1       -9.920   2.413   2.863  0.00  0.00    +0.030 C 
ATOM     29  C   LIG    1       -9.408   2.548   1.428  0.00  0.00    -0.010 C 
ATOM     30  C   LIG    1       -9.928   3.852   0.821  0.00  0.00    +0.030 C 
ENDBRANCH  27  29
ENDBRANCH  26  27
ENDBRANCH   1  26
TORSDOF 6
