REMARK  Name = ZINCrH000004qDt0.0
REMARK                            x       y       z     vdW  Elec       q    Type
REMARK                         _______ _______ _______ _____ _____    ______ ____
ROOT
ATOM      1  C   LIG    1        3.506   1.760  -0.089  0.00  0.00    +0.220 A 
ATOM      2  C   LIG    1        3.451   3.147  -0.070  0.00  0.00    +0.010 A 
ATOM      3  C   LIG    1        4.611   3.886  -0.182  0.00  0.00    +0.060 A 
ATOM      4  C   LIG    1        5.836   3.253  -0.315  0.00  0.00    -0.010 A 
ATOM      5  C   LIG    1        5.910   1.877  -0.337  0.00  0.00    +0.070 A 
ATOM      6  C   LIG    1        4.745   1.115  -0.219  0.00  0.00    -0.170 A 
ENDROOT
BRANCH   1  10
ATOM      7  N   LIG    1        0.089   0.864   0.638  0.00  0.00    -0.740 N 
ATOM      8  H   LIG    1        0.027  -0.001   0.203  0.00  0.00    +0.400 HD
ATOM      9  C   LIG    1        1.256   1.539   0.633  0.00  0.00    +0.710 C 
ATOM     10  N   LIG    1        2.336   1.012   0.024  0.00  0.00    -0.670 N 
ATOM     11  H   LIG    1        2.300   0.111  -0.335  0.00  0.00    +0.410 HD
ATOM     12  O   LIG    1        1.333   2.623   1.178  0.00  0.00    -0.560 OA
BRANCH   7  13
ATOM     13  C   LIG    1       -1.087   1.439   1.295  0.00  0.00    +0.430 C 
BRANCH  13  18
ATOM     14  C   LIG    1       -4.562  -2.224   1.944  0.00  0.00    +0.160 C 
ATOM     15  C   LIG    1       -3.752  -1.069   1.413  0.00  0.00    +0.010 A 
ATOM     16  N   LIG    1       -3.974  -0.398   0.320  0.00  0.00    -0.360 NA
ATOM     17  O   LIG    1       -3.156   0.478   0.161  0.00  0.00    +0.110 OA
ATOM     18  C   LIG    1       -2.254   0.496   1.153  0.00  0.00    -0.060 A 
ATOM     19  C   LIG    1       -2.601  -0.498   2.005  0.00  0.00    -0.020 A 
ENDBRANCH  13  18
ENDBRANCH   7  13
ENDBRANCH   1  10
BRANCH   6  20
ATOM     20  C   LIG    1        4.817  -0.358  -0.235  0.00  0.00    +0.560 C 
ATOM     21  N   LIG    1        5.431  -0.991  -1.254  0.00  0.00    -0.610 N 
ATOM     22  C   LIG    1        5.923  -0.226  -2.402  0.00  0.00    +0.280 C 
ATOM     23  O   LIG    1        4.323  -1.001   0.671  0.00  0.00    -0.530 OA
BRANCH  21  24
ATOM     24  C   LIG    1        5.606  -2.445  -1.214  0.00  0.00    +0.240 C 
ATOM     25  C   LIG    1        7.098  -2.781  -1.270  0.00  0.00    +0.010 C 
ATOM     26  C   LIG    1        7.280  -4.300  -1.228  0.00  0.00    +0.010 C 
ATOM     27  C   LIG    1        6.570  -4.932  -2.426  0.00  0.00    +0.000 C 
ATOM     28  C   LIG    1        5.078  -4.596  -2.370  0.00  0.00    +0.010 C 
ATOM     29  C   LIG    1        4.896  -3.078  -2.412  0.00  0.00    +0.000 C 
ENDBRANCH  21  24
ENDBRANCH   6  20
TORSDOF 5
