REMARK  Name = ZINCtV000002PpHB.0
REMARK                            x       y       z     vdW  Elec       q    Type
REMARK                         _______ _______ _______ _____ _____    ______ ____
ROOT
ATOM      1  C   LIG    1        1.223   3.077   0.001  0.00  0.00    -0.150 A 
ATOM      2  C   LIG    1        1.375   1.688   0.058  0.00  0.00    +0.150 A 
ATOM      3  C   LIG    1        0.264   0.876   0.087  0.00  0.00    +0.040 A 
ATOM      4  C   LIG    1       -1.009   1.435   0.053  0.00  0.00    +0.180 A 
ATOM      5  C   LIG    1       -1.165   2.817   0.002  0.00  0.00    -0.060 A 
ATOM      6  C   LIG    1       -0.059   3.635  -0.027  0.00  0.00    +0.180 A 
ENDROOT
BRANCH   5   7
ATOM      7  N   LIG    1       -2.522   3.407  -0.028  0.00  0.00    +0.030 N 
ATOM      8  O   LIG    1       -3.501   2.683  -0.002  0.00  0.00    -0.130 OA
ATOM      9  O   LIG    1       -2.659   4.616  -0.078  0.00  0.00    -0.150 OA
ENDBRANCH   5   7
BRANCH   1  11
ATOM     10  O   LIG    1        2.387   4.987  -0.664  0.00  0.00    -0.430 OA
ATOM     11  C   LIG    1        2.411   3.950  -0.030  0.00  0.00    +0.440 C 
BRANCH  11  12
ATOM     12  C   LIG    1        3.631   3.564   0.710  0.00  0.00    -0.170 A 
ATOM     13  C   LIG    1        3.612   2.464   1.570  0.00  0.00    +0.040 A 
ATOM     14  C   LIG    1        4.756   2.106   2.252  0.00  0.00    +0.000 A 
ATOM     15  C   LIG    1        5.918   2.841   2.095  0.00  0.00    +0.050 A 
ATOM     16  C   LIG    1        5.942   3.936   1.249  0.00  0.00    +0.000 A 
ATOM     17  C   LIG    1        4.807   4.301   0.556  0.00  0.00    +0.080 A 
ENDBRANCH  11  12
ENDBRANCH   1  11
BRANCH   4  18
ATOM     18  O   LIG    1       -2.102   0.632   0.077  0.00  0.00    -0.240 OA
BRANCH  18  19
ATOM     19  C   LIG    1       -2.648   0.264  -1.111  0.00  0.00    +0.160 A 
ATOM     20  C   LIG    1       -2.040   0.612  -2.285  0.00  0.00    -0.080 A 
ATOM     21  C   LIG    1       -2.587   0.242  -3.511  0.00  0.00    +0.070 A 
ATOM     22  C   LIG    1       -3.742  -0.476  -3.577  0.00  0.00    -0.050 A 
ATOM     23  C   LIG    1       -4.398  -0.854  -2.392  0.00  0.00    -0.010 A 
ATOM     24  C   LIG    1       -5.591  -1.595  -2.423  0.00  0.00    +0.030 A 
ATOM     25  C   LIG    1       -6.199  -1.943  -1.255  0.00  0.00    +0.040 A 
ATOM     26  C   LIG    1       -5.655  -1.575  -0.027  0.00  0.00    +0.010 A 
ATOM     27  C   LIG    1       -4.500  -0.857   0.041  0.00  0.00    +0.060 A 
ATOM     28 CL   LIG    1       -4.402  -0.924  -5.119  0.00  0.00    -0.060 Cl
ATOM     29  C   LIG    1       -3.842  -0.485  -1.142  0.00  0.00    -0.040 A 
ENDBRANCH  18  19
ENDBRANCH   4  18
TORSDOF 5
