REMARK  Name = ZINCqH0000038Kgk.0
REMARK                            x       y       z     vdW  Elec       q    Type
REMARK                         _______ _______ _______ _____ _____    ______ ____
ROOT
ATOM      1  O   LIG    1       -3.000   0.616   1.127  0.00  0.00    -0.290 OA
ENDROOT
BRANCH   1   2
ATOM      2  C   LIG    1       -2.395   1.828   1.005  0.00  0.00    +0.100 A 
ATOM      3  C   LIG    1       -2.922   2.783   0.148  0.00  0.00    -0.050 A 
ATOM      4  C   LIG    1       -2.311   4.015   0.027  0.00  0.00    +0.010 A 
ATOM      5  C   LIG    1       -1.163   4.295   0.756  0.00  0.00    +0.150 A 
ATOM      6  C   LIG    1       -0.633   3.336   1.610  0.00  0.00    +0.010 A 
ATOM      7  C   LIG    1       -1.248   2.106   1.734  0.00  0.00    +0.030 A 
BRANCH   5   8
ATOM      8  N   LIG    1       -0.540   5.542   0.631  0.00  0.00    -0.690 N 
ATOM      9  H   LIG    1       -0.063   5.924   1.384  0.00  0.00    +0.410 HD
BRANCH   8  10
ATOM     10  C   LIG    1       -0.605   6.236  -0.580  0.00  0.00    +0.180 A 
ATOM     11  C   LIG    1       -0.716   5.540  -1.777  0.00  0.00    -0.050 A 
ATOM     12  C   LIG    1       -0.785   6.231  -2.971  0.00  0.00    +0.030 A 
ATOM     13  C   LIG    1       -0.734   7.612  -2.977  0.00  0.00    -0.040 A 
ATOM     14  C   LIG    1       -0.618   8.308  -1.787  0.00  0.00    +0.040 A 
ATOM     15  C   LIG    1       -0.553   7.625  -0.589  0.00  0.00    -0.050 A 
ENDBRANCH   8  10
ENDBRANCH   5   8
ENDBRANCH   1   2
BRANCH   1  16
ATOM     16  C   LIG    1       -4.178   0.397   0.347  0.00  0.00    +0.230 C 
BRANCH  16  19
ATOM     17  N   LIG    1       -5.816  -1.419  -0.019  0.00  0.00    -0.640 N 
ATOM     18  H   LIG    1       -6.317  -0.813  -0.587  0.00  0.00    +0.410 HD
ATOM     19  C   LIG    1       -4.705  -0.990   0.611  0.00  0.00    +0.510 C 
ATOM     20  O   LIG    1       -4.128  -1.719   1.390  0.00  0.00    -0.490 OA
BRANCH  17  28
ATOM     21  C   LIG    1       -3.925  -3.850   0.449  0.00  0.00    +0.160 C 
ATOM     22  C   LIG    1       -5.429  -3.865   0.360  0.00  0.00    +0.090 A 
ATOM     23  N   LIG    1       -6.192  -4.922   0.472  0.00  0.00    -0.290 NA
ATOM     24  N   LIG    1       -7.526  -4.520   0.325  0.00  0.00    -0.370 N 
ATOM     25  C   LIG    1       -7.538  -3.177   0.127  0.00  0.00    +0.060 A 
ATOM     26  C   LIG    1       -8.759  -2.318  -0.081  0.00  0.00    +0.150 C 
ATOM     27  C   LIG    1       -8.700  -5.395   0.376  0.00  0.00    +0.360 C 
ATOM     28  C   LIG    1       -6.250  -2.748   0.148  0.00  0.00    -0.010 A 
ENDBRANCH  17  28
ENDBRANCH  16  19
ENDBRANCH   1  16
TORSDOF 6
