REMARK  Name = ZINCvU0000000H4t.0
REMARK                            x       y       z     vdW  Elec       q    Type
REMARK                         _______ _______ _______ _____ _____    ______ ____
ROOT
ATOM      1  C   LIG    1        4.669  -4.592   1.095  0.00  0.00    +0.520 C 
ATOM      2  N   LIG    1        4.792  -5.920   1.288  0.00  0.00    -0.730 N 
ATOM      3  H   LIG    1        5.325  -6.452   0.676  0.00  0.00    +0.400 HD
ATOM      4  O   LIG    1        4.003  -3.927   1.860  0.00  0.00    -0.500 OA
ENDROOT
BRANCH   1   5
ATOM      5  C   LIG    1        5.359  -3.933  -0.072  0.00  0.00    +0.150 C 
BRANCH   5   8
ATOM      6  C   LIG    1        3.693  -0.694  -0.037  0.00  0.00    +0.120 A 
ATOM      7  N   LIG    1        3.835  -1.989  -0.041  0.00  0.00    -0.440 NA
ATOM      8  C   LIG    1        5.063  -2.455  -0.060  0.00  0.00    +0.090 A 
ATOM      9  C   LIG    1        6.035  -1.537  -0.064  0.00  0.00    -0.090 A 
ATOM     10  S   LIG    1        5.286   0.059  -0.048  0.00  0.00    +0.140 S 
BRANCH   6  16
ATOM     11  C   LIG    1        2.381   1.427  -0.013  0.00  0.00    +0.150 A 
ATOM     12  C   LIG    1        1.167   2.094   0.002  0.00  0.00    -0.080 A 
ATOM     13  C   LIG    1       -0.017   1.380   0.010  0.00  0.00    +0.070 A 
ATOM     14  C   LIG    1        0.002  -0.004   0.002  0.00  0.00    -0.030 A 
ATOM     15  C   LIG    1        1.203  -0.683  -0.014  0.00  0.00    +0.110 A 
ATOM     16  C   LIG    1        2.404   0.027  -0.021  0.00  0.00    -0.060 A 
BRANCH  11  17
ATOM     17  O   LIG    1        3.544   2.128  -0.020  0.00  0.00    -0.310 OA
BRANCH  17  19
ATOM     18  C   LIG    1        4.845   4.165  -0.021  0.00  0.00    +0.070 C 
ATOM     19  C   LIG    1        3.442   3.554  -0.011  0.00  0.00    +0.190 C 
ENDBRANCH  17  19
ENDBRANCH  11  17
ENDBRANCH   6  16
ENDBRANCH   5   8
ENDBRANCH   1   5
BRANCH   2  20
ATOM     20  C   LIG    1        4.122  -6.561   2.422  0.00  0.00    +0.380 C 
BRANCH  20  21
ATOM     21  C   LIG    1        4.854  -7.826   2.788  0.00  0.00    -0.100 A 
ATOM     22  C   LIG    1        5.343  -8.653   1.795  0.00  0.00    +0.050 A 
ATOM     23  C   LIG    1        6.019  -9.811   2.130  0.00  0.00    -0.010 A 
ATOM     24  C   LIG    1        6.197 -10.148   3.461  0.00  0.00    +0.100 A 
ATOM     25  C   LIG    1        5.701  -9.321   4.455  0.00  0.00    -0.010 A 
ATOM     26  F   LIG    1        6.853 -11.282   3.790  0.00  0.00    -0.140 F 
ATOM     27  C   LIG    1        5.030  -8.161   4.118  0.00  0.00    +0.070 A 
ENDBRANCH  20  21
BRANCH  20  28
ATOM     28  C   LIG    1        2.702  -6.893   2.043  0.00  0.00    -0.190 A 
ATOM     29  C   LIG    1        1.642  -6.763   2.843  0.00  0.00    +0.020 A 
ATOM     30  C   LIG    1        0.434  -7.129   2.274  0.00  0.00    +0.010 A 
ATOM     31  C   LIG    1        0.514  -7.565   1.016  0.00  0.00    -0.050 A 
ATOM     32  S   LIG    1        2.189  -7.521   0.482  0.00  0.00    +0.110 S 
ENDBRANCH  20  28
ENDBRANCH   2  20
TORSDOF 8
