REMARK  Name = ZINCpk00000KfL0n.1
REMARK                            x       y       z     vdW  Elec       q    Type
REMARK                         _______ _______ _______ _____ _____    ______ ____
ROOT
ATOM      1  C   LIG    1       -0.670   1.618  -1.208  0.00  0.00    +0.280 C 
ATOM      2  C   LIG    1        0.045   1.083   0.038  0.00  0.00    +0.290 C 
ATOM      3  N   LIG    1       -0.673   1.565   1.228  0.00  0.00    -0.620 N 
ATOM      4  C   LIG    1       -0.973   3.002   1.321  0.00  0.00    +0.250 C 
ATOM      5  C   LIG    1       -1.638   3.444   0.012  0.00  0.00    +0.220 C 
ATOM      6  C   LIG    1       -1.047   0.714   2.204  0.00  0.00    +0.580 C 
ATOM      7  O   LIG    1       -0.888  -0.483   2.061  0.00  0.00    -0.500 OA
ATOM      8  O   LIG    1       -0.826   3.034  -1.090  0.00  0.00    -0.360 OA
ENDROOT
BRANCH   1  11
ATOM      9  C   LIG    1        0.783   0.343  -4.264  0.00  0.00    +0.290 A 
ATOM     10  N   LIG    1       -0.129   0.351  -3.325  0.00  0.00    -0.530 NA
ATOM     11  C   LIG    1        0.148   1.301  -2.433  0.00  0.00    +0.230 A 
ATOM     12  N   LIG    1        1.243   1.917  -2.796  0.00  0.00    -0.280 NA
ATOM     13  N   LIG    1        1.678   1.306  -3.984  0.00  0.00    -0.480 N 
ATOM     14  H   LIG    1        2.465   1.536  -4.501  0.00  0.00    +0.440 HD
BRANCH   9  15
ATOM     15  C   LIG    1        0.823  -0.585  -5.451  0.00  0.00    +0.150 C 
BRANCH  15  17
ATOM     16  C   LIG    1        1.758  -2.726  -6.336  0.00  0.00    +0.030 C 
ATOM     17  C   LIG    1        1.718  -1.784  -5.130  0.00  0.00    +0.010 C 
ENDBRANCH  15  17
ENDBRANCH   9  15
ENDBRANCH   1  11
BRANCH   6  18
ATOM     18  C   LIG    1       -1.648   1.234   3.446  0.00  0.00    -0.160 A 
ATOM     19  C   LIG    1       -1.001   2.228   4.189  0.00  0.00    +0.100 A 
ATOM     20  C   LIG    1       -1.609   2.686   5.344  0.00  0.00    -0.030 A 
ATOM     21  C   LIG    1       -2.822   2.147   5.736  0.00  0.00    +0.290 A 
ATOM     22  N   LIG    1       -3.413   1.207   5.024  0.00  0.00    -0.510 NA
ATOM     23  C   LIG    1       -2.879   0.737   3.908  0.00  0.00    +0.340 A 
BRANCH  23  24
ATOM     24  N   LIG    1       -3.534  -0.249   3.194  0.00  0.00    -0.490 N 
ATOM     25  C   LIG    1       -4.764   0.273   2.583  0.00  0.00    +0.210 C 
ATOM     26  C   LIG    1       -3.821  -1.412   4.045  0.00  0.00    +0.220 C 
ENDBRANCH  23  24
ENDBRANCH   6  18
TORSDOF 5
