REMARK  Name = ZINCpk00000KfL0n.2
REMARK                            x       y       z     vdW  Elec       q    Type
REMARK                         _______ _______ _______ _____ _____    ______ ____
ROOT
ATOM      1  C   LIG    1       -0.013  -6.341   1.055  0.00  0.00    +0.250 C 
ATOM      2  C   LIG    1        0.305  -5.295  -0.019  0.00  0.00    +0.310 C 
ATOM      3  N   LIG    1       -0.762  -4.282  -0.011  0.00  0.00    -0.620 N 
ATOM      4  C   LIG    1       -2.157  -4.747  -0.064  0.00  0.00    +0.260 C 
ATOM      5  C   LIG    1       -2.356  -5.819   1.007  0.00  0.00    +0.230 C 
ATOM      6  C   LIG    1       -0.470  -2.968   0.050  0.00  0.00    +0.580 C 
ATOM      7  O   LIG    1        0.682  -2.607   0.196  0.00  0.00    -0.500 OA
ATOM      8  O   LIG    1       -1.346  -6.822   0.864  0.00  0.00    -0.360 OA
ENDROOT
BRANCH   1  13
ATOM      9  C   LIG    1        2.100  -9.132   0.128  0.00  0.00    +0.230 A 
ATOM     10  N   LIG    1        2.470  -9.027   1.378  0.00  0.00    -0.300 NA
ATOM     11  N   LIG    1        1.737  -7.963   1.929  0.00  0.00    -0.470 N 
ATOM     12  H   LIG    1        1.786  -7.634   2.841  0.00  0.00    +0.440 HD
ATOM     13  C   LIG    1        0.956  -7.490   0.943  0.00  0.00    +0.290 A 
ATOM     14  N   LIG    1        1.180  -8.204  -0.130  0.00  0.00    -0.510 NA
BRANCH   9  15
ATOM     15  C   LIG    1        2.625 -10.144  -0.858  0.00  0.00    +0.150 C 
BRANCH  15  17
ATOM     16  C   LIG    1        2.292 -12.431  -1.806  0.00  0.00    +0.030 C 
ATOM     17  C   LIG    1        1.759 -11.404  -0.805  0.00  0.00    +0.010 C 
ENDBRANCH  15  17
ENDBRANCH   9  15
ENDBRANCH   1  13
BRANCH   6  18
ATOM     18  C   LIG    1       -1.548  -1.967  -0.061  0.00  0.00    -0.160 A 
ATOM     19  C   LIG    1       -2.525  -2.080  -1.056  0.00  0.00    +0.110 A 
ATOM     20  C   LIG    1       -3.512  -1.112  -1.121  0.00  0.00    -0.030 A 
ATOM     21  C   LIG    1       -3.508  -0.073  -0.208  0.00  0.00    +0.300 A 
ATOM     22  N   LIG    1       -2.581   0.013   0.726  0.00  0.00    -0.510 NA
ATOM     23  C   LIG    1       -1.615  -0.886   0.834  0.00  0.00    +0.340 A 
BRANCH  23  24
ATOM     24  N   LIG    1       -0.663  -0.756   1.828  0.00  0.00    -0.490 N 
ATOM     25  C   LIG    1       -1.277  -0.847   3.160  0.00  0.00    +0.210 C 
ATOM     26  C   LIG    1        0.087   0.499   1.679  0.00  0.00    +0.230 C 
ENDBRANCH  23  24
ENDBRANCH   6  18
TORSDOF 5
