REMARK  Name = ZINCpk00000KfL0n.0
REMARK                            x       y       z     vdW  Elec       q    Type
REMARK                         _______ _______ _______ _____ _____    ______ ____
ROOT
ATOM      1  C   LIG    1       -1.713   3.234  -4.529  0.00  0.00    +0.250 C 
ATOM      2  C   LIG    1       -1.970   2.326  -5.737  0.00  0.00    +0.310 C 
ATOM      3  N   LIG    1       -1.984   3.160  -6.950  0.00  0.00    -0.620 N 
ATOM      4  C   LIG    1       -2.833   4.361  -6.954  0.00  0.00    +0.260 C 
ATOM      5  C   LIG    1       -2.534   5.170  -5.687  0.00  0.00    +0.230 C 
ATOM      6  C   LIG    1       -1.239   2.833  -8.024  0.00  0.00    +0.580 C 
ATOM      7  O   LIG    1       -0.471   1.892  -7.968  0.00  0.00    -0.500 OA
ATOM      8  O   LIG    1       -2.647   4.316  -4.546  0.00  0.00    -0.360 OA
ENDROOT
BRANCH   1  12
ATOM      9  C   LIG    1       -1.547   1.518  -1.330  0.00  0.00    +0.190 A 
ATOM     10  N   LIG    1       -2.737   1.205  -1.765  0.00  0.00    -0.290 NA
ATOM     11  N   LIG    1       -2.937   1.754  -2.911  0.00  0.00    -0.260 NA
ATOM     12  C   LIG    1       -1.883   2.442  -3.258  0.00  0.00    +0.170 A 
ATOM     13  N   LIG    1       -0.973   2.316  -2.263  0.00  0.00    -0.570 N 
ATOM     14  H   LIG    1       -0.089   2.714  -2.226  0.00  0.00    +0.430 HD
BRANCH   9  15
ATOM     15  C   LIG    1       -0.928   1.078  -0.028  0.00  0.00    +0.150 C 
BRANCH  15  17
ATOM     16  C   LIG    1       -1.223   1.013   2.452  0.00  0.00    +0.020 C 
ATOM     17  C   LIG    1       -1.851   1.459   1.130  0.00  0.00    +0.020 C 
ENDBRANCH  15  17
ENDBRANCH   9  15
ENDBRANCH   1  12
BRANCH   6  18
ATOM     18  C   LIG    1       -1.355   3.616  -9.268  0.00  0.00    -0.160 A 
ATOM     19  C   LIG    1       -2.612   3.950  -9.784  0.00  0.00    +0.110 A 
ATOM     20  C   LIG    1       -2.667   4.692 -10.952  0.00  0.00    -0.030 A 
ATOM     21  C   LIG    1       -1.492   5.069 -11.575  0.00  0.00    +0.300 A 
ATOM     22  N   LIG    1       -0.316   4.740 -11.075  0.00  0.00    -0.510 NA
ATOM     23  C   LIG    1       -0.206   4.037  -9.959  0.00  0.00    +0.340 A 
BRANCH  23  24
ATOM     24  N   LIG    1        1.047   3.714  -9.471  0.00  0.00    -0.490 N 
ATOM     25  C   LIG    1        1.759   4.915  -9.013  0.00  0.00    +0.210 C 
ATOM     26  C   LIG    1        1.833   2.987 -10.477  0.00  0.00    +0.220 C 
ENDBRANCH  23  24
ENDBRANCH   6  18
TORSDOF 5
