REMARK  Name = ZINCpe000000YEmZ.0
REMARK                            x       y       z     vdW  Elec       q    Type
REMARK                         _______ _______ _______ _____ _____    ______ ____
ROOT
ATOM      1  C   LIG    1        2.723  -0.183   0.049  0.00  0.00    +0.600 C 
ATOM      2  N   LIG    1        3.938  -0.745   0.205  0.00  0.00    -0.600 N 
ATOM      3  C   LIG    1        5.130   0.081   0.451  0.00  0.00    +0.240 C 
ATOM      4  C   LIG    1        6.220  -0.321  -0.543  0.00  0.00    +0.220 C 
ATOM      5  O   LIG    1        6.415  -1.737  -0.483  0.00  0.00    -0.360 OA
ATOM      6  C   LIG    1        5.266  -2.501  -0.833  0.00  0.00    +0.150 C 
ATOM      7  C   LIG    1        4.838  -2.180  -2.277  0.00  0.00    +0.030 C 
ATOM      8  C   LIG    1        5.572  -3.271  -3.087  0.00  0.00    +0.080 C 
ATOM      9  C   LIG    1        5.764  -4.421  -2.121  0.00  0.00    -0.080 A 
ATOM     10  C   LIG    1        6.069  -5.750  -2.359  0.00  0.00    +0.010 A 
ATOM     11  C   LIG    1        6.198  -6.634  -1.305  0.00  0.00    +0.020 A 
ATOM     12  C   LIG    1        6.023  -6.190  -0.008  0.00  0.00    +0.010 A 
ATOM     13  C   LIG    1        5.719  -4.864   0.232  0.00  0.00    +0.040 A 
ATOM     14  C   LIG    1        5.588  -3.976  -0.823  0.00  0.00    -0.090 A 
ATOM     15  C   LIG    1        4.115  -2.205   0.128  0.00  0.00    +0.290 C 
ATOM     16  O   LIG    1        1.739  -0.886  -0.067  0.00  0.00    -0.490 OA
ENDROOT
BRANCH   1  22
ATOM     17  C   LIG    1        2.100   1.980   1.141  0.00  0.00    +0.060 A 
ATOM     18  N   LIG    1        1.988   3.303   1.107  0.00  0.00    -0.410 NA
ATOM     19  C   LIG    1        2.329   3.966   0.018  0.00  0.00    +0.260 A 
ATOM     20  C   LIG    1        2.806   3.286  -1.095  0.00  0.00    +0.270 A 
ATOM     21  N   LIG    1        2.922   1.972  -1.074  0.00  0.00    -0.410 NA
ATOM     22  C   LIG    1        2.588   1.294   0.018  0.00  0.00    +0.100 A 
BRANCH  17  26
ATOM     23  N   LIG    1        1.344   1.899   3.473  0.00  0.00    -0.830 N 
ATOM     24  H   LIG    1        1.327   2.869   3.473  0.00  0.00    +0.410 HD
ATOM     25  H   LIG    1        1.090   1.409   4.271  0.00  0.00    +0.410 HD
ATOM     26  C   LIG    1        1.719   1.231   2.363  0.00  0.00    +0.570 C 
ATOM     27  O   LIG    1        1.739   0.017   2.363  0.00  0.00    -0.500 OA
ENDBRANCH  17  26
ENDBRANCH   1  22
TORSDOF 2
