REMARK  Name = ZINCtV00000L6knu.0
REMARK                            x       y       z     vdW  Elec       q    Type
REMARK                         _______ _______ _______ _____ _____    ______ ____
ROOT
ATOM      1  C   LIG    1       -1.224  -0.633  -0.047  0.00  0.00    +0.440 A 
ATOM      2  C   LIG    1       -2.389   0.104  -0.106  0.00  0.00    -0.060 A 
ATOM      3  C   LIG    1       -3.613  -0.562  -0.160  0.00  0.00    +0.230 A 
ATOM      4  N   LIG    1       -3.655  -1.877  -0.144  0.00  0.00    -0.460 NA
ATOM      5  C   LIG    1       -2.536  -2.605  -0.082  0.00  0.00    +0.300 A 
ATOM      6  C   LIG    1       -2.307  -3.987  -0.053  0.00  0.00    -0.160 A 
ATOM      7  C   LIG    1       -0.921  -4.176   0.014  0.00  0.00    +0.040 A 
ATOM      8  N   LIG    1       -0.335  -3.004   0.026  0.00  0.00    -0.250 NA
ATOM      9  C   LIG    1       -4.894   0.229  -0.231  0.00  0.00    +0.160 C 
ATOM     10  N   LIG    1       -1.308  -2.001  -0.033  0.00  0.00    -0.320 N 
ENDROOT
BRANCH   6  11
ATOM     11  C   LIG    1       -3.338  -5.049  -0.088  0.00  0.00    -0.010 A 
ATOM     12  C   LIG    1       -4.144  -5.207  -1.216  0.00  0.00    +0.030 A 
ATOM     13  C   LIG    1       -5.099  -6.202  -1.244  0.00  0.00    +0.000 A 
ATOM     14  C   LIG    1       -5.266  -7.036  -0.153  0.00  0.00    +0.010 A 
ATOM     15  C   LIG    1       -4.474  -6.881   0.971  0.00  0.00    +0.000 A 
ATOM     16  C   LIG    1       -3.511  -5.893   1.009  0.00  0.00    +0.020 A 
ENDBRANCH   6  11
BRANCH   7  17
ATOM     17  C   LIG    1       -0.220  -5.508   0.066  0.00  0.00    +0.560 C 
ATOM     18  F   LIG    1       -0.439  -6.197  -1.132  0.00  0.00    -0.160 F 
ATOM     19  F   LIG    1       -0.722  -6.259   1.134  0.00  0.00    -0.160 F 
ATOM     20  F   LIG    1        1.153  -5.306   0.242  0.00  0.00    -0.160 F 
ENDBRANCH   7  17
BRANCH   1  21
ATOM     21  N   LIG    1        0.002  -0.004   0.002  0.00  0.00    -0.670 N 
ATOM     22  H   LIG    1        0.202   0.614   0.723  0.00  0.00    +0.430 HD
BRANCH  21  27
ATOM     23  C   LIG    1        3.879  -1.032  -4.008  0.00  0.00    +0.080 C 
ATOM     24  C   LIG    1        2.849  -0.759  -2.943  0.00  0.00    -0.110 A 
ATOM     25  C   LIG    1        1.568  -1.263  -3.076  0.00  0.00    +0.050 A 
ATOM     26  C   LIG    1        0.623  -1.018  -2.099  0.00  0.00    -0.050 A 
ATOM     27  C   LIG    1        0.957  -0.257  -0.986  0.00  0.00    +0.180 A 
ATOM     28  C   LIG    1        2.245   0.247  -0.856  0.00  0.00    -0.030 A 
ATOM     29  C   LIG    1        3.187  -0.005  -1.834  0.00  0.00    -0.050 A 
ATOM     30  C   LIG    1        4.584   0.541  -1.692  0.00  0.00    +0.090 C 
ENDBRANCH  21  27
ENDBRANCH   1  21
TORSDOF 4
