REMARK  Name = ZINCqH0000051a6y.0
REMARK                            x       y       z     vdW  Elec       q    Type
REMARK                         _______ _______ _______ _____ _____    ______ ____
ROOT
ATOM      1  O   LIG    1        0.762  -0.670   0.886  0.00  0.00    -0.330 OA
ENDROOT
BRANCH   1   2
ATOM      2  C   LIG    1        0.002  -0.004   0.002  0.00  0.00    +0.490 C 
ATOM      3  O   LIG    1       -0.665  -0.613  -0.800  0.00  0.00    -0.490 OA
BRANCH   2   4
ATOM      4  C   LIG    1       -0.018   1.503   0.010  0.00  0.00    -0.040 C 
ATOM      5  C   LIG    1       -0.945   2.100   1.083  0.00  0.00    +0.070 C 
ATOM      6  C   LIG    1       -2.068   2.038   0.031  0.00  0.00    +0.030 C 
ATOM      7  C   LIG    1       -0.965   2.112  -1.038  0.00  0.00    +0.070 C 
BRANCH   4   8
ATOM      8  C   LIG    1        1.362   2.107   0.000  0.00  0.00    -0.080 A 
ATOM      9  C   LIG    1        1.682   3.085  -0.923  0.00  0.00    +0.040 A 
ATOM     10  C   LIG    1        2.946   3.643  -0.929  0.00  0.00    +0.030 A 
ATOM     11  C   LIG    1        3.896   3.215  -0.018  0.00  0.00    -0.030 A 
ATOM     12  C   LIG    1        3.577   2.232   0.902  0.00  0.00    +0.030 A 
ATOM     13 CL   LIG    1        5.486   3.911  -0.029  0.00  0.00    -0.070 Cl
ATOM     14  C   LIG    1        2.310   1.679   0.911  0.00  0.00    +0.060 A 
ENDBRANCH   4   8
ENDBRANCH   2   4
ENDBRANCH   1   2
BRANCH   1  15
ATOM     15  C   LIG    1        0.732  -2.120   0.820  0.00  0.00    +0.250 C 
BRANCH  15  17
ATOM     16  O   LIG    1        2.250  -1.946   2.619  0.00  0.00    -0.510 OA
ATOM     17  C   LIG    1        1.639  -2.690   1.880  0.00  0.00    +0.520 C 
ATOM     18  N   LIG    1        1.771  -4.025   2.008  0.00  0.00    -0.720 N 
ATOM     19  H   LIG    1        1.283  -4.619   1.417  0.00  0.00    +0.400 HD
BRANCH  18  20
ATOM     20  C   LIG    1        2.653  -4.579   3.039  0.00  0.00    +0.330 C 
BRANCH  20  21
ATOM     21  C   LIG    1        2.622  -6.084   2.970  0.00  0.00    -0.130 A 
ATOM     22  C   LIG    1        1.698  -6.790   3.716  0.00  0.00    +0.070 A 
ATOM     23  C   LIG    1        1.665  -8.171   3.650  0.00  0.00    -0.020 A 
ATOM     24  C   LIG    1        2.567  -8.846   2.845  0.00  0.00    +0.110 A 
ATOM     25  C   LIG    1        3.496  -8.137   2.102  0.00  0.00    -0.020 A 
ATOM     26  F   LIG    1        2.540 -10.195   2.784  0.00  0.00    -0.140 F 
ATOM     27  C   LIG    1        3.523  -6.757   2.166  0.00  0.00    +0.070 A 
ENDBRANCH  20  21
ENDBRANCH  18  20
ENDBRANCH  15  17
ENDBRANCH   1  15
TORSDOF 7
