REMARK  Name = ZINCrH000004oUoo.0
REMARK                            x       y       z     vdW  Elec       q    Type
REMARK                         _______ _______ _______ _____ _____    ______ ____
ROOT
ATOM      1  C   LIG    1       -0.018   6.484   0.008  0.00  0.00    +0.030 C 
ATOM      2  C   LIG    1        0.666   5.730   1.149  0.00  0.00    +0.210 C 
ATOM      3  C   LIG    1        0.186   4.263   1.172  0.00  0.00    +0.000 C 
ATOM      4  C   LIG    1       -0.930   4.280   2.249  0.00  0.00    +0.040 C 
ATOM      5  C   LIG    1       -0.366   5.304   3.265  0.00  0.00    +0.260 C 
ATOM      6  N   LIG    1        0.295   6.330   2.439  0.00  0.00    -0.610 N 
ATOM      7  C   LIG    1        0.522   7.607   2.805  0.00  0.00    +0.580 C 
ATOM      8  O   LIG    1        0.179   7.995   3.905  0.00  0.00    -0.530 OA
ENDROOT
BRANCH   7   9
ATOM      9  C   LIG    1        1.188   8.537   1.869  0.00  0.00    -0.150 A 
ATOM     10  C   LIG    1        1.760   8.048   0.687  0.00  0.00    +0.090 A 
ATOM     11  C   LIG    1        2.378   8.904  -0.196  0.00  0.00    +0.040 A 
ATOM     12  C   LIG    1        2.449  10.268   0.087  0.00  0.00    +0.190 A 
ATOM     13  N   LIG    1        3.068  11.136  -0.784  0.00  0.00    -0.630 N 
ATOM     14  H   LIG    1        3.459  10.792  -1.603  0.00  0.00    +0.420 HD
ATOM     15  C   LIG    1        3.140  12.451  -0.518  0.00  0.00    +0.540 A 
ATOM     16  C   LIG    1        2.587  13.001   0.659  0.00  0.00    -0.050 A 
ATOM     17  C   LIG    1        1.963  12.201   1.558  0.00  0.00    +0.150 A 
ATOM     18  O   LIG    1        3.696  13.188  -1.313  0.00  0.00    -0.530 OA
ATOM     19  C   LIG    1        1.880  10.765   1.277  0.00  0.00    -0.120 A 
ATOM     20  F   LIG    1        2.921   8.421  -1.335  0.00  0.00    -0.130 F 
ATOM     21  C   LIG    1        1.250   9.894   2.166  0.00  0.00    +0.170 A 
ENDBRANCH   7   9
BRANCH   3  22
ATOM     22  C   LIG    1       -0.382   3.859  -0.190  0.00  0.00    +0.090 C 
BRANCH  22  23
ATOM     23  C   LIG    1       -0.728   2.393  -0.174  0.00  0.00    -0.080 A 
ATOM     24  C   LIG    1       -1.990   1.984   0.214  0.00  0.00    +0.010 A 
ATOM     25  C   LIG    1       -2.308   0.639   0.228  0.00  0.00    +0.000 A 
ATOM     26  C   LIG    1       -1.364  -0.298  -0.147  0.00  0.00    +0.000 A 
ATOM     27  C   LIG    1       -0.102   0.110  -0.536  0.00  0.00    +0.000 A 
ATOM     28  C   LIG    1        0.216   1.456  -0.551  0.00  0.00    +0.000 A 
ENDBRANCH  22  23
ENDBRANCH   3  22
TORSDOF 3
