REMARK  Name = ZINCvU0000000AyZ.0
REMARK                            x       y       z     vdW  Elec       q    Type
REMARK                         _______ _______ _______ _____ _____    ______ ____
ROOT
ATOM      1  C   LIG    1       -2.280   1.725  -2.187  0.00  0.00    +0.660 C 
ATOM      2  N   LIG    1       -2.278   1.450  -0.867  0.00  0.00    -0.700 N 
ATOM      3  H   LIG    1       -2.907   0.806  -0.505  0.00  0.00    +0.410 HD
ATOM      4  O   LIG    1       -1.493   2.531  -2.640  0.00  0.00    -0.560 OA
ENDROOT
BRANCH   1   5
ATOM      5  O   LIG    1       -3.155   1.106  -3.002  0.00  0.00    -0.370 OA
BRANCH   5   6
ATOM      6  C   LIG    1       -3.101   1.451  -4.411  0.00  0.00    +0.410 C 
BRANCH   6  10
ATOM      7  C   LIG    1       -5.127  -0.909  -6.293  0.00  0.00    +0.030 A 
ATOM      8  C   LIG    1       -6.010   0.098  -6.073  0.00  0.00    +0.160 A 
ATOM      9  N   LIG    1       -5.374   1.047  -5.370  0.00  0.00    -0.450 NA
ATOM     10  C   LIG    1       -4.145   0.666  -5.161  0.00  0.00    +0.170 A 
ATOM     11  O   LIG    1       -3.962  -0.540  -5.717  0.00  0.00    -0.180 OA
BRANCH   7  17
ATOM     12  C   LIG    1       -4.516  -2.588  -8.035  0.00  0.00    +0.160 A 
ATOM     13  C   LIG    1       -4.770  -3.768  -8.714  0.00  0.00    -0.070 A 
ATOM     14  C   LIG    1       -5.882  -4.526  -8.395  0.00  0.00    +0.070 A 
ATOM     15  C   LIG    1       -6.747  -4.113  -7.397  0.00  0.00    -0.030 A 
ATOM     16  C   LIG    1       -6.503  -2.943  -6.706  0.00  0.00    +0.090 A 
ATOM     17  C   LIG    1       -5.389  -2.167  -7.024  0.00  0.00    -0.060 A 
BRANCH  12  19
ATOM     18  C   LIG    1       -2.580  -2.335  -9.391  0.00  0.00    +0.240 C 
ATOM     19  O   LIG    1       -3.425  -1.842  -8.349  0.00  0.00    -0.310 OA
ENDBRANCH  12  19
ENDBRANCH   7  17
ENDBRANCH   6  10
ENDBRANCH   5   6
ENDBRANCH   1   5
BRANCH   2  20
ATOM     20  C   LIG    1       -1.326   2.123   0.020  0.00  0.00    +0.320 C 
BRANCH  20  21
ATOM     21  C   LIG    1       -0.017   1.378   0.010  0.00  0.00    -0.150 A 
ATOM     22  C   LIG    1        1.185   2.070   0.002  0.00  0.00    +0.080 A 
ATOM     23  C   LIG    1        2.365   1.343  -0.013  0.00  0.00    -0.030 A 
ATOM     24  C   LIG    1        2.305  -0.038  -0.021  0.00  0.00    +0.260 A 
ATOM     25  N   LIG    1        1.144  -0.663  -0.013  0.00  0.00    -0.480 NA
ATOM     26  C   LIG    1        0.002  -0.004   0.002  0.00  0.00    +0.260 A 
ENDBRANCH  20  21
BRANCH  20  27
ATOM     27  C   LIG    1       -1.887   2.150   1.443  0.00  0.00    +0.050 C 
BRANCH  27  28
ATOM     28  C   LIG    1       -3.151   3.011   1.478  0.00  0.00    -0.010 C 
ATOM     29  C   LIG    1       -2.790   4.490   1.227  0.00  0.00    +0.020 C 
ATOM     30  C   LIG    1       -3.747   5.278   2.156  0.00  0.00    +0.010 C 
ATOM     31  C   LIG    1       -3.803   4.388   3.423  0.00  0.00    -0.010 C 
ATOM     32  C   LIG    1       -3.795   2.947   2.874  0.00  0.00    +0.010 C 
ENDBRANCH  27  28
ENDBRANCH  20  27
ENDBRANCH   2  20
TORSDOF 9
