REMARK  Name = ZINCvU0000000Ejt.0
REMARK                            x       y       z     vdW  Elec       q    Type
REMARK                         _______ _______ _______ _____ _____    ______ ____
ROOT
ATOM      1  C   LIG    1        2.415   3.951   0.010  0.00  0.00    +0.510 C 
ATOM      2  O   LIG    1        3.480   3.366   0.006  0.00  0.00    -0.490 OA
ENDROOT
BRANCH   1   3
ATOM      3  C   LIG    1        1.154   3.186   0.014  0.00  0.00    -0.160 A 
ATOM      4  C   LIG    1       -0.073   3.854   0.019  0.00  0.00    +0.130 A 
ATOM      5  C   LIG    1       -1.247   3.133   0.023  0.00  0.00    -0.030 A 
ATOM      6  C   LIG    1       -1.218   1.748   0.017  0.00  0.00    +0.100 A 
ATOM      7  C   LIG    1       -0.012   1.075   0.018  0.00  0.00    -0.080 A 
ATOM      8  C   LIG    1        1.180   1.784   0.014  0.00  0.00    +0.200 A 
BRANCH   8   9
ATOM      9  O   LIG    1        2.365   1.124   0.009  0.00  0.00    -0.280 OA
BRANCH   9  10
ATOM     10  C   LIG    1        2.313  -0.304   0.008  0.00  0.00    +0.270 C 
BRANCH  10  11
ATOM     11  C   LIG    1        3.714  -0.858   0.003  0.00  0.00    -0.070 A 
ATOM     12  C   LIG    1        4.797   0.001  -0.001  0.00  0.00    +0.060 A 
ATOM     13  C   LIG    1        6.083  -0.507  -0.006  0.00  0.00    +0.030 A 
ATOM     14  C   LIG    1        6.286  -1.875  -0.008  0.00  0.00    +0.020 A 
ATOM     15  C   LIG    1        5.203  -2.735  -0.004  0.00  0.00    +0.050 A 
ATOM     16  C   LIG    1        3.917  -2.227   0.007  0.00  0.00    -0.090 A 
ATOM     17 BR   LIG    1        2.436  -3.402   0.019  0.00  0.00    -0.050 Br
ENDBRANCH  10  11
ENDBRANCH   9  10
ENDBRANCH   8   9
ENDBRANCH   1   3
BRANCH   1  18
ATOM     18  O   LIG    1        2.385   5.298   0.010  0.00  0.00    -0.330 OA
BRANCH  18  19
ATOM     19  C   LIG    1        3.664   5.985   0.006  0.00  0.00    +0.270 C 
BRANCH  19  22
ATOM     20  N   LIG    1        4.485   8.319   0.004  0.00  0.00    -0.670 N 
ATOM     21  H   LIG    1        5.388   7.970   0.068  0.00  0.00    +0.410 HD
ATOM     22  C   LIG    1        3.434   7.474   0.007  0.00  0.00    +0.520 C 
ATOM     23  O   LIG    1        2.304   7.914   0.011  0.00  0.00    -0.500 OA
BRANCH  20  27
ATOM     24  C   LIG    1        3.856  12.430  -0.285  0.00  0.00    +0.120 A 
ATOM     25  C   LIG    1        2.957  11.639   0.415  0.00  0.00    +0.010 A 
ATOM     26  C   LIG    1        3.165  10.277   0.511  0.00  0.00    +0.070 A 
ATOM     27  C   LIG    1        4.274   9.700  -0.093  0.00  0.00    +0.100 A 
ATOM     28  C   LIG    1        5.176  10.494  -0.789  0.00  0.00    +0.030 A 
ATOM     29  C   LIG    1        4.964  11.855  -0.889  0.00  0.00    -0.060 A 
BRANCH  24  30
ATOM     30  O   LIG    1        3.650  13.771  -0.378  0.00  0.00    -0.320 OA
BRANCH  30  32
ATOM     31  C   LIG    1        4.219  16.003  -1.110  0.00  0.00    +0.070 C 
ATOM     32  C   LIG    1        4.616  14.525  -1.114  0.00  0.00    +0.170 C 
ENDBRANCH  30  32
ENDBRANCH  24  30
ENDBRANCH  20  27
ENDBRANCH  19  22
ENDBRANCH  18  19
ENDBRANCH   1  18
TORSDOF 10
