REMARK  Name = ZINCpe00000MJJVz.0
REMARK                            x       y       z     vdW  Elec       q    Type
REMARK                         _______ _______ _______ _____ _____    ______ ____
ROOT
ATOM      1  C   LIG    1        3.054   2.486   7.446  0.00  0.00    +0.210 C 
ATOM      2  C   LIG    1        1.638   2.310   6.961  0.00  0.00    +0.230 A 
ATOM      3  N   LIG    1        1.144   2.763   5.837  0.00  0.00    -0.480 NA
ATOM      4  C   LIG    1       -0.149   2.393   5.791  0.00  0.00    +0.160 A 
ATOM      5  N   LIG    1       -0.415   1.713   6.885  0.00  0.00    -0.250 NA
ATOM      6  N   LIG    1        0.652   1.653   7.605  0.00  0.00    -0.250 N 
ENDROOT
BRANCH   4   7
ATOM      7  C   LIG    1       -1.100   2.692   4.699  0.00  0.00    +0.610 C 
ATOM      8  N   LIG    1       -0.664   3.279   3.567  0.00  0.00    -0.590 N 
ATOM      9  C   LIG    1        0.731   3.729   3.439  0.00  0.00    +0.290 C 
ATOM     10  C   LIG    1        1.308   3.160   2.139  0.00  0.00    +0.170 C 
ATOM     11  N   LIG    1        0.432   3.524   1.017  0.00  0.00    -0.540 NA
ATOM     12  C   LIG    1       -0.901   2.927   1.167  0.00  0.00    +0.210 C 
ATOM     13  C   LIG    1       -1.570   3.486   2.427  0.00  0.00    +0.230 C 
ATOM     14  C   LIG    1       -2.890   2.757   2.681  0.00  0.00    +0.050 C 
ATOM     15  O   LIG    1       -2.275   2.408   4.823  0.00  0.00    -0.510 OA
BRANCH  11  16
ATOM     16  C   LIG    1        1.037   3.147  -0.267  0.00  0.00    +0.240 C 
BRANCH  16  17
ATOM     17  C   LIG    1        1.130   1.622  -0.359  0.00  0.00    +0.130 C 
BRANCH  17  18
ATOM     18  O   LIG    1       -0.185   1.065  -0.382  0.00  0.00    -0.560 OA
ATOM     19  H   LIG    1       -0.203   0.100  -0.439  0.00  0.00    +0.370 HD
ENDBRANCH  17  18
ENDBRANCH  16  17
ENDBRANCH  11  16
ENDBRANCH   4   7
BRANCH   6  20
ATOM     20  C   LIG    1        0.768   1.012   8.846  0.00  0.00    +0.110 A 
ATOM     21  C   LIG    1        1.952   0.373   9.190  0.00  0.00    +0.070 A 
ATOM     22  C   LIG    1        2.066  -0.254  10.416  0.00  0.00    +0.020 A 
ATOM     23  C   LIG    1        0.998  -0.253  11.297  0.00  0.00    +0.120 A 
ATOM     24  C   LIG    1       -0.186   0.379  10.953  0.00  0.00    +0.010 A 
ATOM     25  F   LIG    1        1.110  -0.871  12.493  0.00  0.00    -0.130 F 
ATOM     26  C   LIG    1       -0.302   1.012   9.731  0.00  0.00    +0.090 A 
ENDBRANCH   6  20
TORSDOF 5
