REMARK  Name = ZINCtV00000tRTQ9.0
REMARK                            x       y       z     vdW  Elec       q    Type
REMARK                         _______ _______ _______ _____ _____    ______ ____
ROOT
ATOM      1  P   LIG    1       -3.338  -0.083   1.897  0.00  0.00    +2.410 P 
ATOM      2  O   LIG    1       -3.392   0.792   3.089  0.00  0.00    -1.010 OA
ENDROOT
BRANCH   1   3
ATOM      3  N   LIG    1       -2.304  -1.324   2.176  0.00  0.00    -1.100 N 
ATOM      4  H   LIG    1       -1.843  -1.389   3.027  0.00  0.00    +0.430 HD
BRANCH   3   8
ATOM      5  C   LIG    1       -1.655  -4.200  -0.770  0.00  0.00    +0.110 A 
ATOM      6  C   LIG    1       -0.995  -4.293   0.447  0.00  0.00    -0.030 A 
ATOM      7  C   LIG    1       -1.210  -3.341   1.423  0.00  0.00    +0.020 A 
ATOM      8  C   LIG    1       -2.086  -2.290   1.187  0.00  0.00    +0.130 A 
ATOM      9  C   LIG    1       -2.750  -2.200  -0.029  0.00  0.00    -0.030 A 
ATOM     10  C   LIG    1       -2.530  -3.151  -1.007  0.00  0.00    +0.040 A 
BRANCH   5  11
ATOM     11  O   LIG    1       -1.443  -5.139  -1.731  0.00  0.00    -0.310 OA
BRANCH  11  13
ATOM     12  C   LIG    1       -1.053  -7.265  -0.651  0.00  0.00    +0.020 C 
ATOM     13  C   LIG    1       -0.442  -6.124  -1.467  0.00  0.00    +0.150 C 
ATOM     14  C   LIG    1        0.094  -6.674  -2.790  0.00  0.00    +0.070 C 
ENDBRANCH  11  13
ENDBRANCH   5  11
ENDBRANCH   3   8
ENDBRANCH   1   3
BRANCH   1  15
ATOM     15  O   LIG    1       -4.808  -0.667   1.593  0.00  0.00    -0.630 OA
BRANCH  15  16
ATOM     16  C   LIG    1       -5.461  -1.121   2.696  0.00  0.00    +0.050 A 
ATOM     17  C   LIG    1       -6.004  -0.221   3.600  0.00  0.00    +0.060 A 
ATOM     18  C   LIG    1       -6.668  -0.684   4.721  0.00  0.00    +0.040 A 
ATOM     19  C   LIG    1       -6.792  -2.043   4.941  0.00  0.00    +0.060 A 
ATOM     20  C   LIG    1       -6.251  -2.944   4.041  0.00  0.00    +0.010 A 
ATOM     21  C   LIG    1       -5.591  -2.486   2.916  0.00  0.00    +0.090 A 
ATOM     22  F   LIG    1       -5.068  -3.366   2.034  0.00  0.00    -0.120 F 
ENDBRANCH  15  16
ENDBRANCH   1  15
BRANCH   1  23
ATOM     23  O   LIG    1       -2.827   0.767   0.629  0.00  0.00    -0.630 OA
BRANCH  23  24
ATOM     24  C   LIG    1       -1.692   1.480   0.863  0.00  0.00    +0.070 A 
ATOM     25  C   LIG    1       -0.468   0.834   0.926  0.00  0.00    +0.010 A 
ATOM     26  C   LIG    1        0.685   1.561   1.158  0.00  0.00    +0.030 A 
ATOM     27  C   LIG    1        0.617   2.931   1.333  0.00  0.00    +0.050 A 
ATOM     28  C   LIG    1       -0.604   3.578   1.277  0.00  0.00    +0.020 A 
ATOM     29  C   LIG    1       -1.760   2.856   1.044  0.00  0.00    +0.110 A 
ATOM     30  F   LIG    1       -2.953   3.488   0.989  0.00  0.00    -0.120 F 
ENDBRANCH  23  24
ENDBRANCH   1  23
TORSDOF 8
