REMARK  Name = ZINCrD00000F5Lqo.0
REMARK                            x       y       z     vdW  Elec       q    Type
REMARK                         _______ _______ _______ _____ _____    ______ ____
ROOT
ATOM      1  C   LIG    1       -5.396   7.553   0.092  0.00  0.00    +0.440 C 
ATOM      2  O   LIG    1       -4.987   8.697   0.094  0.00  0.00    -0.470 OA
ENDROOT
BRANCH   1   3
ATOM      3  C   LIG    1       -6.778   7.301   0.104  0.00  0.00    -0.260 C 
ATOM      4  C   LIG    1       -7.689   8.373   0.118  0.00  0.00    +0.220 A 
ATOM      5  N   LIG    1       -9.034   8.283   0.124  0.00  0.00    -0.600 N 
ATOM      6  H   LIG    1       -9.476   7.420   0.119  0.00  0.00    +0.420 HD
ATOM      7  C   LIG    1       -9.765   9.454   0.143  0.00  0.00    +0.120 A 
ATOM      8  C   LIG    1      -11.157   9.618   0.157  0.00  0.00    +0.030 A 
ATOM      9  C   LIG    1      -11.715  10.875   0.167  0.00  0.00    +0.070 A 
ATOM     10  C   LIG    1      -10.916  12.005   0.165  0.00  0.00    +0.020 A 
ATOM     11  C   LIG    1       -9.541  11.868   0.151  0.00  0.00    +0.100 A 
ATOM     12  C   LIG    1       -8.975  10.605   0.141  0.00  0.00    -0.220 A 
ATOM     13  S   LIG    1       -7.298  10.048   0.122  0.00  0.00    +0.290 S 
BRANCH   3  14
ATOM     14  C   LIG    1       -7.260   5.952   0.102  0.00  0.00    +0.260 C 
ATOM     15  N   LIG    1       -7.642   4.882   0.100  0.00  0.00    -0.430 NA
ENDBRANCH   3  14
ENDBRANCH   1   3
BRANCH   1  16
ATOM     16  C   LIG    1       -4.421   6.404   0.078  0.00  0.00    +0.090 C 
BRANCH  16  17
ATOM     17  S   LIG    1       -2.726   7.050   0.065  0.00  0.00    +0.100 S 
BRANCH  17  25
ATOM     18  C   LIG    1        2.432   4.370   0.002  0.00  0.00    +0.160 C 
ATOM     19  C   LIG    1        1.153   3.574   0.010  0.00  0.00    +0.210 A 
ATOM     20  C   LIG    1        1.186   2.216   0.003  0.00  0.00    -0.050 A 
ATOM     21  C   LIG    1       -0.018   1.503   0.010  0.00  0.00    +0.240 A 
ATOM     22  N   LIG    1       -1.167   2.142   0.019  0.00  0.00    -0.470 NA
ATOM     23  C   LIG    1       -1.209   3.479   0.032  0.00  0.00    +0.460 A 
ATOM     24  N   LIG    1       -2.218   4.343   0.046  0.00  0.00    -0.530 NA
ATOM     25  C   LIG    1       -1.744   5.587   0.049  0.00  0.00    +0.240 A 
ATOM     26  N   LIG    1       -0.427   5.554   0.036  0.00  0.00    -0.310 NA
ATOM     27  C   LIG    1        0.002  -0.004   0.002  0.00  0.00    +0.170 C 
ATOM     28  N   LIG    1       -0.051   4.205   0.025  0.00  0.00    -0.330 N 
ENDBRANCH  17  25
ENDBRANCH  16  17
ENDBRANCH   1  16
TORSDOF 5
