REMARK  Name = ZINCpk00000eavue.0
REMARK                            x       y       z     vdW  Elec       q    Type
REMARK                         _______ _______ _______ _____ _____    ______ ____
ROOT
ATOM      1  N   LIG    1       -2.175   5.305   3.753  0.00  0.00    -0.560 N 
ATOM      2  C   LIG    1       -2.252   6.736   4.072  0.00  0.00    +0.310 C 
ATOM      3  C   LIG    1       -2.644   6.804   5.565  0.00  0.00    +0.010 C 
ATOM      4  C   LIG    1       -3.375   5.456   5.761  0.00  0.00    +0.090 C 
ATOM      5  C   LIG    1       -2.808   4.564   4.679  0.00  0.00    +0.520 C 
ATOM      6  O   LIG    1       -2.907   3.355   4.652  0.00  0.00    -0.500 OA
ENDROOT
BRANCH   1  11
ATOM      7  C   LIG    1       -0.773   2.892   1.354  0.00  0.00    +0.160 A 
ATOM      8  C   LIG    1       -0.258   3.750   0.393  0.00  0.00    -0.100 A 
ATOM      9  C   LIG    1       -0.380   5.118   0.548  0.00  0.00    +0.080 A 
ATOM     10  C   LIG    1       -1.014   5.635   1.661  0.00  0.00    -0.060 A 
ATOM     11  C   LIG    1       -1.532   4.781   2.626  0.00  0.00    +0.200 A 
ATOM     12  C   LIG    1       -1.415   3.407   2.469  0.00  0.00    -0.030 A 
BRANCH   7  14
ATOM     13  C   LIG    1        0.014   1.086   0.023  0.00  0.00    +0.250 C 
ATOM     14  O   LIG    1       -0.654   1.547   1.200  0.00  0.00    -0.310 OA
ENDBRANCH   7  14
ENDBRANCH   1  11
BRANCH   3  15
ATOM     15  C   LIG    1       -3.571   7.964   5.826  0.00  0.00    +0.540 C 
ATOM     16  N   LIG    1       -4.028   8.194   7.073  0.00  0.00    -0.710 N 
ATOM     17  H   LIG    1       -3.760   7.613   7.802  0.00  0.00    +0.410 HD
ATOM     18  O   LIG    1       -3.905   8.690   4.914  0.00  0.00    -0.530 OA
BRANCH  16  19
ATOM     19  C   LIG    1       -4.928   9.321   7.327  0.00  0.00    +0.230 C 
ATOM     20  C   LIG    1       -6.369   8.898   7.035  0.00  0.00    +0.030 C 
BRANCH  19  21
ATOM     21  C   LIG    1       -4.809   9.749   8.791  0.00  0.00    +0.320 C 
BRANCH  21  22
ATOM     22  N   LIG    1       -3.462  10.266   9.040  0.00  0.00    -0.380 N 
ATOM     23  C   LIG    1       -3.158  11.476   9.555  0.00  0.00    +0.220 A 
ATOM     24  C   LIG    1       -1.810  11.568   9.627  0.00  0.00    -0.120 A 
ATOM     25  C   LIG    1       -1.271  10.373   9.139  0.00  0.00    +0.230 A 
ATOM     26  N   LIG    1       -2.260   9.589   8.793  0.00  0.00    -0.290 NA
ENDBRANCH  21  22
ENDBRANCH  19  21
ENDBRANCH  16  19
ENDBRANCH   3  15
TORSDOF 6
