REMARK  Name = ZINCqH0000038sBB.0
REMARK                            x       y       z     vdW  Elec       q    Type
REMARK                         _______ _______ _______ _____ _____    ______ ____
ROOT
ATOM      1  N   LIG    1       -0.990  10.937  -3.576  0.00  0.00    -0.690 NA
ATOM      2  C   LIG    1       -1.849  10.300  -4.366  0.00  0.00    +0.500 A 
ATOM      3  C   LIG    1       -3.111  10.775  -4.785  0.00  0.00    -0.110 A 
ATOM      4  C   LIG    1       -3.674   9.837  -5.576  0.00  0.00    +0.340 A 
ATOM      5  N   LIG    1       -2.821   8.777  -5.681  0.00  0.00    -0.390 N 
ATOM      6  N   LIG    1       -1.677   9.056  -4.922  0.00  0.00    -0.480 N 
ATOM      7  H   LIG    1       -0.905   8.478  -4.811  0.00  0.00    +0.450 HD
ENDROOT
BRANCH   1  10
ATOM      8  N   LIG    1       -0.421  12.795  -2.298  0.00  0.00    -0.720 N 
ATOM      9  H   LIG    1        0.425  12.380  -2.067  0.00  0.00    +0.400 HD
ATOM     10  C   LIG    1       -1.292  12.150  -3.099  0.00  0.00    +0.690 C 
ATOM     11  O   LIG    1       -2.354  12.671  -3.388  0.00  0.00    -0.620 OA
BRANCH   8  12
ATOM     12  C   LIG    1       -0.751  14.124  -1.776  0.00  0.00    +0.290 C 
ATOM     13  C   LIG    1        0.016  14.365  -0.474  0.00  0.00    +0.040 C 
BRANCH  12  20
ATOM     14  C   LIG    1       -2.086  16.686  -1.781  0.00  0.00    +0.090 C 
ATOM     15  C   LIG    1       -1.005  16.398  -2.790  0.00  0.00    -0.080 A 
ATOM     16  C   LIG    1       -0.651  17.359  -3.718  0.00  0.00    +0.000 A 
ATOM     17  C   LIG    1        0.342  17.094  -4.644  0.00  0.00    +0.000 A 
ATOM     18  C   LIG    1        0.980  15.868  -4.641  0.00  0.00    -0.010 A 
ATOM     19  C   LIG    1        0.630  14.909  -3.710  0.00  0.00    +0.020 A 
ATOM     20  C   LIG    1       -0.366  15.172  -2.788  0.00  0.00    -0.090 A 
ENDBRANCH  12  20
ENDBRANCH   8  12
ENDBRANCH   1  10
BRANCH   5  21
ATOM     21  C   LIG    1       -3.064   7.555  -6.452  0.00  0.00    +0.350 C 
BRANCH  21  22
ATOM     22  C   LIG    1       -3.870   6.569  -5.603  0.00  0.00    +0.100 C 
BRANCH  22  23
ATOM     23  C   LIG    1       -4.119   5.312  -6.396  0.00  0.00    +0.120 A 
ATOM     24  C   LIG    1       -3.741   4.089  -5.873  0.00  0.00    -0.030 A 
ATOM     25  C   LIG    1       -3.975   2.938  -6.610  0.00  0.00    +0.070 A 
ATOM     26  C   LIG    1       -4.583   3.061  -7.850  0.00  0.00    -0.030 A 
ATOM     27  C   LIG    1       -4.929   4.318  -8.309  0.00  0.00    +0.270 A 
ATOM     28  N   LIG    1       -4.696   5.390  -7.579  0.00  0.00    -0.480 NA
ENDBRANCH  22  23
ENDBRANCH  21  22
ENDBRANCH   5  21
TORSDOF 6
