REMARK  Name = ZINCrD000000CxXw.0
REMARK                            x       y       z     vdW  Elec       q    Type
REMARK                         _______ _______ _______ _____ _____    ______ ____
ROOT
ATOM      1  C   LIG    1       -3.894  -0.436  -0.479  0.00  0.00    +0.000 A 
ATOM      2  N   LIG    1       -2.640  -0.053  -0.624  0.00  0.00    -0.240 NA
ATOM      3  N   LIG    1       -2.404   0.994   0.082  0.00  0.00    -0.230 N 
ATOM      4  C   LIG    1       -3.538   1.373   0.746  0.00  0.00    +0.090 A 
ATOM      5  C   LIG    1       -4.514   0.473   0.406  0.00  0.00    +0.040 A 
ENDROOT
BRANCH   3   6
ATOM      6  C   LIG    1       -1.171   1.652   0.155  0.00  0.00    +0.130 A 
ATOM      7  C   LIG    1       -0.436   1.885  -1.000  0.00  0.00    +0.050 A 
ATOM      8  C   LIG    1        0.777   2.540  -0.925  0.00  0.00    +0.060 A 
ATOM      9  C   LIG    1        1.264   2.960   0.299  0.00  0.00    +0.060 A 
ATOM     10  C   LIG    1        0.537   2.726   1.453  0.00  0.00    -0.020 A 
ATOM     11 CL   LIG    1        1.151   3.255   2.988  0.00  0.00    -0.050 Cl
ATOM     12  C   LIG    1       -0.678   2.070   1.385  0.00  0.00    +0.050 A 
ENDBRANCH   3   6
BRANCH   1  14
ATOM     13  O   LIG    1       -5.706  -1.843  -0.917  0.00  0.00    -0.520 OA
ATOM     14  C   LIG    1       -4.535  -1.598  -1.129  0.00  0.00    +0.640 C 
ATOM     15  N   LIG    1       -3.820  -2.386  -1.956  0.00  0.00    -0.640 N 
ATOM     16  C   LIG    1       -2.437  -2.418  -2.455  0.00  0.00    +0.270 C 
ATOM     17  C   LIG    1       -2.594  -3.939  -2.623  0.00  0.00    +0.130 C 
ATOM     18  C   LIG    1       -4.081  -3.587  -2.763  0.00  0.00    +0.270 C 
BRANCH  17  19
ATOM     19  C   LIG    1       -1.958  -4.494  -3.899  0.00  0.00    -0.020 C 
ATOM     20  C   LIG    1       -1.544  -5.967  -3.899  0.00  0.00    +0.040 C 
ATOM     21  C   LIG    1       -0.476  -4.872  -3.844  0.00  0.00    +0.030 C 
ENDBRANCH  17  19
BRANCH  17  22
ATOM     22  O   LIG    1       -2.278  -4.701  -1.457  0.00  0.00    -0.530 OA
ATOM     23  H   LIG    1       -2.632  -4.330  -0.637  0.00  0.00    +0.380 HD
ENDBRANCH  17  22
ENDBRANCH   1  14
BRANCH   4  24
ATOM     24  C   LIG    1       -3.683   2.525   1.652  0.00  0.00    +0.030 A 
ATOM     25  C   LIG    1       -4.719   2.744   2.508  0.00  0.00    +0.010 A 
ATOM     26  C   LIG    1       -4.445   3.953   3.176  0.00  0.00    -0.050 A 
ATOM     27  C   LIG    1       -3.274   4.414   2.695  0.00  0.00    +0.190 A 
ATOM     28  O   LIG    1       -2.816   3.549   1.775  0.00  0.00    -0.170 OA
ENDBRANCH   4  24
TORSDOF 5
