REMARK  Name = ZINCqH0000034oX5.0
REMARK                            x       y       z     vdW  Elec       q    Type
REMARK                         _______ _______ _______ _____ _____    ______ ____
ROOT
ATOM      1  C   LIG    1        4.672  -0.114  -0.157  0.00  0.00    +0.610 C 
ATOM      2  N   LIG    1        3.496  -0.764  -0.058  0.00  0.00    -0.630 N 
ATOM      3  H   LIG    1        3.478  -1.733  -0.023  0.00  0.00    +0.420 HD
ATOM      4  O   LIG    1        4.698   1.102  -0.148  0.00  0.00    -0.500 OA
ENDROOT
BRANCH   2   5
ATOM      5  C   LIG    1        2.308  -0.045  -0.005  0.00  0.00    +0.400 A 
ATOM      6  C   LIG    1        2.305   1.335  -0.217  0.00  0.00    -0.070 A 
ATOM      7  C   LIG    1        1.099   2.009  -0.155  0.00  0.00    +0.200 A 
ATOM      8  N   LIG    1       -0.009   1.332   0.102  0.00  0.00    -0.530 NA
ATOM      9  C   LIG    1        0.024   0.022   0.299  0.00  0.00    +0.400 A 
ATOM     10  C   LIG    1        1.047   3.499  -0.378  0.00  0.00    +0.140 C 
ATOM     11  N   LIG    1        1.159  -0.661   0.249  0.00  0.00    -0.550 NA
BRANCH   9  12
ATOM     12  C   LIG    1       -1.241  -0.699   0.585  0.00  0.00    -0.050 A 
ATOM     13  C   LIG    1       -2.445   0.001   0.649  0.00  0.00    +0.070 A 
ATOM     14  C   LIG    1       -3.620  -0.675   0.910  0.00  0.00    +0.000 A 
ATOM     15  C   LIG    1       -3.602  -2.042   1.118  0.00  0.00    +0.030 A 
ATOM     16  C   LIG    1       -2.409  -2.741   1.061  0.00  0.00    +0.000 A 
ATOM     17  C   LIG    1       -1.230  -2.076   0.795  0.00  0.00    +0.060 A 
ENDBRANCH   9  12
ENDBRANCH   2   5
BRANCH   1  22
ATOM     18  N   LIG    1        7.194  -0.369  -0.301  0.00  0.00    -0.240 N 
ATOM     19  N   LIG    1        8.040  -1.330  -0.412  0.00  0.00    -0.250 NA
ATOM     20  C   LIG    1        7.429  -2.485  -0.477  0.00  0.00    +0.060 A 
ATOM     21  C   LIG    1        6.055  -2.249  -0.394  0.00  0.00    -0.010 A 
ATOM     22  C   LIG    1        5.925  -0.876  -0.277  0.00  0.00    -0.050 A 
BRANCH  20  23
ATOM     23  C   LIG    1        8.091  -3.832  -0.617  0.00  0.00    +0.040 C 
ATOM     24  C   LIG    1        7.250  -5.069  -0.296  0.00  0.00    +0.030 C 
ATOM     25  C   LIG    1        8.356  -4.625   0.665  0.00  0.00    +0.040 C 
ENDBRANCH  20  23
BRANCH  18  27
ATOM     26  C   LIG    1        7.612   1.465   1.261  0.00  0.00    +0.040 C 
ATOM     27  C   LIG    1        7.537   1.052  -0.210  0.00  0.00    +0.340 C 
ENDBRANCH  18  27
ENDBRANCH   1  22
TORSDOF 5
