REMARK  Name = ZINCrD00000eD5X5.0
REMARK                            x       y       z     vdW  Elec       q    Type
REMARK                         _______ _______ _______ _____ _____    ______ ____
ROOT
ATOM      1  N   LIG    1        1.450  -4.714   2.777  0.00  0.00    -0.700 N 
ATOM      2  H   LIG    1        1.517  -4.087   3.514  0.00  0.00    +0.420 HD
ENDROOT
BRANCH   1   9
ATOM      3  C   LIG    1        1.355  -9.383   1.440  0.00  0.00    +0.240 A 
ATOM      4  N   LIG    1        1.437 -10.449   2.197  0.00  0.00    -0.260 NA
ATOM      5  N   LIG    1        1.554 -10.108   3.433  0.00  0.00    -0.250 NA
ATOM      6  C   LIG    1        1.553  -8.787   3.523  0.00  0.00    +0.110 A 
ATOM      7  C   LIG    1        1.651  -7.884   4.598  0.00  0.00    +0.190 A 
ATOM      8  C   LIG    1        1.622  -6.549   4.346  0.00  0.00    -0.020 A 
ATOM      9  C   LIG    1        1.484  -6.083   3.023  0.00  0.00    +0.420 A 
ATOM     10  N   LIG    1        1.393  -6.924   2.020  0.00  0.00    -0.340 NA
ATOM     11  N   LIG    1        1.425  -8.302   2.245  0.00  0.00    -0.270 N 
BRANCH   3  15
ATOM     12  C   LIG    1        2.669  -9.394  -2.230  0.00  0.00    +0.070 C 
ATOM     13  C   LIG    1        2.315 -10.029  -0.884  0.00  0.00    -0.020 C 
ATOM     14  C   LIG    1        0.947 -10.702  -0.759  0.00  0.00    +0.080 C 
ATOM     15  C   LIG    1        1.209  -9.367  -0.060  0.00  0.00    +0.050 C 
ENDBRANCH   3  15
ENDBRANCH   1   9
BRANCH   1  16
ATOM     16  C   LIG    1        1.312  -4.220   1.405  0.00  0.00    +0.270 C 
BRANCH  16  17
ATOM     17  C   LIG    1        1.302  -2.690   1.413  0.00  0.00    +0.030 C 
BRANCH  17  18
ATOM     18  C   LIG    1        1.158  -2.174  -0.020  0.00  0.00    +0.110 C 
BRANCH  18  19
ATOM     19  C   LIG    1        1.148  -0.667  -0.013  0.00  0.00    +0.180 A 
ATOM     20  C   LIG    1        2.337   0.044  -0.020  0.00  0.00    -0.080 A 
ATOM     21  C   LIG    1        2.278   1.429  -0.012  0.00  0.00    +0.320 A 
ATOM     22  N   LIG    1        1.095   2.022   0.003  0.00  0.00    -0.520 NA
ATOM     23  C   LIG    1       -0.016   1.314   0.009  0.00  0.00    +0.330 A 
ATOM     24  N   LIG    1        0.002  -0.004   0.002  0.00  0.00    -0.510 NA
BRANCH  23  25
ATOM     25  C   LIG    1       -1.342   2.029   0.019  0.00  0.00    -0.000 C 
ATOM     26  C   LIG    1       -2.139   1.643  -1.228  0.00  0.00    +0.050 C 
ATOM     27  C   LIG    1       -1.106   3.541   0.026  0.00  0.00    +0.050 C 
ATOM     28  C   LIG    1       -2.127   1.630   1.270  0.00  0.00    +0.050 C 
ENDBRANCH  23  25
ENDBRANCH  18  19
ENDBRANCH  17  18
ENDBRANCH  16  17
ENDBRANCH   1  16
TORSDOF 7
