REMARK  Name = ZINCrH000004l2r1.0
REMARK                            x       y       z     vdW  Elec       q    Type
REMARK                         _______ _______ _______ _____ _____    ______ ____
ROOT
ATOM      1  N   LIG    1       -2.270   2.014  -0.863  0.00  0.00    -1.110 NA
ATOM      2  H   LIG    1       -2.858   1.317  -0.532  0.00  0.00    +0.420 HD
ENDROOT
BRANCH   1   3
ATOM      3  S   LIG    1       -2.404   2.535  -2.429  0.00  0.00    +2.690 S 
ATOM      4  O   LIG    1       -2.439   3.955  -2.378  0.00  0.00    -0.940 OA
ATOM      5  O   LIG    1       -3.430   1.754  -3.026  0.00  0.00    -0.940 OA
BRANCH   3  10
ATOM      6  C   LIG    1        0.390   0.542  -4.536  0.00  0.00    -0.140 A 
ATOM      7  C   LIG    1        1.458   1.442  -4.544  0.00  0.00    +0.140 A 
ATOM      8  C   LIG    1        1.333   2.660  -3.909  0.00  0.00    -0.010 A 
ATOM      9  C   LIG    1        0.153   2.993  -3.269  0.00  0.00    +0.170 A 
ATOM     10  C   LIG    1       -0.907   2.104  -3.252  0.00  0.00    -0.690 A 
ATOM     11  C   LIG    1       -0.797   0.882  -3.884  0.00  0.00    +0.200 A 
BRANCH   6  12
ATOM     12  C   LIG    1        0.516  -0.765  -5.214  0.00  0.00    +0.510 C 
ATOM     13  O   LIG    1       -0.414  -1.546  -5.205  0.00  0.00    -0.500 OA
BRANCH  12  15
ATOM     14  C   LIG    1        1.715  -2.390  -6.487  0.00  0.00    +0.290 C 
ATOM     15  O   LIG    1        1.662  -1.090  -5.842  0.00  0.00    -0.360 OA
ENDBRANCH  12  15
ENDBRANCH   6  12
ENDBRANCH   3  10
ENDBRANCH   1   3
BRANCH   1  16
ATOM     16  C   LIG    1       -1.265   2.607   0.022  0.00  0.00    +0.390 C 
BRANCH  16  17
ATOM     17  C   LIG    1       -1.812   2.680   1.425  0.00  0.00    -0.100 A 
ATOM     18  C   LIG    1       -2.569   1.638   1.926  0.00  0.00    +0.050 A 
ATOM     19  C   LIG    1       -3.066   1.702   3.214  0.00  0.00    -0.010 A 
ATOM     20  C   LIG    1       -2.814   2.814   3.999  0.00  0.00    +0.110 A 
ATOM     21  C   LIG    1       -2.060   3.860   3.493  0.00  0.00    -0.010 A 
ATOM     22  F   LIG    1       -3.304   2.880   5.256  0.00  0.00    -0.140 F 
ATOM     23  C   LIG    1       -1.560   3.792   2.207  0.00  0.00    +0.070 A 
ENDBRANCH  16  17
BRANCH  16  24
ATOM     24  C   LIG    1       -0.022   1.755   0.012  0.00  0.00    -0.210 A 
ATOM     25  C   LIG    1        1.229   2.219   0.002  0.00  0.00    +0.020 A 
ATOM     26  C   LIG    1        2.212   1.245  -0.012  0.00  0.00    +0.010 A 
ATOM     27  C   LIG    1        1.761  -0.010  -0.015  0.00  0.00    -0.050 A 
ATOM     28  S   LIG    1        0.002  -0.004   0.002  0.00  0.00    +0.120 S 
ENDBRANCH  16  24
ENDBRANCH   1  16
TORSDOF 7
