REMARK  Name = ZINCvU0000000I14.0
REMARK                            x       y       z     vdW  Elec       q    Type
REMARK                         _______ _______ _______ _____ _____    ______ ____
ROOT
ATOM      1  C   LIG    1       -1.212  -0.896   0.005  0.00  0.00    +0.180 C 
ATOM      2  C   LIG    1        0.002  -0.003  -0.007  0.00  0.00    +0.140 A 
ATOM      3  N   LIG    1        1.248  -0.409  -0.018  0.00  0.00    -0.300 NA
ATOM      4  N   LIG    1        2.095   0.703  -0.028  0.00  0.00    -0.300 N 
ATOM      5  C   LIG    1        3.461   0.825  -0.039  0.00  0.00    +0.160 A 
ATOM      6  C   LIG    1        4.017   2.089  -0.046  0.00  0.00    -0.090 A 
ATOM      7  C   LIG    1        3.176   3.200  -0.041  0.00  0.00    +0.230 A 
ATOM      8  N   LIG    1        1.869   3.046  -0.030  0.00  0.00    -0.460 NA
ATOM      9  C   LIG    1        1.315   1.829  -0.023  0.00  0.00    +0.290 A 
ATOM     10  C   LIG    1       -0.017   1.397  -0.010  0.00  0.00    -0.200 A 
ENDROOT
BRANCH  10  11
ATOM     11  C   LIG    1       -1.221   2.260  -0.007  0.00  0.00    +0.010 A 
ATOM     12  C   LIG    1       -1.495   3.084  -1.098  0.00  0.00    +0.020 A 
ATOM     13  C   LIG    1       -2.621   3.881  -1.091  0.00  0.00    +0.000 A 
ATOM     14  C   LIG    1       -3.471   3.873   0.000  0.00  0.00    +0.000 A 
ATOM     15  C   LIG    1       -3.202   3.062   1.088  0.00  0.00    +0.000 A 
ATOM     16  C   LIG    1       -2.082   2.256   1.091  0.00  0.00    +0.010 A 
ENDBRANCH  10  11
BRANCH   7  17
ATOM     17  C   LIG    1        3.768   4.587  -0.048  0.00  0.00    -0.020 C 
ATOM     18  C   LIG    1        4.621   4.771  -1.305  0.00  0.00    +0.050 C 
ATOM     19  C   LIG    1        4.642   4.775   1.193  0.00  0.00    +0.050 C 
ATOM     20  C   LIG    1        2.641   5.622  -0.041  0.00  0.00    +0.050 C 
ENDBRANCH   7  17
BRANCH   5  21
ATOM     21  S   LIG    1        4.489  -0.607  -0.045  0.00  0.00    +0.100 S 
BRANCH  21  22
ATOM     22  C   LIG    1        6.120   0.178  -0.060  0.00  0.00    +0.080 C 
BRANCH  22  23
ATOM     23  C   LIG    1        7.188  -0.885  -0.067  0.00  0.00    +0.540 C 
ATOM     24  N   LIG    1        8.489  -0.533  -0.078  0.00  0.00    -0.660 N 
ATOM     25  H   LIG    1        8.738   0.402  -0.150  0.00  0.00    +0.410 HD
ATOM     26  O   LIG    1        6.877  -2.058  -0.062  0.00  0.00    -0.500 OA
BRANCH  24  27
ATOM     27  C   LIG    1        9.481  -1.516   0.013  0.00  0.00    +0.140 A 
ATOM     28  C   LIG    1       10.661  -1.252   0.695  0.00  0.00    -0.010 A 
ATOM     29  C   LIG    1       11.636  -2.226   0.788  0.00  0.00    +0.030 A 
ATOM     30  C   LIG    1       11.442  -3.459   0.194  0.00  0.00    +0.000 A 
ATOM     31  C   LIG    1       10.270  -3.723  -0.491  0.00  0.00    +0.030 A 
ATOM     32  C   LIG    1        9.289  -2.756  -0.583  0.00  0.00    +0.020 A 
ENDBRANCH  24  27
ENDBRANCH  22  23
ENDBRANCH  21  22
ENDBRANCH   5  21
TORSDOF 6
