REMARK  Name = ZINCqH00000080Ok.0
REMARK                            x       y       z     vdW  Elec       q    Type
REMARK                         _______ _______ _______ _____ _____    ______ ____
ROOT
ATOM      1  C   LIG    1       -1.281   1.363   3.609  0.00  0.00    +0.250 C 
ENDROOT
BRANCH   1   2
ATOM      2  C   LIG    1       -0.575   0.877   2.369  0.00  0.00    +0.520 C 
ATOM      3  N   LIG    1       -0.698   1.558   1.213  0.00  0.00    -0.720 N 
ATOM      4  H   LIG    1       -1.241   2.362   1.179  0.00  0.00    +0.400 HD
ATOM      5  O   LIG    1        0.103  -0.128   2.412  0.00  0.00    -0.530 OA
BRANCH   3   6
ATOM      6  C   LIG    1       -0.013   1.086   0.008  0.00  0.00    +0.280 C 
ATOM      7  C   LIG    1        1.423   1.615  -0.003  0.00  0.00    +0.040 C 
BRANCH   6   8
ATOM      8  C   LIG    1       -0.742   1.585  -1.213  0.00  0.00    -0.100 A 
ATOM      9  C   LIG    1       -1.257   2.868  -1.234  0.00  0.00    +0.000 A 
ATOM     10  C   LIG    1       -1.922   3.327  -2.355  0.00  0.00    +0.020 A 
ATOM     11  C   LIG    1       -2.079   2.501  -3.453  0.00  0.00    +0.000 A 
ATOM     12  C   LIG    1       -1.568   1.216  -3.430  0.00  0.00    +0.020 A 
ATOM     13  C   LIG    1       -0.899   0.759  -2.310  0.00  0.00    +0.020 A 
ENDBRANCH   6   8
ENDBRANCH   3   6
ENDBRANCH   1   2
BRANCH   1  14
ATOM     14  N   LIG    1       -0.991   0.457   4.723  0.00  0.00    -0.710 N 
ATOM     15  H   LIG    1       -0.747  -0.466   4.547  0.00  0.00    +0.410 HD
ATOM     16  C   LIG    1       -1.062   0.904   5.992  0.00  0.00    +0.570 C 
ATOM     17  O   LIG    1       -1.367   2.060   6.213  0.00  0.00    -0.530 OA
BRANCH  16  18
ATOM     18  C   LIG    1       -0.769  -0.010   7.117  0.00  0.00    -0.140 A 
ATOM     19  C   LIG    1       -0.424  -1.339   6.867  0.00  0.00    +0.040 A 
ATOM     20  C   LIG    1       -0.148  -2.187   7.921  0.00  0.00    +0.010 A 
ATOM     21  C   LIG    1       -0.222  -1.724   9.222  0.00  0.00    +0.040 A 
ATOM     22  C   LIG    1       -0.568  -0.408   9.477  0.00  0.00    -0.090 A 
ATOM     23  C   LIG    1       -0.646   0.087  10.898  0.00  0.00    +0.090 C 
ATOM     24  C   LIG    1       -0.842   0.450   8.432  0.00  0.00    +0.080 A 
ENDBRANCH  16  18
ENDBRANCH   1  14
BRANCH   1  25
ATOM     25  C   LIG    1       -2.790   1.395   3.358  0.00  0.00    +0.060 C 
BRANCH  25  26
ATOM     26  C   LIG    1       -3.496   2.005   4.571  0.00  0.00    +0.110 C 
BRANCH  26  28
ATOM     27  C   LIG    1       -5.936   2.786   5.794  0.00  0.00    +0.140 C 
ATOM     28  S   LIG    1       -5.285   2.043   4.273  0.00  0.00    -0.270 S 
ENDBRANCH  26  28
ENDBRANCH  25  26
ENDBRANCH   1  25
TORSDOF 8
