REMARK  Name = ZINCrg000000rWpy.0
REMARK                            x       y       z     vdW  Elec       q    Type
REMARK                         _______ _______ _______ _____ _____    ______ ____
ROOT
ATOM      1  N   LIG    1       -4.245   0.748   2.264  0.00  0.00    -0.650 N 
ATOM      2  H   LIG    1       -4.667   0.890   1.401  0.00  0.00    +0.430 HD
ATOM      3  C   LIG    1       -2.922   0.960   2.410  0.00  0.00    +0.580 C 
ATOM      4  O   LIG    1       -2.413   0.883   3.512  0.00  0.00    -0.490 OA
ENDROOT
BRANCH   1   7
ATOM      5  C   LIG    1       -7.029   1.339   2.262  0.00  0.00    +0.140 C 
ATOM      6  C   LIG    1       -6.373   0.591   3.394  0.00  0.00    -0.050 A 
ATOM      7  C   LIG    1       -5.011   0.324   3.354  0.00  0.00    +0.150 A 
ATOM      8  C   LIG    1       -4.409  -0.360   4.403  0.00  0.00    +0.080 A 
ATOM      9  C   LIG    1       -5.167  -0.777   5.479  0.00  0.00    +0.050 A 
ATOM     10  C   LIG    1       -6.525  -0.515   5.513  0.00  0.00    +0.080 A 
ATOM     11  C   LIG    1       -7.127   0.166   4.471  0.00  0.00    -0.020 A 
BRANCH  11  12
ATOM     12  N   LIG    1       -8.580   0.445   4.512  0.00  0.00    +0.020 N 
ATOM     13  O   LIG    1       -9.233   0.424   3.484  0.00  0.00    -0.150 OA
ATOM     14  O   LIG    1       -9.122   0.696   5.573  0.00  0.00    -0.150 OA
ENDBRANCH  11  12
ENDBRANCH   1   7
BRANCH   3  15
ATOM     15  C   LIG    1       -2.098   1.284   1.241  0.00  0.00    +0.080 C 
ATOM     16  N   LIG    1       -2.650   1.363   0.071  0.00  0.00    -0.200 NA
ATOM     17  N   LIG    1       -1.895   1.667  -1.067  0.00  0.00    -0.440 N 
ATOM     18  C   LIG    1       -0.557   1.508  -1.059  0.00  0.00    +0.500 C 
ATOM     19  C   LIG    1        0.130   1.006   0.186  0.00  0.00    +0.100 C 
ATOM     20  O   LIG    1        0.092   1.767  -2.050  0.00  0.00    -0.500 OA
ATOM     21  C   LIG    1       -0.619   1.518   1.417  0.00  0.00    +0.120 C 
BRANCH  17  22
ATOM     22  C   LIG    1       -2.562   2.161  -2.274  0.00  0.00    +0.300 C 
ATOM     23  C   LIG    1       -3.579   1.120  -2.776  0.00  0.00    +0.080 C 
ATOM     24  C   LIG    1       -4.495   1.789  -3.821  0.00  0.00    -0.300 C 
ATOM     25  S   LIG    1       -4.527   3.559  -3.363  0.00  0.00    +2.400 S 
ATOM     26  O   LIG    1       -5.821   3.899  -2.885  0.00  0.00    -0.920 OA
ATOM     27  O   LIG    1       -3.929   4.325  -4.400  0.00  0.00    -0.920 OA
ATOM     28  C   LIG    1       -3.367   3.445  -1.948  0.00  0.00    -0.310 C 
ENDBRANCH  17  22
ENDBRANCH   3  15
TORSDOF 4
