REMARK  Name = ZINCCC00000009dB.0
REMARK                            x       y       z     vdW  Elec       q    Type
REMARK                         _______ _______ _______ _____ _____    ______ ____
ROOT
ATOM      1  C   LIG    1       -4.777   2.223   3.467  0.00  0.00    +0.520 C 
ATOM      2  N   LIG    1       -3.882   3.229   3.437  0.00  0.00    -0.720 N 
ATOM      3  H   LIG    1       -4.117   4.098   3.798  0.00  0.00    +0.410 HD
ATOM      4  O   LIG    1       -4.483   1.136   3.016  0.00  0.00    -0.510 OA
ENDROOT
BRANCH   1   5
ATOM      5  C   LIG    1       -6.144   2.447   4.061  0.00  0.00    +0.120 C 
BRANCH   5   9
ATOM      6  C   LIG    1       -8.418  -1.163   3.808  0.00  0.00    +0.230 A 
ATOM      7  C   LIG    1       -8.460  -0.241   2.773  0.00  0.00    -0.080 A 
ATOM      8  C   LIG    1       -7.729   0.928   2.859  0.00  0.00    +0.120 A 
ATOM      9  C   LIG    1       -6.946   1.174   3.971  0.00  0.00    -0.140 A 
ATOM     10  C   LIG    1       -6.901   0.257   5.005  0.00  0.00    +0.180 A 
ATOM     11  C   LIG    1       -7.635  -0.911   4.926  0.00  0.00    -0.710 A 
BRANCH  11  12
ATOM     12  S   LIG    1       -7.579  -2.079   6.244  0.00  0.00    +2.700 S 
ATOM     13  O   LIG    1       -6.731  -1.521   7.239  0.00  0.00    -0.960 OA
ATOM     14  O   LIG    1       -7.346  -3.347   5.646  0.00  0.00    -0.940 OA
BRANCH  12  15
ATOM     15  N   LIG    1       -9.095  -2.145   6.906  0.00  0.00    -1.000 NA
ATOM     16  C   LIG    1       -9.476  -1.258   8.016  0.00  0.00    +0.280 C 
ATOM     17  C   LIG    1      -10.804  -0.575   7.650  0.00  0.00    +0.210 C 
ATOM     18  O   LIG    1      -11.758  -1.573   7.279  0.00  0.00    -0.370 OA
ATOM     19  C   LIG    1      -11.395  -2.328   6.121  0.00  0.00    +0.210 C 
ATOM     20  C   LIG    1      -10.100  -3.097   6.405  0.00  0.00    +0.280 C 
ENDBRANCH  12  15
ENDBRANCH  11  12
BRANCH   6  22
ATOM     21  C   LIG    1       -9.923  -2.503   2.548  0.00  0.00    +0.250 C 
ATOM     22  O   LIG    1       -9.141  -2.311   3.728  0.00  0.00    -0.310 OA
ENDBRANCH   6  22
ENDBRANCH   5   9
ENDBRANCH   1   5
BRANCH   2  23
ATOM     23  C   LIG    1       -2.553   3.011   2.860  0.00  0.00    +0.310 C 
BRANCH  23  24
ATOM     24  C   LIG    1       -1.578   3.990   3.460  0.00  0.00    -0.120 A 
ATOM     25  C   LIG    1       -1.962   5.299   3.683  0.00  0.00    +0.060 A 
ATOM     26  C   LIG    1       -1.070   6.198   4.239  0.00  0.00    +0.050 A 
ATOM     27  C   LIG    1        0.212   5.790   4.563  0.00  0.00    +0.090 A 
ATOM     28  C   LIG    1        0.599   4.478   4.334  0.00  0.00    +0.090 A 
ATOM     29  F   LIG    1        1.850   4.077   4.649  0.00  0.00    -0.110 F 
ATOM     30  F   LIG    1        1.085   6.669   5.101  0.00  0.00    -0.110 F 
ATOM     31  C   LIG    1       -0.297   3.580   3.782  0.00  0.00    +0.020 A 
ENDBRANCH  23  24
BRANCH  23  32
ATOM     32  C   LIG    1       -2.615   3.217   1.345  0.00  0.00    +0.040 C 
ATOM     33  C   LIG    1       -3.606   2.223   0.735  0.00  0.00    +0.110 C 
ATOM     34  C   LIG    1       -3.074   4.645   1.043  0.00  0.00    +0.100 C 
BRANCH  32  35
ATOM     35  N   LIG    1       -1.283   2.998   0.766  0.00  0.00    -0.380 N 
ATOM     36  C   LIG    1       -0.834   1.621   1.064  0.00  0.00    +0.240 C 
ATOM     37  C   LIG    1       -0.053   1.178  -0.199  0.00  0.00    +0.080 C 
ATOM     38  C   LIG    1       -0.888   1.834  -1.330  0.00  0.00    +0.070 C 
ATOM     39  C   LIG    1       -1.344   3.166  -0.698  0.00  0.00    +0.250 C 
ATOM     40  H   LIG    1       -0.629   3.660   1.157  0.00  0.00    +0.420 HD
ENDBRANCH  32  35
ENDBRANCH  23  32
ENDBRANCH   2  23
TORSDOF 9
