REMARK  Name = ZINCrD0000073Xfo.0
REMARK                            x       y       z     vdW  Elec       q    Type
REMARK                         _______ _______ _______ _____ _____    ______ ____
ROOT
ATOM      1  C   LIG    1       -0.090   8.023  -0.156  0.00  0.00    +0.520 C 
ATOM      2  O   LIG    1        0.991   7.475  -0.076  0.00  0.00    -0.480 OA
ENDROOT
BRANCH   1   3
ATOM      3  C   LIG    1       -1.326   7.220  -0.152  0.00  0.00    -0.200 A 
ATOM      4  C   LIG    1       -2.579   7.839  -0.250  0.00  0.00    +0.180 A 
ATOM      5  C   LIG    1       -3.708   7.041  -0.236  0.00  0.00    -0.070 A 
ATOM      6  C   LIG    1       -3.571   5.668  -0.134  0.00  0.00    +0.350 A 
ATOM      7  N   LIG    1       -2.381   5.105  -0.049  0.00  0.00    -0.530 NA
ATOM      8  C   LIG    1       -1.269   5.821  -0.058  0.00  0.00    +0.380 A 
BRANCH   8   9
ATOM      9  O   LIG    1       -0.069   5.201   0.032  0.00  0.00    -0.220 OA
BRANCH   9  10
ATOM     10  C   LIG    1       -0.048   3.842   0.001  0.00  0.00    +0.090 A 
ATOM     11  C   LIG    1        0.240   3.125   1.153  0.00  0.00    +0.020 A 
ATOM     12  C   LIG    1        0.259   1.744   1.118  0.00  0.00    +0.020 A 
ATOM     13  C   LIG    1       -0.008   1.077  -0.063  0.00  0.00    +0.010 A 
ATOM     14  C   LIG    1       -0.290   1.790  -1.214  0.00  0.00    +0.020 A 
ATOM     15  C   LIG    1       -0.316   3.171  -1.184  0.00  0.00    +0.000 A 
ENDBRANCH   9  10
ENDBRANCH   8   9
ENDBRANCH   1   3
BRANCH   1  16
ATOM     16  O   LIG    1       -0.159   9.366  -0.248  0.00  0.00    -0.330 OA
BRANCH  16  18
ATOM     17  C   LIG    1        1.482  10.443   1.194  0.00  0.00    +0.070 C 
ATOM     18  C   LIG    1        1.098  10.092  -0.245  0.00  0.00    +0.180 C 
BRANCH  18  19
ATOM     19  C   LIG    1        0.948  11.359  -1.048  0.00  0.00    +0.520 C 
ATOM     20  N   LIG    1        2.018  12.147  -1.270  0.00  0.00    -0.720 N 
ATOM     21  H   LIG    1        2.885  11.899  -0.913  0.00  0.00    +0.410 HD
ATOM     22  O   LIG    1       -0.137  11.669  -1.494  0.00  0.00    -0.510 OA
BRANCH  20  23
ATOM     23  C   LIG    1        1.872  13.379  -2.050  0.00  0.00    +0.400 C 
BRANCH  23  24
ATOM     24  C   LIG    1        3.207  14.071  -2.151  0.00  0.00    -0.050 A 
ATOM     25  C   LIG    1        4.124  13.874  -3.115  0.00  0.00    -0.030 A 
ATOM     26  C   LIG    1        5.215  14.725  -2.822  0.00  0.00    -0.070 A 
ATOM     27  C   LIG    1        4.902  15.384  -1.692  0.00  0.00    +0.190 A 
ATOM     28  O   LIG    1        3.685  14.984  -1.290  0.00  0.00    -0.170 OA
ENDBRANCH  23  24
ENDBRANCH  20  23
ENDBRANCH  18  19
ENDBRANCH  16  18
ENDBRANCH   1  16
TORSDOF 8
