REMARK  Name = ZINCpk00000kE57C.0
REMARK                            x       y       z     vdW  Elec       q    Type
REMARK                         _______ _______ _______ _____ _____    ______ ____
ROOT
ATOM      1  N   LIG    1        6.014   5.448   2.724  0.00  0.00    -0.640 N 
ATOM      2  H   LIG    1        6.516   5.173   1.940  0.00  0.00    +0.410 HD
ATOM      3  C   LIG    1        4.689   5.216   2.791  0.00  0.00    +0.720 C 
ATOM      4  N   LIG    1        4.060   4.601   1.769  0.00  0.00    -0.630 N 
ATOM      5  C   LIG    1        2.617   4.285   1.711  0.00  0.00    +0.290 C 
ATOM      6  C   LIG    1        2.315   4.175   0.206  0.00  0.00    +0.200 C 
ATOM      7  O   LIG    1        1.146   3.439  -0.069  0.00  0.00    -0.270 OA
ATOM      8  C   LIG    1        1.175   2.091   0.002  0.00  0.00    +0.040 A 
ATOM      9  C   LIG    1       -0.017   1.379   0.010  0.00  0.00    +0.100 A 
ATOM     10  C   LIG    1        0.002  -0.004   0.002  0.00  0.00    +0.040 A 
ATOM     11  C   LIG    1        1.208  -0.680  -0.010  0.00  0.00    +0.040 A 
ATOM     12  C   LIG    1        2.399   0.025  -0.006  0.00  0.00    +0.100 A 
ATOM     13  F   LIG    1        3.575  -0.640  -0.014  0.00  0.00    -0.120 F 
ATOM     14  F   LIG    1       -1.196   2.038   0.019  0.00  0.00    -0.120 F 
ATOM     15  C   LIG    1        2.387   1.415   0.004  0.00  0.00    +0.050 A 
ATOM     16  O   LIG    1        3.559   2.093   0.031  0.00  0.00    -0.290 OA
ATOM     17  C   LIG    1        3.584   3.476  -0.333  0.00  0.00    +0.180 C 
ATOM     18  C   LIG    1        4.710   4.128   0.513  0.00  0.00    +0.300 C 
ATOM     19  O   LIG    1        4.060   5.561   3.772  0.00  0.00    -0.530 OA
ENDROOT
BRANCH   1  22
ATOM     20  C   LIG    1        9.051   6.105   2.832  0.00  0.00    +0.160 C 
ATOM     21  C   LIG    1        7.993   6.390   3.867  0.00  0.00    -0.060 A 
ATOM     22  C   LIG    1        6.670   6.089   3.789  0.00  0.00    +0.230 A 
ATOM     23  N   LIG    1        6.114   6.529   4.926  0.00  0.00    -0.240 NA
ATOM     24  N   LIG    1        7.026   7.058   5.662  0.00  0.00    -0.070 NA
ATOM     25  N   LIG    1        8.167   7.002   5.071  0.00  0.00    -0.290 N 
ATOM     26  C   LIG    1        9.435   7.510   5.601  0.00  0.00    +0.370 C 
ENDBRANCH   1  22
TORSDOF 1
