REMARK  Name = ZINCkj00000y7I4h.1
REMARK                            x       y       z     vdW  Elec       q    Type
REMARK                         _______ _______ _______ _____ _____    ______ ____
ROOT
ATOM      1  C   LIG    1       -3.484   2.230   1.900  0.00  0.00    +0.250 C 
ATOM      2  C   LIG    1       -2.333   3.186   1.632  0.00  0.00    +0.280 C 
ATOM      3  N   LIG    1       -1.331   2.606   0.767  0.00  0.00    -0.380 N 
ATOM      4  C   LIG    1       -0.787   1.327   1.279  0.00  0.00    +0.260 C 
ATOM      5  C   LIG    1       -0.025   0.755   0.057  0.00  0.00    +0.060 C 
ATOM      6  C   LIG    1       -0.700   1.405  -1.173  0.00  0.00    +0.080 C 
ATOM      7  C   LIG    1       -1.845   2.272  -0.575  0.00  0.00    +0.190 C 
ATOM      8  C   LIG    1       -3.080   1.388  -0.506  0.00  0.00    +0.300 C 
ATOM      9  H   LIG    1       -0.564   3.255   0.671  0.00  0.00    +0.430 HD
ATOM     10  N   LIG    1       -3.799   1.425   0.740  0.00  0.00    -1.000 NA
ENDROOT
BRANCH  10  11
ATOM     11  S   LIG    1       -5.127   0.443   0.859  0.00  0.00    +2.690 S 
ATOM     12  O   LIG    1       -5.418   0.328   2.245  0.00  0.00    -0.930 OA
ATOM     13  O   LIG    1       -4.874  -0.677   0.022  0.00  0.00    -0.930 OA
BRANCH  11  14
ATOM     14  C   LIG    1       -6.482   1.308   0.137  0.00  0.00    -0.750 A 
ATOM     15  C   LIG    1       -6.680   1.283  -1.235  0.00  0.00    +0.170 A 
ATOM     16  C   LIG    1       -7.759   1.978  -1.759  0.00  0.00    -0.040 A 
ATOM     17  C   LIG    1       -8.596   2.668  -0.903  0.00  0.00    +0.330 A 
ATOM     18  N   LIG    1       -8.377   2.670   0.398  0.00  0.00    -0.490 NA
ATOM     19  C   LIG    1       -7.364   2.016   0.932  0.00  0.00    +0.370 A 
ENDBRANCH  11  14
ENDBRANCH  10  11
BRANCH   1  21
ATOM     20  C   LIG    1       -4.452   3.776   3.607  0.00  0.00    +0.060 C 
ATOM     21  C   LIG    1       -4.721   3.039   2.294  0.00  0.00    +0.010 C 
ENDBRANCH   1  21
TORSDOF 3
