REMARK  Name = ZINCkj00000y7I4h.0
REMARK                            x       y       z     vdW  Elec       q    Type
REMARK                         _______ _______ _______ _____ _____    ______ ____
ROOT
ATOM      1  C   LIG    1       -2.556   0.993  -0.437  0.00  0.00    +0.250 C 
ATOM      2  C   LIG    1       -1.508   0.732  -1.532  0.00  0.00    +0.260 C 
ATOM      3  N   LIG    1       -0.381   1.625  -1.292  0.00  0.00    -0.390 N 
ATOM      4  C   LIG    1        0.699   1.543  -2.288  0.00  0.00    +0.270 C 
ATOM      5  C   LIG    1        1.920   2.155  -1.551  0.00  0.00    +0.070 C 
ATOM      6  C   LIG    1        1.612   1.966  -0.044  0.00  0.00    +0.090 C 
ATOM      7  C   LIG    1        0.281   1.207  -0.026  0.00  0.00    +0.160 C 
ATOM      8  C   LIG    1       -0.632   1.593   1.132  0.00  0.00    +0.360 C 
ATOM      9  H   LIG    1       -0.703   2.578  -1.212  0.00  0.00    +0.430 HD
ATOM     10  N   LIG    1       -1.926   0.917   0.888  0.00  0.00    -1.010 NA
ENDROOT
BRANCH  10  11
ATOM     11  S   LIG    1       -2.650   0.064   2.109  0.00  0.00    +2.700 S 
ATOM     12  O   LIG    1       -4.051   0.221   1.931  0.00  0.00    -0.930 OA
ATOM     13  O   LIG    1       -1.974   0.424   3.305  0.00  0.00    -0.930 OA
BRANCH  11  14
ATOM     14  C   LIG    1       -2.301  -1.641   1.833  0.00  0.00    -0.750 A 
ATOM     15  C   LIG    1       -1.093  -2.185   2.241  0.00  0.00    +0.170 A 
ATOM     16  C   LIG    1       -0.862  -3.531   2.004  0.00  0.00    -0.040 A 
ATOM     17  C   LIG    1       -1.837  -4.281   1.373  0.00  0.00    +0.330 A 
ATOM     18  N   LIG    1       -2.974  -3.729   0.998  0.00  0.00    -0.490 NA
ATOM     19  C   LIG    1       -3.231  -2.454   1.213  0.00  0.00    +0.380 A 
ENDBRANCH  11  14
ENDBRANCH  10  11
BRANCH   1  21
ATOM     20  C   LIG    1       -4.267  -0.034  -1.939  0.00  0.00    +0.060 C 
ATOM     21  C   LIG    1       -3.664  -0.057  -0.533  0.00  0.00    +0.020 C 
ENDBRANCH   1  21
TORSDOF 3
