REMARK  Name = ZINCvU00000008Fw.0
REMARK                            x       y       z     vdW  Elec       q    Type
REMARK                         _______ _______ _______ _____ _____    ______ ____
ROOT
ATOM      1  C   LIG    1        7.552  -1.983   0.134  0.00  0.00    +0.100 C 
ENDROOT
BRANCH   1   2
ATOM      2  C   LIG    1        7.961  -3.454   0.223  0.00  0.00    +0.070 C 
ATOM      3  S   LIG    1        7.332  -4.170   1.772  0.00  0.00    -0.020 S 
ATOM      4  C   LIG    1        8.427  -3.467   2.964  0.00  0.00    -0.120 A 
ATOM      5  C   LIG    1        7.983  -3.223   4.254  0.00  0.00    +0.090 A 
ATOM      6  C   LIG    1        8.845  -2.678   5.189  0.00  0.00    +0.070 A 
ATOM      7  C   LIG    1       10.147  -2.379   4.834  0.00  0.00    -0.150 A 
ATOM      8  C   LIG    1       10.594  -2.617   3.549  0.00  0.00    +0.060 A 
ATOM      9  C   LIG    1        9.737  -3.161   2.597  0.00  0.00    +0.160 A 
ATOM     10  N   LIG    1       10.208  -3.371   1.304  0.00  0.00    -0.650 N 
ATOM     11  H   LIG    1       11.170  -3.379   1.183  0.00  0.00    +0.420 HD
ATOM     12  C   LIG    1        9.463  -3.562   0.219  0.00  0.00    +0.530 C 
ATOM     13  O   LIG    1       10.020  -3.837  -0.823  0.00  0.00    -0.500 OA
BRANCH   7  14
ATOM     14  C   LIG    1       11.085  -1.789   5.855  0.00  0.00    +0.510 C 
ATOM     15  F   LIG    1       11.530  -0.539   5.412  0.00  0.00    -0.170 F 
ATOM     16  F   LIG    1       12.181  -2.640   6.029  0.00  0.00    -0.170 F 
ATOM     17  F   LIG    1       10.413  -1.640   7.073  0.00  0.00    -0.170 F 
ENDBRANCH   7  14
ENDBRANCH   1   2
BRANCH   1  20
ATOM     18  N   LIG    1        5.460  -0.676  -0.054  0.00  0.00    -0.670 N 
ATOM     19  H   LIG    1        6.002   0.124  -0.133  0.00  0.00    +0.420 HD
ATOM     20  C   LIG    1        6.051  -1.884   0.035  0.00  0.00    +0.520 C 
ATOM     21  O   LIG    1        5.376  -2.891   0.037  0.00  0.00    -0.490 OA
BRANCH  18  26
ATOM     22  C   LIG    1       -0.206  -1.550   1.034  0.00  0.00    +0.260 A 
ATOM     23  N   LIG    1        0.942  -2.065   1.359  0.00  0.00    -0.480 NA
ATOM     24  C   LIG    1        1.929  -1.365   0.737  0.00  0.00    +0.040 A 
ATOM     25  C   LIG    1        3.320  -1.468   0.720  0.00  0.00    +0.090 A 
ATOM     26  C   LIG    1        4.063  -0.577  -0.034  0.00  0.00    +0.140 A 
ATOM     27  C   LIG    1        3.428   0.418  -0.773  0.00  0.00    +0.040 A 
ATOM     28  C   LIG    1        2.054   0.526  -0.760  0.00  0.00    +0.070 A 
ATOM     29  C   LIG    1        1.296  -0.359  -0.009  0.00  0.00    -0.010 A 
ATOM     30  O   LIG    1       -0.031  -0.510   0.203  0.00  0.00    -0.210 OA
BRANCH  22  32
ATOM     31  C   LIG    1       -2.250  -0.925   2.291  0.00  0.00    +0.060 C 
ATOM     32  C   LIG    1       -1.542  -2.044   1.525  0.00  0.00    +0.110 C 
ATOM     33  C   LIG    1       -2.400  -2.467   0.331  0.00  0.00    +0.060 C 
ENDBRANCH  22  32
ENDBRANCH  18  26
ENDBRANCH   1  20
TORSDOF 5
