REMARK  Name = ZINCpe00000MCGi6.0
REMARK                            x       y       z     vdW  Elec       q    Type
REMARK                         _______ _______ _______ _____ _____    ______ ____
ROOT
ATOM      1  C   LIG    1        3.046  -0.628   1.489  0.00  0.00    +0.500 C 
ATOM      2  N   LIG    1        2.015  -0.051   0.840  0.00  0.00    -0.610 N 
ATOM      3  C   LIG    1        0.886  -0.857   0.352  0.00  0.00    +0.280 C 
ATOM      4  C   LIG    1        0.653  -0.523  -1.125  0.00  0.00    +0.200 C 
ATOM      5  N   LIG    1        0.491   0.929  -1.277  0.00  0.00    -0.500 N 
ATOM      6  C   LIG    1        1.713   1.645  -0.885  0.00  0.00    +0.190 C 
ATOM      7  C   LIG    1        1.989   1.400   0.603  0.00  0.00    +0.300 C 
ATOM      8  O   LIG    1        4.020   0.031   1.786  0.00  0.00    -0.520 OA
ENDROOT
BRANCH   1  15
ATOM      9  C   LIG    1        2.454  -6.703   0.799  0.00  0.00    +0.100 C 
ATOM     10  C   LIG    1        2.367  -5.252   0.402  0.00  0.00    +0.520 C 
ATOM     11  N   LIG    1        3.205  -4.351   0.951  0.00  0.00    -0.610 N 
ATOM     12  C   LIG    1        4.210  -4.769   1.938  0.00  0.00    +0.260 C 
ATOM     13  C   LIG    1        4.055  -3.906   3.195  0.00  0.00    +0.030 C 
ATOM     14  C   LIG    1        4.131  -2.428   2.807  0.00  0.00    +0.080 C 
ATOM     15  C   LIG    1        2.989  -2.091   1.845  0.00  0.00    +0.110 C 
ATOM     16  C   LIG    1        3.132  -2.933   0.574  0.00  0.00    +0.260 C 
ATOM     17  O   LIG    1        1.542  -4.895  -0.412  0.00  0.00    -0.550 OA
BRANCH  15  18
ATOM     18  O   LIG    1        1.738  -2.381   2.471  0.00  0.00    -0.540 OA
ATOM     19  H   LIG    1        0.968  -2.184   1.921  0.00  0.00    +0.380 HD
ENDBRANCH  15  18
ENDBRANCH   1  15
BRANCH   5  20
ATOM     20  C   LIG    1        0.115   1.258  -2.583  0.00  0.00    +0.050 A 
ATOM     21  C   LIG    1        0.938   0.923  -3.649  0.00  0.00    +0.010 A 
ATOM     22  C   LIG    1        0.564   1.250  -4.939  0.00  0.00    +0.010 A 
ATOM     23  C   LIG    1       -0.630   1.908  -5.168  0.00  0.00    +0.050 A 
ATOM     24  C   LIG    1       -1.454   2.244  -4.109  0.00  0.00    -0.010 A 
ATOM     25  C   LIG    1       -1.088   1.917  -2.817  0.00  0.00    +0.130 A 
ATOM     26  F   LIG    1       -1.895   2.239  -1.783  0.00  0.00    -0.130 F 
ENDBRANCH   5  20
TORSDOF 3
