REMARK  Name = ZINCAx0000000cVy.0
REMARK                            x       y       z     vdW  Elec       q    Type
REMARK                         _______ _______ _______ _____ _____    ______ ____
ROOT
ATOM      1  C   LIG    1       -2.524   3.864   0.045  0.00  0.00    +0.520 C 
ATOM      2  O   LIG    1       -2.540   5.079   0.052  0.00  0.00    -0.500 OA
ENDROOT
BRANCH   1   5
ATOM      3  C   LIG    1        1.168   3.179   0.007  0.00  0.00    +0.100 A 
ATOM      4  C   LIG    1       -0.035   3.858   0.022  0.00  0.00    +0.040 A 
ATOM      5  C   LIG    1       -1.237   3.144   0.030  0.00  0.00    -0.130 A 
ATOM      6  C   LIG    1       -1.216   1.747   0.017  0.00  0.00    +0.100 A 
ATOM      7  C   LIG    1       -0.013   1.076   0.008  0.00  0.00    -0.040 A 
ATOM      8  C   LIG    1        1.181   1.784   0.000  0.00  0.00    +0.140 A 
BRANCH   3  10
ATOM      9  C   LIG    1        2.250   5.297   0.009  0.00  0.00    +0.250 C 
ATOM     10  O   LIG    1        2.339   3.870   0.001  0.00  0.00    -0.300 OA
ENDBRANCH   3  10
BRANCH   8  11
ATOM     11  O   LIG    1        2.364   1.119  -0.014  0.00  0.00    -0.270 OA
BRANCH  11  12
ATOM     12  C   LIG    1        2.305  -0.309  -0.020  0.00  0.00    +0.240 C 
BRANCH  12  13
ATOM     13  C   LIG    1        3.704  -0.870  -0.035  0.00  0.00    +0.520 C 
ATOM     14  N   LIG    1        3.895  -2.204  -0.043  0.00  0.00    -0.620 N 
ATOM     15  C   LIG    1        2.753  -3.133  -0.031  0.00  0.00    +0.250 C 
ATOM     16  C   LIG    1        2.951  -4.150  -1.166  0.00  0.00    +0.220 C 
ATOM     17  O   LIG    1        4.249  -4.738  -1.048  0.00  0.00    -0.380 OA
ATOM     18  C   LIG    1        5.327  -3.810  -1.187  0.00  0.00    +0.220 C 
ATOM     19  C   LIG    1        5.251  -2.775  -0.058  0.00  0.00    +0.270 C 
ATOM     20  O   LIG    1        4.657  -0.121  -0.040  0.00  0.00    -0.510 OA
ENDBRANCH  12  13
ENDBRANCH  11  12
ENDBRANCH   8  11
ENDBRANCH   1   5
BRANCH   1  21
ATOM     21  O   LIG    1       -3.682   3.174   0.053  0.00  0.00    -0.330 OA
BRANCH  21  22
ATOM     22  C   LIG    1       -4.910   3.949   0.068  0.00  0.00    +0.270 C 
BRANCH  22  23
ATOM     23  C   LIG    1       -6.092   3.014   0.075  0.00  0.00    +0.520 C 
ATOM     24  N   LIG    1       -7.345   3.512   0.089  0.00  0.00    -0.720 N 
ATOM     25  H   LIG    1       -7.485   4.472   0.095  0.00  0.00    +0.410 HD
ATOM     26  O   LIG    1       -5.917   1.814   0.067  0.00  0.00    -0.510 OA
BRANCH  24  27
ATOM     27  C   LIG    1       -8.494   2.604   0.095  0.00  0.00    +0.350 C 
ATOM     28  C   LIG    1       -8.803   2.182   1.533  0.00  0.00    +0.060 C 
BRANCH  27  29
ATOM     29  C   LIG    1       -9.692   3.306  -0.491  0.00  0.00    +0.020 A 
ATOM     30  C   LIG    1      -10.584   2.742  -1.317  0.00  0.00    -0.020 A 
ATOM     31  C   LIG    1      -11.569   3.785  -1.629  0.00  0.00    -0.130 A 
ATOM     32  C   LIG    1      -12.720   3.834  -2.413  0.00  0.00    +0.060 A 
ATOM     33  C   LIG    1      -13.437   5.007  -2.497  0.00  0.00    +0.000 A 
ATOM     34  C   LIG    1      -13.016   6.135  -1.807  0.00  0.00    +0.050 A 
ATOM     35  C   LIG    1      -11.879   6.099  -1.029  0.00  0.00    +0.020 A 
ATOM     36  C   LIG    1      -11.142   4.926  -0.930  0.00  0.00    +0.060 A 
ATOM     37  O   LIG    1      -10.018   4.591  -0.265  0.00  0.00    -0.190 OA
ENDBRANCH  27  29
ENDBRANCH  24  27
ENDBRANCH  22  23
ENDBRANCH  21  22
ENDBRANCH   1  21
TORSDOF 10
