REMARK  Name = ZINCrD000000BIPB.0
REMARK                            x       y       z     vdW  Elec       q    Type
REMARK                         _______ _______ _______ _____ _____    ______ ____
ROOT
ATOM      1  C   LIG    1        5.950   2.279  -1.364  0.00  0.00    -0.150 A 
ATOM      2  C   LIG    1        6.673   1.483  -0.472  0.00  0.00    +0.050 A 
ATOM      3  C   LIG    1        8.027   1.686  -0.312  0.00  0.00    +0.010 A 
ATOM      4  C   LIG    1        8.677   2.675  -1.032  0.00  0.00    +0.050 A 
ATOM      5  C   LIG    1        7.977   3.470  -1.917  0.00  0.00    +0.010 A 
ATOM      6  C   LIG    1        6.613   3.276  -2.097  0.00  0.00    +0.200 A 
ENDROOT
BRANCH   1   8
ATOM      7  O   LIG    1        3.895   2.692  -2.389  0.00  0.00    -0.510 OA
ATOM      8  C   LIG    1        4.502   2.067  -1.540  0.00  0.00    +0.560 C 
ATOM      9  N   LIG    1        3.850   1.182  -0.759  0.00  0.00    -0.720 N 
ATOM     10  H   LIG    1        4.334   0.684  -0.082  0.00  0.00    +0.400 HD
BRANCH   9  11
ATOM     11  C   LIG    1        2.411   0.973  -0.934  0.00  0.00    +0.270 C 
ATOM     12  C   LIG    1        1.635   2.017  -0.112  0.00  0.00    +0.060 C 
ATOM     13  C   LIG    1        0.160   1.541  -0.070  0.00  0.00    -0.300 C 
ATOM     14  S   LIG    1        0.330  -0.260   0.224  0.00  0.00    +2.400 S 
ATOM     15  O   LIG    1       -0.578  -0.961  -0.615  0.00  0.00    -0.930 OA
ATOM     16  O   LIG    1        0.338  -0.510   1.623  0.00  0.00    -0.930 OA
ATOM     17  C   LIG    1        2.028  -0.434  -0.434  0.00  0.00    -0.320 C 
ENDBRANCH   9  11
ENDBRANCH   1   8
BRANCH   6  18
ATOM     18  N   LIG    1        5.907   4.071  -2.991  0.00  0.00    -0.690 N 
ATOM     19  H   LIG    1        5.918   3.862  -3.939  0.00  0.00    +0.410 HD
BRANCH  18  20
ATOM     20  C   LIG    1        5.180   5.170  -2.527  0.00  0.00    +0.240 A 
ATOM     21  C   LIG    1        5.173   5.478  -1.173  0.00  0.00    -0.040 A 
ATOM     22  C   LIG    1        4.454   6.566  -0.717  0.00  0.00    +0.060 A 
ATOM     23  C   LIG    1        3.744   7.349  -1.608  0.00  0.00    +0.000 A 
ATOM     24  C   LIG    1        3.749   7.046  -2.957  0.00  0.00    -0.130 A 
ATOM     25  C   LIG    1        4.469   5.963  -3.420  0.00  0.00    +0.000 A 
BRANCH  24  26
ATOM     26  C   LIG    1        2.973   7.903  -3.924  0.00  0.00    +0.510 C 
ATOM     27  F   LIG    1        2.015   7.119  -4.576  0.00  0.00    -0.180 F 
ATOM     28  F   LIG    1        3.849   8.451  -4.868  0.00  0.00    -0.180 F 
ATOM     29  F   LIG    1        2.335   8.934  -3.226  0.00  0.00    -0.180 F 
ENDBRANCH  24  26
ENDBRANCH  18  20
ENDBRANCH   6  18
TORSDOF 5
