REMARK  Name = ZINCrH000004nfca.0
REMARK                            x       y       z     vdW  Elec       q    Type
REMARK                         _______ _______ _______ _____ _____    ______ ____
ROOT
ATOM      1  C   LIG    1       -1.291  -0.755  -0.159  0.00  0.00    +0.570 C 
ATOM      2  N   LIG    1       -1.280  -2.093   0.004  0.00  0.00    -0.650 N 
ATOM      3  H   LIG    1       -0.436  -2.570   0.042  0.00  0.00    +0.420 HD
ATOM      4  O   LIG    1       -2.346  -0.169  -0.303  0.00  0.00    -0.510 OA
ENDROOT
BRANCH   1  10
ATOM      5  C   LIG    1        4.714   1.347   0.006  0.00  0.00    +0.150 A 
ATOM      6  C   LIG    1        3.562   2.062  -0.162  0.00  0.00    -0.010 A 
ATOM      7  C   LIG    1        2.328   1.397  -0.168  0.00  0.00    -0.040 A 
ATOM      8  C   LIG    1        1.120   2.101  -0.338  0.00  0.00    +0.080 A 
ATOM      9  C   LIG    1       -0.047   1.393  -0.333  0.00  0.00    +0.040 A 
ATOM     10  C   LIG    1       -0.017   0.001  -0.163  0.00  0.00    +0.100 A 
ATOM     11  N   LIG    1        1.120  -0.650  -0.004  0.00  0.00    -0.430 NA
ATOM     12  C   LIG    1        2.289  -0.012  -0.000  0.00  0.00    +0.090 A 
ATOM     13  C   LIG    1        3.497  -0.717   0.170  0.00  0.00    +0.110 A 
ATOM     14  C   LIG    1        4.677  -0.043   0.172  0.00  0.00    -0.030 A 
BRANCH   5  16
ATOM     15  C   LIG    1        7.079   1.189   0.192  0.00  0.00    +0.250 C 
ATOM     16  O   LIG    1        5.910   1.991   0.013  0.00  0.00    -0.310 OA
ENDBRANCH   5  16
ENDBRANCH   1  10
BRANCH   2  17
ATOM     17  C   LIG    1       -2.486  -2.794   0.117  0.00  0.00    +0.150 A 
ATOM     18  C   LIG    1       -2.588  -4.085  -0.392  0.00  0.00    +0.010 A 
ATOM     19  C   LIG    1       -3.770  -4.784  -0.285  0.00  0.00    +0.080 A 
ATOM     20  C   LIG    1       -4.871  -4.194   0.337  0.00  0.00    +0.050 A 
ATOM     21  N   LIG    1       -6.142  -4.614   0.592  0.00  0.00    -0.540 NA
ATOM     22  C   LIG    1       -6.782  -3.657   1.213  0.00  0.00    +0.500 A 
ATOM     23  O   LIG    1       -5.974  -2.596   1.386  0.00  0.00    -0.230 OA
ATOM     24  C   LIG    1       -4.767  -2.892   0.851  0.00  0.00    +0.010 A 
ATOM     25  C   LIG    1       -3.573  -2.201   0.743  0.00  0.00    +0.060 A 
BRANCH  22  26
ATOM     26  N   LIG    1       -8.093  -3.726   1.629  0.00  0.00    -0.580 N 
ATOM     27  C   LIG    1       -8.704  -2.586   2.317  0.00  0.00    +0.300 C 
ATOM     28  C   LIG    1       -8.877  -4.939   1.384  0.00  0.00    +0.330 C 
ENDBRANCH  22  26
ENDBRANCH   2  17
TORSDOF 4
