REMARK  Name = ZINCtV00001bB3oy.0
REMARK                            x       y       z     vdW  Elec       q    Type
REMARK                         _______ _______ _______ _____ _____    ______ ____
ROOT
ATOM      1  C   LIG    1       -0.814   1.371   1.229  0.00  0.00    +0.510 C 
ATOM      2  N   LIG    1       -0.354   1.010   2.443  0.00  0.00    -0.620 N 
ATOM      3  O   LIG    1       -1.880   1.941   1.130  0.00  0.00    -0.520 OA
ENDROOT
BRANCH   2   4
ATOM      4  C   LIG    1        0.934   0.322   2.564  0.00  0.00    +0.270 C 
BRANCH   4   5
ATOM      5  C   LIG    1        2.050   1.355   2.731  0.00  0.00    +0.000 C 
BRANCH   5   6
ATOM      6  C   LIG    1        3.395   0.637   2.857  0.00  0.00    +0.000 C 
BRANCH   6   7
ATOM      7  C   LIG    1        4.511   1.670   3.024  0.00  0.00    +0.000 C 
BRANCH   7   8
ATOM      8  C   LIG    1        5.856   0.952   3.150  0.00  0.00    +0.000 C 
BRANCH   8   9
ATOM      9  C   LIG    1        6.973   1.985   3.317  0.00  0.00    -0.010 C 
ATOM     10  C   LIG    1        8.318   1.267   3.442  0.00  0.00    +0.000 C 
ENDBRANCH   8   9
ENDBRANCH   7   8
ENDBRANCH   6   7
ENDBRANCH   5   6
ENDBRANCH   4   5
ENDBRANCH   2   4
BRANCH   2  11
ATOM     11  C   LIG    1       -1.141   1.305   3.643  0.00  0.00    +0.280 C 
BRANCH  11  12
ATOM     12  C   LIG    1       -2.083   0.135   3.935  0.00  0.00    +0.000 C 
BRANCH  12  13
ATOM     13  C   LIG    1       -2.906   0.443   5.188  0.00  0.00    +0.000 C 
BRANCH  13  14
ATOM     14  C   LIG    1       -3.848  -0.726   5.480  0.00  0.00    +0.000 C 
BRANCH  14  15
ATOM     15  C   LIG    1       -4.670  -0.418   6.732  0.00  0.00    +0.000 C 
BRANCH  15  16
ATOM     16  C   LIG    1       -5.612  -1.588   7.025  0.00  0.00    -0.010 C 
ATOM     17  C   LIG    1       -6.435  -1.280   8.277  0.00  0.00    +0.000 C 
ENDBRANCH  15  16
ENDBRANCH  14  15
ENDBRANCH  13  14
ENDBRANCH  12  13
ENDBRANCH  11  12
ENDBRANCH   2  11
BRANCH   1  18
ATOM     18  C   LIG    1       -0.004   1.068  -0.004  0.00  0.00    +0.100 C 
BRANCH  18  22
ATOM     19  C   LIG    1       -2.077   2.497  -3.458  0.00  0.00    +0.150 A 
ATOM     20  C   LIG    1       -1.183   3.325  -2.791  0.00  0.00    -0.010 A 
ATOM     21  C   LIG    1       -0.515   2.860  -1.675  0.00  0.00    +0.040 A 
ATOM     22  C   LIG    1       -0.735   1.572  -1.222  0.00  0.00    -0.080 A 
ATOM     23  C   LIG    1       -1.620   0.744  -1.887  0.00  0.00    +0.040 A 
ATOM     24  C   LIG    1       -2.296   1.204  -3.001  0.00  0.00    +0.010 A 
BRANCH  19  26
ATOM     25  C   LIG    1       -4.009   2.542  -4.845  0.00  0.00    +0.540 C 
ATOM     26  N   LIG    1       -2.755   2.964  -4.588  0.00  0.00    -0.670 N 
ATOM     27  H   LIG    1       -2.323   3.592  -5.188  0.00  0.00    +0.410 HD
ATOM     28  O   LIG    1       -4.587   1.831  -4.045  0.00  0.00    -0.520 OA
BRANCH  25  30
ATOM     29  C   LIG    1       -5.916   2.524  -6.345  0.00  0.00    +0.160 C 
ATOM     30  C   LIG    1       -4.679   2.941  -6.092  0.00  0.00    -0.090 C 
ENDBRANCH  25  30
ENDBRANCH  19  26
ENDBRANCH  18  22
ENDBRANCH   1  18
TORSDOF 16
