REMARK  Name = ZINCpe000000Y3m2.0
REMARK                            x       y       z     vdW  Elec       q    Type
REMARK                         _______ _______ _______ _____ _____    ______ ____
ROOT
ATOM      1  C   LIG    1       -0.428   1.734  -0.239  0.00  0.00    +0.040 C 
ENDROOT
BRANCH   1   2
ATOM      2  C   LIG    1        1.051   2.074  -0.045  0.00  0.00    +0.290 C 
BRANCH   2  14
ATOM      3  C   LIG    1        1.601   3.411  -2.443  0.00  0.00    +0.160 C 
ATOM      4  C   LIG    1        1.485   4.201  -1.165  0.00  0.00    +0.400 A 
ATOM      5  N   LIG    1        1.641   5.489  -1.220  0.00  0.00    -0.520 NA
ATOM      6  C   LIG    1        1.556   6.264  -0.110  0.00  0.00    +0.150 A 
ATOM      7  C   LIG    1        1.728   7.648  -0.168  0.00  0.00    +0.030 A 
ATOM      8  C   LIG    1        1.633   8.396   0.984  0.00  0.00    +0.070 A 
ATOM      9  C   LIG    1        1.368   7.791   2.205  0.00  0.00    -0.010 A 
ATOM     10  C   LIG    1        1.193   6.426   2.288  0.00  0.00    +0.100 A 
ATOM     11  C   LIG    1        1.286   5.652   1.134  0.00  0.00    -0.200 A 
ATOM     12  C   LIG    1        1.109   4.192   1.161  0.00  0.00    +0.550 A 
ATOM     13  O   LIG    1        0.874   3.603   2.200  0.00  0.00    -0.510 OA
ATOM     14  N   LIG    1        1.217   3.530  -0.014  0.00  0.00    -0.540 N 
ENDBRANCH   2  14
ENDBRANCH   1   2
BRANCH   1  15
ATOM     15  C   LIG    1       -0.602   0.215  -0.271  0.00  0.00    +0.070 C 
BRANCH  15  16
ATOM     16  C   LIG    1       -2.059  -0.120  -0.461  0.00  0.00    +0.530 C 
ATOM     17  N   LIG    1       -2.453  -1.408  -0.520  0.00  0.00    -0.620 N 
ATOM     18  C   LIG    1       -1.567  -2.582  -0.420  0.00  0.00    +0.260 C 
ATOM     19  C   LIG    1       -2.487  -3.729   0.076  0.00  0.00    +0.060 C 
ATOM     20  C   LIG    1       -3.805  -3.417  -0.682  0.00  0.00    -0.010 C 
ATOM     21  C   LIG    1       -3.835  -1.874  -0.702  0.00  0.00    +0.290 C 
ATOM     22  O   LIG    1       -2.878   0.769  -0.561  0.00  0.00    -0.530 OA
BRANCH  20  23
ATOM     23  C   LIG    1       -4.995  -3.964   0.064  0.00  0.00    +0.530 C 
ATOM     24  O   LIG    1       -5.809  -3.206   0.546  0.00  0.00    -0.530 OA
ATOM     25  N   LIG    1       -5.154  -5.296   0.195  0.00  0.00    -0.850 N 
ATOM     26  H   LIG    1       -5.920  -5.648   0.675  0.00  0.00    +0.410 HD
ATOM     27  H   LIG    1       -4.502  -5.902  -0.190  0.00  0.00    +0.400 HD
ENDBRANCH  20  23
ENDBRANCH  15  16
ENDBRANCH   1  15
TORSDOF 5
