REMARK  Name = ZINCvU00000009X3.0
REMARK                            x       y       z     vdW  Elec       q    Type
REMARK                         _______ _______ _______ _____ _____    ______ ____
ROOT
ATOM      1  C   LIG    1       -0.809   9.172  -1.390  0.00  0.00    +0.260 C 
ATOM      2  N   LIG    1       -1.351   8.957  -2.533  0.00  0.00    -0.280 NA
ATOM      3  N   LIG    1       -1.744   9.967  -3.413  0.00  0.00    -0.340 N 
ATOM      4  C   LIG    1       -2.607   9.926  -4.463  0.00  0.00    +0.260 A 
ATOM      5  N   LIG    1       -2.648  11.124  -5.004  0.00  0.00    -0.320 NA
ATOM      6  N   LIG    1       -1.787  11.963  -4.277  0.00  0.00    -0.250 NA
ATOM      7  C   LIG    1       -1.259  11.258  -3.328  0.00  0.00    +0.160 A 
ATOM      8  S   LIG    1       -0.113  11.722  -2.067  0.00  0.00    +0.050 S 
ATOM      9  C   LIG    1       -0.541  10.512  -0.770  0.00  0.00    +0.160 C 
ENDROOT
BRANCH   1  13
ATOM     10  C   LIG    1        1.000   6.184   2.332  0.00  0.00    +0.150 C 
ATOM     11  C   LIG    1        0.388   6.685   1.049  0.00  0.00    +0.040 A 
ATOM     12  C   LIG    1        0.215   7.977   0.716  0.00  0.00    -0.010 A 
ATOM     13  C   LIG    1       -0.417   7.987  -0.607  0.00  0.00    -0.160 A 
ATOM     14  C   LIG    1       -0.569   6.679  -0.969  0.00  0.00    +0.120 A 
ATOM     15  C   LIG    1       -1.176   6.183  -2.256  0.00  0.00    +0.150 C 
ATOM     16  N   LIG    1       -0.078   5.900   0.033  0.00  0.00    -0.400 N 
BRANCH  16  17
ATOM     17  C   LIG    1       -0.059   4.499   0.025  0.00  0.00    +0.110 A 
ATOM     18  C   LIG    1        1.152   3.820   0.011  0.00  0.00    +0.050 A 
ATOM     19  C   LIG    1        1.168   2.439   0.004  0.00  0.00    +0.050 A 
ATOM     20  C   LIG    1       -0.021   1.732   0.012  0.00  0.00    -0.030 A 
ATOM     21  C   LIG    1       -1.230   2.406   0.021  0.00  0.00    +0.050 A 
ATOM     22 CL   LIG    1        0.002  -0.004   0.002  0.00  0.00    -0.050 Cl
ATOM     23  C   LIG    1       -1.251   3.787   0.033  0.00  0.00    +0.050 A 
ENDBRANCH  16  17
ENDBRANCH   1  13
BRANCH   4  24
ATOM     24  S   LIG    1       -3.511   8.514  -5.005  0.00  0.00    +0.040 S 
BRANCH  24  25
ATOM     25  C   LIG    1       -4.449   9.149  -6.422  0.00  0.00    +0.150 C 
BRANCH  25  26
ATOM     26  C   LIG    1       -5.287   8.042  -7.006  0.00  0.00    -0.080 A 
ATOM     27  C   LIG    1       -4.773   7.240  -8.008  0.00  0.00    +0.030 A 
ATOM     28  C   LIG    1       -5.540   6.221  -8.541  0.00  0.00    +0.010 A 
ATOM     29  C   LIG    1       -6.826   6.011  -8.079  0.00  0.00    +0.020 A 
ATOM     30  C   LIG    1       -7.343   6.816  -7.081  0.00  0.00    +0.010 A 
ATOM     31  C   LIG    1       -6.573   7.831  -6.545  0.00  0.00    +0.030 A 
ENDBRANCH  25  26
ENDBRANCH  24  25
ENDBRANCH   4  24
TORSDOF 5
