REMARK  Name = ZINCrH00000tj1e2.0
REMARK                            x       y       z     vdW  Elec       q    Type
REMARK                         _______ _______ _______ _____ _____    ______ ____
ROOT
ATOM      1  N   LIG    1        3.258   2.079   2.067  0.00  0.00    -0.470 N 
ATOM      2  C   LIG    1        1.986   2.801   2.187  0.00  0.00    +0.210 C 
ATOM      3  C   LIG    1        1.445   3.118   0.788  0.00  0.00    +0.080 C 
ATOM      4  C   LIG    1        1.333   1.810  -0.001  0.00  0.00    -0.090 C 
ATOM      5  C   LIG    1        0.462   1.806  -1.256  0.00  0.00    +0.110 C 
ATOM      6  C   LIG    1        2.604   0.955  -0.009  0.00  0.00    +0.090 C 
ATOM      7  C   LIG    1       -0.013   1.086   0.008  0.00  0.00    +0.060 C 
ATOM      8  C   LIG    1        3.076   0.766   1.436  0.00  0.00    +0.200 C 
ENDROOT
BRANCH   1  12
ATOM      9  C   LIG    1        5.076   1.728   5.734  0.00  0.00    -0.120 A 
ATOM     10  C   LIG    1        5.712   1.179   4.611  0.00  0.00    +0.150 A 
ATOM     11  C   LIG    1        5.100   1.293   3.392  0.00  0.00    -0.040 A 
ATOM     12  C   LIG    1        3.878   1.957   3.300  0.00  0.00    +0.340 A 
ATOM     13  N   LIG    1        3.297   2.468   4.377  0.00  0.00    -0.520 NA
ATOM     14  C   LIG    1        3.849   2.375   5.569  0.00  0.00    +0.360 A 
BRANCH   9  16
ATOM     15  N   LIG    1        6.151   1.549   8.059  0.00  0.00    -0.410 NA
ATOM     16  C   LIG    1        5.675   1.628   7.031  0.00  0.00    +0.260 C 
ENDBRANCH   9  16
ENDBRANCH   1  12
BRANCH   7  17
ATOM     17  C   LIG    1       -1.137   1.716   0.788  0.00  0.00    +0.200 A 
ATOM     18  N   LIG    1       -1.643   2.901   0.588  0.00  0.00    -0.280 NA
ATOM     19  N   LIG    1       -2.589   3.113   1.434  0.00  0.00    -0.270 NA
ATOM     20  C   LIG    1       -2.714   2.066   2.215  0.00  0.00    +0.210 A 
ATOM     21  O   LIG    1       -1.796   1.161   1.820  0.00  0.00    -0.220 OA
BRANCH  20  22
ATOM     22  C   LIG    1       -3.681   1.908   3.322  0.00  0.00    -0.030 A 
ATOM     23  C   LIG    1       -3.704   0.730   4.070  0.00  0.00    +0.050 A 
ATOM     24  C   LIG    1       -4.605   0.591   5.105  0.00  0.00    +0.010 A 
ATOM     25  C   LIG    1       -5.492   1.612   5.396  0.00  0.00    +0.040 A 
ATOM     26  C   LIG    1       -5.479   2.780   4.655  0.00  0.00    +0.020 A 
ATOM     27  C   LIG    1       -4.579   2.934   3.620  0.00  0.00    +0.070 A 
ENDBRANCH  20  22
ENDBRANCH   7  17
TORSDOF 4
