REMARK  Name = ZINCrH00000tj16I.0
REMARK                            x       y       z     vdW  Elec       q    Type
REMARK                         _______ _______ _______ _____ _____    ______ ____
ROOT
ATOM      1  C   LIG    1       -0.516  -6.410   0.455  0.00  0.00    +0.060 A 
ATOM      2  N   LIG    1        0.438  -7.194   0.830  0.00  0.00    -0.450 NA
ATOM      3  C   LIG    1        0.383  -8.446   0.423  0.00  0.00    +0.070 A 
ATOM      4  C   LIG    1       -0.678  -8.735  -0.337  0.00  0.00    -0.050 A 
ATOM      5  S   LIG    1       -1.640  -7.268  -0.507  0.00  0.00    +0.160 S 
ENDROOT
BRANCH   1   6
ATOM      6  C   LIG    1       -0.628  -4.952   0.818  0.00  0.00    +0.190 C 
BRANCH   6   9
ATOM      7  N   LIG    1        0.105  -2.778  -0.107  0.00  0.00    -0.660 N 
ATOM      8  H   LIG    1       -0.255  -2.352   0.687  0.00  0.00    +0.420 HD
ATOM      9  C   LIG    1        0.075  -4.120  -0.224  0.00  0.00    +0.520 C 
ATOM     10  O   LIG    1        0.614  -4.659  -1.168  0.00  0.00    -0.510 OA
BRANCH   7  16
ATOM     11  C   LIG    1        1.160  -0.729  -0.850  0.00  0.00    +0.100 A 
ATOM     12  C   LIG    1        1.708   0.036  -1.865  0.00  0.00    -0.060 A 
ATOM     13  C   LIG    1        1.752  -0.457  -3.157  0.00  0.00    +0.030 A 
ATOM     14  C   LIG    1        1.248  -1.713  -3.438  0.00  0.00    +0.000 A 
ATOM     15  C   LIG    1        0.698  -2.483  -2.430  0.00  0.00    +0.050 A 
ATOM     16  C   LIG    1        0.657  -1.997  -1.131  0.00  0.00    +0.120 A 
BRANCH  11  18
ATOM     17  C   LIG    1        1.657   1.060   0.636  0.00  0.00    +0.250 C 
ATOM     18  O   LIG    1        1.117  -0.245   0.421  0.00  0.00    -0.320 OA
ENDBRANCH  11  18
ENDBRANCH   7  16
ENDBRANCH   6   9
ENDBRANCH   1   6
BRANCH   3  19
ATOM     19  C   LIG    1        1.429  -9.468   0.786  0.00  0.00    +0.220 C 
BRANCH  19  20
ATOM     20  S   LIG    1        0.958 -10.291   2.329  0.00  0.00    +0.010 S 
BRANCH  20  21
ATOM     21  C   LIG    1        2.316 -11.399   2.510  0.00  0.00    +0.150 A 
ATOM     22  N   LIG    1        3.339 -11.520   1.697  0.00  0.00    -0.290 NA
ATOM     23  N   LIG    1        4.141 -12.424   2.135  0.00  0.00    -0.290 NA
ATOM     24  C   LIG    1        3.681 -12.930   3.244  0.00  0.00    +0.380 A 
ATOM     25  N   LIG    1        2.505 -12.291   3.526  0.00  0.00    -0.460 N 
BRANCH  25  26
ATOM     26  C   LIG    1        1.629 -12.520   4.678  0.00  0.00    +0.240 C 
ATOM     27  C   LIG    1        2.399 -12.237   5.969  0.00  0.00    +0.060 C 
ATOM     28  C   LIG    1        1.153 -13.974   4.676  0.00  0.00    +0.060 C 
ENDBRANCH  25  26
ENDBRANCH  20  21
ENDBRANCH  19  20
ENDBRANCH   3  19
TORSDOF 8
