REMARK  Name = ZINCvU0000000HwX.0
REMARK                            x       y       z     vdW  Elec       q    Type
REMARK                         _______ _______ _______ _____ _____    ______ ____
ROOT
ATOM      1  N   LIG    1       -1.106   2.435   0.072  0.00  0.00    -0.400 N 
ATOM      2  N   LIG    1       -0.659   3.760   0.172  0.00  0.00    -0.280 NA
ATOM      3  C   LIG    1        0.647   3.748   0.147  0.00  0.00    +0.370 A 
ATOM      4  N   LIG    1        1.071   2.437   0.038  0.00  0.00    -0.490 N 
ATOM      5  C   LIG    1       -0.017   1.643  -0.004  0.00  0.00    +0.470 A 
ATOM      6  S   LIG    1       -0.018  -0.064  -0.138  0.00  0.00    -0.570 S 
ENDROOT
BRANCH   3   7
ATOM      7  C   LIG    1        1.520   4.931   0.224  0.00  0.00    -0.160 A 
ATOM      8  C   LIG    1        1.095   6.208   0.331  0.00  0.00    +0.090 A 
ATOM      9  C   LIG    1        2.103   7.148   0.387  0.00  0.00    +0.010 A 
ATOM     10  C   LIG    1        3.343   6.653   0.326  0.00  0.00    -0.030 A 
ATOM     11  S   LIG    1        3.279   4.900   0.198  0.00  0.00    +0.190 S 
ENDBRANCH   3   7
BRANCH   1  12
ATOM     12  C   LIG    1       -2.502   1.992   0.056  0.00  0.00    +0.560 C 
BRANCH  12  13
ATOM     13  N   LIG    1       -3.061   2.084   1.411  0.00  0.00    -0.510 NA
BRANCH  13  14
ATOM     14  C   LIG    1       -3.204   3.486   1.827  0.00  0.00    +0.220 C 
BRANCH  14  16
ATOM     15  F   LIG    1       -5.550   3.305   1.392  0.00  0.00    -0.170 F 
ATOM     16  C   LIG    1       -4.426   4.100   1.140  0.00  0.00    +0.460 C 
ATOM     17  F   LIG    1       -4.202   4.167  -0.239  0.00  0.00    -0.180 F 
ATOM     18  F   LIG    1       -4.644   5.388   1.641  0.00  0.00    -0.180 F 
ENDBRANCH  14  16
ENDBRANCH  13  14
BRANCH  13  19
ATOM     19  C   LIG    1       -2.243   1.332   2.371  0.00  0.00    +0.250 C 
BRANCH  19  20
ATOM     20  C   LIG    1       -2.968   1.243   3.689  0.00  0.00    -0.090 A 
ATOM     21  C   LIG    1       -2.776   2.217   4.650  0.00  0.00    +0.000 A 
ATOM     22  C   LIG    1       -3.446   2.138   5.857  0.00  0.00    +0.000 A 
ATOM     23  C   LIG    1       -4.299   1.079   6.106  0.00  0.00    +0.010 A 
ATOM     24  C   LIG    1       -4.487   0.102   5.147  0.00  0.00    +0.010 A 
ATOM     25  C   LIG    1       -3.821   0.184   3.938  0.00  0.00    +0.040 A 
ENDBRANCH  19  20
ENDBRANCH  13  19
ENDBRANCH  12  13
ENDBRANCH   1  12
BRANCH   4  26
ATOM     26  C   LIG    1        2.464   1.987  -0.022  0.00  0.00    +0.330 C 
BRANCH  26  27
ATOM     27  C   LIG    1        2.924   1.943  -1.481  0.00  0.00    +0.160 C 
ATOM     28  C   LIG    1        4.349   1.356  -1.563  0.00  0.00    +0.030 C 
ATOM     29  C   LIG    1        5.004   2.238  -2.662  0.00  0.00    +0.020 C 
ATOM     30  C   LIG    1        4.313   3.600  -2.399  0.00  0.00    +0.200 C 
ATOM     31  O   LIG    1        2.969   3.270  -2.017  0.00  0.00    -0.370 OA
ENDBRANCH  26  27
ENDBRANCH   4  26
TORSDOF 9
