REMARK  Name = ZINCwl0000000wAc.2
REMARK                            x       y       z     vdW  Elec       q    Type
REMARK                         _______ _______ _______ _____ _____    ______ ____
ROOT
ATOM      1  N   LIG    1       -2.473  10.363  -0.756  0.00  0.00    -0.710 N 
ATOM      2  H   LIG    1       -3.006  10.064  -0.003  0.00  0.00    +0.410 HD
ATOM      3  C   LIG    1       -1.393   9.654  -1.141  0.00  0.00    +0.540 C 
ATOM      4  O   LIG    1       -0.727  10.027  -2.084  0.00  0.00    -0.540 OA
ENDROOT
BRANCH   3   5
ATOM      5  C   LIG    1       -1.013   8.398  -0.400  0.00  0.00    -0.020 C 
ATOM      6  C   LIG    1        0.275   8.427   0.424  0.00  0.00    +0.100 C 
ATOM      7  C   LIG    1        0.223   7.638  -0.886  0.00  0.00    -0.030 C 
BRANCH   7   8
ATOM      8  C   LIG    1        0.196   6.112  -0.791  0.00  0.00    +0.280 C 
BRANCH   8   9
ATOM      9  N   LIG    1        1.410   5.561  -1.409  0.00  0.00    -0.380 N 
ATOM     10  C   LIG    1        2.587   5.978  -0.635  0.00  0.00    +0.240 C 
ATOM     11  C   LIG    1        2.462   5.457   0.799  0.00  0.00    +0.270 C 
ATOM     12  O   LIG    1        2.327   4.034   0.773  0.00  0.00    -0.350 OA
ATOM     13  C   LIG    1        1.207   3.577   0.010  0.00  0.00    +0.220 C 
ATOM     14  C   LIG    1        1.329   4.094  -1.425  0.00  0.00    +0.260 C 
ATOM     15  H   LIG    1        1.491   5.904  -2.355  0.00  0.00    +0.430 HD
BRANCH  13  16
ATOM     16  C   LIG    1        1.185   2.070   0.002  0.00  0.00    -0.070 A 
ATOM     17  C   LIG    1       -0.017   1.378   0.010  0.00  0.00    -0.020 A 
ATOM     18  C   LIG    1        0.002  -0.004   0.002  0.00  0.00    +0.280 A 
ATOM     19  N   LIG    1        1.144  -0.663  -0.012  0.00  0.00    -0.470 NA
ATOM     20  C   LIG    1        2.305  -0.038  -0.020  0.00  0.00    +0.280 A 
ATOM     21  C   LIG    1        2.365   1.343  -0.013  0.00  0.00    +0.000 A 
ENDBRANCH  13  16
ENDBRANCH   8   9
ENDBRANCH   7   8
ENDBRANCH   3   5
BRANCH   1  22
ATOM     22  C   LIG    1       -2.842  11.584  -1.476  0.00  0.00    +0.320 C 
BRANCH  22  27
ATOM     23  C   LIG    1       -5.093  13.649   0.749  0.00  0.00    +0.130 A 
ATOM     24  C   LIG    1       -6.348  13.275   0.291  0.00  0.00    -0.070 A 
ATOM     25  C   LIG    1       -6.464  12.357  -0.735  0.00  0.00    +0.050 A 
ATOM     26  C   LIG    1       -5.329  11.815  -1.310  0.00  0.00    -0.010 A 
ATOM     27  C   LIG    1       -4.077  12.181  -0.852  0.00  0.00    -0.080 A 
ATOM     28  C   LIG    1       -3.956  13.099   0.174  0.00  0.00    +0.000 A 
BRANCH  23  29
ATOM     29  O   LIG    1       -4.977  14.552   1.758  0.00  0.00    -0.290 OA
BRANCH  29  30
ATOM     30  C   LIG    1       -6.190  15.076   2.302  0.00  0.00    +0.240 C 
BRANCH  30  34
ATOM     31  C   LIG    1       -6.545  17.629   5.132  0.00  0.00    +0.290 C 
ATOM     32  N   LIG    1       -6.860  16.678   4.063  0.00  0.00    -0.730 N 
ATOM     33  H   LIG    1       -7.785  16.498   3.832  0.00  0.00    +0.400 HD
ATOM     34  C   LIG    1       -5.865  16.054   3.401  0.00  0.00    +0.510 C 
ATOM     35  O   LIG    1       -4.710  16.280   3.690  0.00  0.00    -0.510 OA
ENDBRANCH  30  34
ENDBRANCH  29  30
ENDBRANCH  23  29
ENDBRANCH  22  27
ENDBRANCH   1  22
TORSDOF 9
