REMARK  Name = ZINCwl0000000wAc.1
REMARK                            x       y       z     vdW  Elec       q    Type
REMARK                         _______ _______ _______ _____ _____    ______ ____
ROOT
ATOM      1  N   LIG    1       -3.146   1.443   2.190  0.00  0.00    -0.710 N 
ATOM      2  H   LIG    1       -3.229   2.408   2.244  0.00  0.00    +0.410 HD
ATOM      3  C   LIG    1       -2.136   0.891   1.489  0.00  0.00    +0.540 C 
ATOM      4  O   LIG    1       -2.033  -0.316   1.422  0.00  0.00    -0.540 OA
ENDROOT
BRANCH   3   5
ATOM      5  C   LIG    1       -1.136   1.773   0.788  0.00  0.00    -0.020 C 
ATOM      6  C   LIG    1       -1.150   1.781  -0.743  0.00  0.00    +0.110 C 
ATOM      7  C   LIG    1       -0.013   1.086   0.008  0.00  0.00    -0.040 C 
BRANCH   7   8
ATOM      8  C   LIG    1        1.359   1.764  -0.001  0.00  0.00    +0.310 C 
BRANCH   8   9
ATOM      9  N   LIG    1        2.326   0.904  -0.696  0.00  0.00    -0.380 N 
ATOM     10  C   LIG    1        2.512  -0.338   0.067  0.00  0.00    +0.240 C 
ATOM     11  C   LIG    1        3.520  -1.233  -0.658  0.00  0.00    +0.270 C 
ATOM     12  O   LIG    1        4.752  -0.524  -0.816  0.00  0.00    -0.350 OA
ATOM     13  C   LIG    1        4.618   0.707  -1.533  0.00  0.00    +0.220 C 
ATOM     14  C   LIG    1        3.612   1.605  -0.809  0.00  0.00    +0.250 C 
ATOM     15  H   LIG    1        1.980   0.684  -1.617  0.00  0.00    +0.430 HD
BRANCH  13  16
ATOM     16  C   LIG    1        5.955   1.399  -1.599  0.00  0.00    -0.060 A 
ATOM     17  C   LIG    1        6.846   1.324  -0.539  0.00  0.00    +0.000 A 
ATOM     18  C   LIG    1        8.065   1.968  -0.637  0.00  0.00    +0.280 A 
ATOM     19  N   LIG    1        8.380   2.656  -1.717  0.00  0.00    -0.470 NA
ATOM     20  C   LIG    1        7.555   2.754  -2.742  0.00  0.00    +0.280 A 
ATOM     21  C   LIG    1        6.321   2.132  -2.717  0.00  0.00    -0.020 A 
ENDBRANCH  13  16
ENDBRANCH   8   9
ENDBRANCH   7   8
ENDBRANCH   3   5
BRANCH   1  22
ATOM     22  C   LIG    1       -4.119   0.586   2.872  0.00  0.00    +0.320 C 
BRANCH  22  27
ATOM     23  C   LIG    1       -7.224   2.623   3.570  0.00  0.00    +0.130 A 
ATOM     24  C   LIG    1       -7.003   3.020   4.881  0.00  0.00    -0.070 A 
ATOM     25  C   LIG    1       -5.851   2.628   5.535  0.00  0.00    +0.050 A 
ATOM     26  C   LIG    1       -4.921   1.836   4.886  0.00  0.00    -0.010 A 
ATOM     27  C   LIG    1       -5.137   1.444   3.578  0.00  0.00    -0.080 A 
ATOM     28  C   LIG    1       -6.287   1.833   2.920  0.00  0.00    +0.000 A 
BRANCH  23  29
ATOM     29  O   LIG    1       -8.357   3.006   2.925  0.00  0.00    -0.290 OA
BRANCH  29  30
ATOM     30  C   LIG    1       -9.277   3.819   3.656  0.00  0.00    +0.240 C 
BRANCH  30  34
ATOM     31  C   LIG    1      -12.619   5.219   2.422  0.00  0.00    +0.290 C 
ATOM     32  N   LIG    1      -11.466   4.904   3.268  0.00  0.00    -0.730 N 
ATOM     33  H   LIG    1      -11.424   5.242   4.176  0.00  0.00    +0.400 HD
ATOM     34  C   LIG    1      -10.463   4.143   2.786  0.00  0.00    +0.510 C 
ATOM     35  O   LIG    1      -10.516   3.720   1.650  0.00  0.00    -0.510 OA
ENDBRANCH  30  34
ENDBRANCH  29  30
ENDBRANCH  23  29
ENDBRANCH  22  27
ENDBRANCH   1  22
TORSDOF 9
