REMARK  Name = ZINCpe000000V8Zy.0
REMARK                            x       y       z     vdW  Elec       q    Type
REMARK                         _______ _______ _______ _____ _____    ______ ____
ROOT
ATOM      1  S   LIG    1        2.859   1.678  -0.047  0.00  0.00    +2.690 S 
ATOM      2  O   LIG    1        3.865   2.682  -0.055  0.00  0.00    -0.920 OA
ATOM      3  O   LIG    1        2.837   0.593  -0.964  0.00  0.00    -0.940 OA
ENDROOT
BRANCH   1   4
ATOM      4  C   LIG    1        1.319   2.515  -0.230  0.00  0.00    -0.650 A 
ATOM      5  C   LIG    1        0.318   1.956  -1.001  0.00  0.00    +0.090 A 
ATOM      6  C   LIG    1       -0.894   2.613  -1.147  0.00  0.00    +0.100 A 
ATOM      7  C   LIG    1       -1.099   3.836  -0.516  0.00  0.00    +0.170 A 
ATOM      8  C   LIG    1       -0.093   4.389   0.260  0.00  0.00    -0.010 A 
ATOM      9  C   LIG    1        1.116   3.731   0.397  0.00  0.00    +0.020 A 
ATOM     10 BR   LIG    1        2.490   4.492   1.450  0.00  0.00    -0.010 Br
BRANCH   7  11
ATOM     11  O   LIG    1       -2.286   4.485  -0.657  0.00  0.00    -0.290 OA
ATOM     12  C   LIG    1       -2.425   5.736   0.019  0.00  0.00    +0.250 C 
ENDBRANCH   7  11
BRANCH   6  13
ATOM     13  O   LIG    1       -1.880   2.063  -1.905  0.00  0.00    -0.300 OA
ATOM     14  C   LIG    1       -1.599   0.805  -2.522  0.00  0.00    +0.250 C 
ENDBRANCH   6  13
ENDBRANCH   1   4
BRANCH   1  15
ATOM     15  N   LIG    1        2.877   1.011   1.468  0.00  0.00    -0.960 NA
BRANCH  15  16
ATOM     16  C   LIG    1        2.466  -0.382   1.660  0.00  0.00    +0.390 C 
BRANCH  16  17
ATOM     17  C   LIG    1        3.678  -1.276   1.602  0.00  0.00    +0.440 C 
ATOM     18  O   LIG    1        4.772  -0.799   1.419  0.00  0.00    -0.490 OA
BRANCH  17  20
ATOM     19  C   LIG    1        4.751  -3.402   1.686  0.00  0.00    +0.270 C 
ATOM     20  O   LIG    1        3.541  -2.603   1.753  0.00  0.00    -0.360 OA
ENDBRANCH  17  20
ENDBRANCH  16  17
ENDBRANCH  15  16
BRANCH  15  21
ATOM     21  C   LIG    1        3.304   1.813   2.617  0.00  0.00    +0.390 C 
BRANCH  21  22
ATOM     22  C   LIG    1        2.095   2.414   3.288  0.00  0.00    +0.440 C 
ATOM     23  O   LIG    1        0.991   2.194   2.850  0.00  0.00    -0.490 OA
BRANCH  22  24
ATOM     24  O   LIG    1        2.246   3.193   4.370  0.00  0.00    -0.350 OA
ATOM     25  C   LIG    1        1.038   3.737   4.964  0.00  0.00    +0.260 C 
ENDBRANCH  22  24
ENDBRANCH  21  22
ENDBRANCH  15  21
ENDBRANCH   1  15
TORSDOF 10
