REMARK  Name = ZINCrg00000J0ouf.0
REMARK                            x       y       z     vdW  Elec       q    Type
REMARK                         _______ _______ _______ _____ _____    ______ ____
ROOT
ATOM      1  C   LIG    1       -6.411   2.584  -1.217  0.00  0.00    +0.080 C 
ATOM      2  C   LIG    1       -6.171   3.452   0.020  0.00  0.00    +0.210 C 
ENDROOT
BRANCH   2   3
ATOM      3  C   LIG    1       -4.769   4.002  -0.015  0.00  0.00    +0.510 C 
ATOM      4  N   LIG    1       -3.716   3.161  -0.031  0.00  0.00    -0.620 N 
ATOM      5  H   LIG    1       -3.861   2.202  -0.020  0.00  0.00    +0.430 HD
ATOM      6  O   LIG    1       -4.588   5.201  -0.030  0.00  0.00    -0.480 OA
BRANCH   4   7
ATOM      7  C   LIG    1       -2.425   3.667  -0.064  0.00  0.00    +0.080 A 
ATOM      8  C   LIG    1       -1.288   2.901  -0.082  0.00  0.00    -0.240 A 
ATOM      9  C   LIG    1       -0.079   3.694  -0.110  0.00  0.00    +0.060 A 
ATOM     10  C   LIG    1       -0.311   4.999  -0.123  0.00  0.00    -0.110 A 
ATOM     11  S   LIG    1       -2.034   5.326  -0.087  0.00  0.00    +0.300 S 
BRANCH   8  12
ATOM     12  C   LIG    1       -1.297   1.435  -0.069  0.00  0.00    +0.600 C 
ATOM     13  O   LIG    1       -2.354   0.833  -0.040  0.00  0.00    -0.560 OA
ATOM     14  N   LIG    1       -0.134   0.754  -0.089  0.00  0.00    -0.850 N 
ATOM     15  H   LIG    1        0.709   1.234  -0.116  0.00  0.00    +0.400 HD
ATOM     16  H   LIG    1       -0.140  -0.216  -0.080  0.00  0.00    +0.410 HD
ENDBRANCH   8  12
ENDBRANCH   4   7
ENDBRANCH   2   3
BRANCH   2  17
ATOM     17  O   LIG    1       -7.122   4.550   0.032  0.00  0.00    -0.320 OA
BRANCH  17  18
ATOM     18  C   LIG    1       -8.294   4.338   0.660  0.00  0.00    +0.510 C 
ATOM     19  O   LIG    1       -8.517   3.265   1.184  0.00  0.00    -0.460 OA
BRANCH  18  20
ATOM     20  C   LIG    1       -9.308   5.408   0.711  0.00  0.00    -0.100 A 
ATOM     21  C   LIG    1       -9.753   6.012  -0.467  0.00  0.00    +0.100 A 
ATOM     22  C   LIG    1      -10.705   7.008  -0.412  0.00  0.00    +0.040 A 
ATOM     23  C   LIG    1      -11.214   7.422   0.807  0.00  0.00    +0.090 A 
ATOM     24  C   LIG    1      -10.779   6.837   1.981  0.00  0.00    +0.020 A 
ATOM     25  C   LIG    1       -9.826   5.830   1.944  0.00  0.00    +0.180 A 
BRANCH  25  26
ATOM     26  N   LIG    1       -9.385   5.238   3.132  0.00  0.00    -0.340 N 
ATOM     27  C   LIG    1       -9.864   5.442   4.379  0.00  0.00    +0.470 A 
ATOM     28  N   LIG    1       -9.167   4.691   5.190  0.00  0.00    -0.320 NA
ATOM     29  N   LIG    1       -8.281   4.025   4.542  0.00  0.00    -0.030 NA
ATOM     30  N   LIG    1       -8.351   4.297   3.283  0.00  0.00    -0.050 NA
ENDBRANCH  25  26
ENDBRANCH  18  20
ENDBRANCH  17  18
ENDBRANCH   2  17
TORSDOF 7
