REMARK  Name = ZINCrH000004r4ey.0
REMARK                            x       y       z     vdW  Elec       q    Type
REMARK                         _______ _______ _______ _____ _____    ______ ____
ROOT
ATOM      1  C   LIG    1       -0.016   1.344   0.009  0.00  0.00    +0.580 C 
ATOM      2  N   LIG    1        0.066   0.029  -0.275  0.00  0.00    -0.590 N 
ATOM      3  C   LIG    1        1.340  -0.577  -0.693  0.00  0.00    +0.290 C 
ATOM      4  C   LIG    1        1.095  -1.384  -1.974  0.00  0.00    +0.200 C 
ATOM      5  O   LIG    1        0.003  -2.283  -1.762  0.00  0.00    -0.360 OA
ATOM      6  C   LIG    1       -1.241  -1.637  -1.482  0.00  0.00    +0.100 C 
ATOM      7  C   LIG    1       -2.342  -2.689  -1.337  0.00  0.00    +0.080 C 
ATOM      8  C   LIG    1       -1.592  -0.684  -2.627  0.00  0.00    +0.020 C 
ATOM      9  C   LIG    1       -1.114  -0.844  -0.171  0.00  0.00    +0.280 C 
ATOM     10  O   LIG    1       -1.099   1.852   0.225  0.00  0.00    -0.520 OA
ENDROOT
BRANCH   1  15
ATOM     11  C   LIG    1        4.806   4.343   0.159  0.00  0.00    +0.150 C 
ATOM     12  C   LIG    1        3.498   3.595   0.124  0.00  0.00    +0.090 A 
ATOM     13  C   LIG    1        2.302   4.288   0.208  0.00  0.00    +0.040 A 
ATOM     14  C   LIG    1        1.120   3.559   0.167  0.00  0.00    +0.100 A 
ATOM     15  C   LIG    1        1.212   2.170   0.053  0.00  0.00    +0.010 A 
ATOM     16  N   LIG    1        2.407   1.595  -0.021  0.00  0.00    -0.200 NA
ATOM     17  N   LIG    1        3.494   2.277   0.013  0.00  0.00    -0.240 NA
ENDBRANCH   1  15
BRANCH   4  18
ATOM     18  C   LIG    1        2.333  -2.169  -2.320  0.00  0.00    -0.080 A 
ATOM     19  C   LIG    1        2.555  -3.403  -1.737  0.00  0.00    +0.080 A 
ATOM     20  C   LIG    1        3.689  -4.125  -2.058  0.00  0.00    +0.020 A 
ATOM     21  C   LIG    1        4.607  -3.609  -2.953  0.00  0.00    +0.080 A 
ATOM     22  C   LIG    1        4.388  -2.373  -3.532  0.00  0.00    -0.180 A 
ATOM     23  C   LIG    1        3.252  -1.653  -3.215  0.00  0.00    +0.070 A 
BRANCH  22  24
ATOM     24  C   LIG    1        5.389  -1.810  -4.508  0.00  0.00    +0.510 C 
ATOM     25  F   LIG    1        4.730  -0.992  -5.432  0.00  0.00    -0.180 F 
ATOM     26  F   LIG    1        6.023  -2.858  -5.182  0.00  0.00    -0.180 F 
ATOM     27  F   LIG    1        6.343  -1.057  -3.815  0.00  0.00    -0.170 F 
ENDBRANCH  22  24
ENDBRANCH   4  18
TORSDOF 3
