REMARK  Name = ZINCrH00000ashJC.0
REMARK                            x       y       z     vdW  Elec       q    Type
REMARK                         _______ _______ _______ _____ _____    ______ ____
ROOT
ATOM      1  C   LIG    1       -2.466   0.008   1.442  0.00  0.00    +0.100 C 
ATOM      2  C   LIG    1       -2.476   0.799   0.132  0.00  0.00    +0.280 C 
ENDROOT
BRANCH   2   3
ATOM      3  N   LIG    1       -3.624   1.708   0.120  0.00  0.00    -0.280 N 
ATOM      4  C   LIG    1       -4.135   2.352   1.195  0.00  0.00    +0.160 A 
ATOM      5  C   LIG    1       -5.188   3.086   0.730  0.00  0.00    +0.040 A 
ATOM      6  N   LIG    1       -5.256   2.848  -0.592  0.00  0.00    -0.250 NA
ATOM      7  N   LIG    1       -4.314   2.034  -0.916  0.00  0.00    -0.070 NA
BRANCH   5   8
ATOM      8  C   LIG    1       -6.078   3.968   1.525  0.00  0.00    -0.070 A 
ATOM      9  C   LIG    1       -5.880   4.107   2.897  0.00  0.00    +0.070 A 
ATOM     10  C   LIG    1       -6.705   4.931   3.632  0.00  0.00    -0.080 A 
ATOM     11  C   LIG    1       -7.741   5.615   3.007  0.00  0.00    +0.220 A 
ATOM     12  C   LIG    1       -7.944   5.475   1.640  0.00  0.00    -0.080 A 
ATOM     13  C   LIG    1       -7.117   4.655   0.900  0.00  0.00    +0.090 A 
BRANCH  11  14
ATOM     14  N   LIG    1       -8.580   6.446   3.755  0.00  0.00    -0.880 N 
ATOM     15  H   LIG    1       -8.439   6.544   4.709  0.00  0.00    +0.400 HD
ATOM     16  H   LIG    1       -9.303   6.924   3.319  0.00  0.00    +0.400 HD
ENDBRANCH  11  14
ENDBRANCH   5   8
ENDBRANCH   2   3
BRANCH   2  17
ATOM     17  C   LIG    1       -1.202   1.596   0.017  0.00  0.00    +0.510 C 
ATOM     18  N   LIG    1       -0.011   0.966   0.007  0.00  0.00    -0.660 N 
ATOM     19  H   LIG    1        0.025  -0.004   0.007  0.00  0.00    +0.420 HD
ATOM     20  O   LIG    1       -1.249   2.805  -0.067  0.00  0.00    -0.490 OA
BRANCH  18  21
ATOM     21  C   LIG    1        1.174   1.710  -0.007  0.00  0.00    +0.140 A 
ATOM     22  C   LIG    1        1.235   2.907  -0.708  0.00  0.00    +0.060 A 
ATOM     23  C   LIG    1        2.405   3.642  -0.716  0.00  0.00    +0.040 A 
ATOM     24  C   LIG    1        3.518   3.180  -0.037  0.00  0.00    +0.060 A 
ATOM     25  C   LIG    1        3.462   1.985   0.657  0.00  0.00    -0.160 A 
ATOM     26  C   LIG    1        2.293   1.249   0.673  0.00  0.00    +0.050 A 
BRANCH  25  27
ATOM     27  C   LIG    1        4.677   1.486   1.395  0.00  0.00    +0.510 C 
ATOM     28  F   LIG    1        4.272   0.733   2.503  0.00  0.00    -0.180 F 
ATOM     29  F   LIG    1        5.441   2.576   1.826  0.00  0.00    -0.170 F 
ATOM     30  F   LIG    1        5.444   0.686   0.542  0.00  0.00    -0.170 F 
ENDBRANCH  25  27
ENDBRANCH  18  21
ENDBRANCH   2  17
TORSDOF 6
