REMARK  Name = ZINCpe00000bcSwm.0
REMARK                            x       y       z     vdW  Elec       q    Type
REMARK                         _______ _______ _______ _____ _____    ______ ____
ROOT
ATOM      1  C   LIG    1       -2.733  -0.563   3.874  0.00  0.00    +0.500 C 
ATOM      2  N   LIG    1       -1.679  -0.230   4.644  0.00  0.00    -0.620 N 
ATOM      3  C   LIG    1       -0.494  -1.097   4.706  0.00  0.00    +0.270 C 
ATOM      4  C   LIG    1        0.742  -0.259   4.337  0.00  0.00    +0.270 C 
ATOM      5  N   LIG    1        0.725   0.975   5.135  0.00  0.00    -0.600 N 
ATOM      6  C   LIG    1       -0.462   1.840   5.077  0.00  0.00    +0.290 C 
ATOM      7  C   LIG    1        1.780   1.309   5.905  0.00  0.00    +0.570 C 
ATOM      8  O   LIG    1        1.788   2.369   6.499  0.00  0.00    -0.510 OA
ATOM      9  C   LIG    1       -1.695   1.005   5.442  0.00  0.00    +0.290 C 
ATOM     10  O   LIG    1       -3.708   0.158   3.835  0.00  0.00    -0.520 OA
ENDROOT
BRANCH   7  11
ATOM     11  C   LIG    1        2.926   0.385   6.026  0.00  0.00    -0.140 A 
ATOM     12  C   LIG    1        3.581  -0.074   4.882  0.00  0.00    +0.050 A 
ATOM     13  C   LIG    1        4.656  -0.933   5.003  0.00  0.00    +0.090 A 
ATOM     14  C   LIG    1        5.078  -1.348   6.257  0.00  0.00    +0.050 A 
ATOM     15  C   LIG    1        4.431  -0.901   7.394  0.00  0.00    +0.040 A 
ATOM     16  F   LIG    1        5.294  -1.375   3.897  0.00  0.00    -0.130 F 
ATOM     17  C   LIG    1        3.357  -0.037   7.288  0.00  0.00    +0.140 A 
ATOM     18  F   LIG    1        2.725   0.398   8.400  0.00  0.00    -0.120 F 
ENDBRANCH   7  11
BRANCH   1  19
ATOM     19  C   LIG    1       -2.702  -1.832   3.062  0.00  0.00    +0.330 C 
BRANCH  19  21
ATOM     20  C   LIG    1       -4.065  -1.443   1.080  0.00  0.00    +0.550 C 
ATOM     21  N   LIG    1       -3.957  -1.966   2.318  0.00  0.00    -0.600 N 
ATOM     22  C   LIG    1       -5.094  -2.668   2.918  0.00  0.00    +0.290 C 
ATOM     23  O   LIG    1       -3.122  -0.860   0.582  0.00  0.00    -0.540 OA
BRANCH  20  25
ATOM     24  C   LIG    1       -5.432  -1.062  -0.889  0.00  0.00    +0.140 C 
ATOM     25  C   LIG    1       -5.325  -1.578   0.333  0.00  0.00    -0.090 C 
ENDBRANCH  20  25
ENDBRANCH  19  21
ENDBRANCH   1  19
TORSDOF 4
