REMARK  Name = ZINCpk00000y1TyR.0
REMARK                            x       y       z     vdW  Elec       q    Type
REMARK                         _______ _______ _______ _____ _____    ______ ____
ROOT
ATOM      1  C   LIG    1       -2.147  -0.123  -0.349  0.00  0.00    +0.190 C 
ATOM      2  N   LIG    1       -1.177  -0.622   0.635  0.00  0.00    -0.530 NA
ATOM      3  C   LIG    1       -1.147  -2.092   0.646  0.00  0.00    +0.150 C 
ATOM      4  C   LIG    1       -0.165  -2.573   1.718  0.00  0.00    +0.220 C 
ATOM      5  O   LIG    1        1.124  -2.003   1.472  0.00  0.00    -0.380 OA
ATOM      6  C   LIG    1        1.124  -0.574   1.462  0.00  0.00    +0.170 C 
ATOM      7  C   LIG    1        2.533  -0.056   1.164  0.00  0.00    +0.030 C 
ATOM      8  C   LIG    1        2.522   1.476   1.194  0.00  0.00    +0.290 C 
ATOM      9  N   LIG    1        1.487   1.964   0.273  0.00  0.00    -0.590 N 
ATOM     10  C   LIG    1        0.116   1.452   0.409  0.00  0.00    +0.310 C 
ATOM     11  C   LIG    1        1.790   2.866  -0.682  0.00  0.00    +0.580 C 
ATOM     12  O   LIG    1        0.947   3.201  -1.490  0.00  0.00    -0.540 OA
ATOM     13  C   LIG    1        0.163  -0.079   0.377  0.00  0.00    +0.090 C 
ENDROOT
BRANCH  11  14
ATOM     14  C   LIG    1        3.148   3.448  -0.745  0.00  0.00    -0.090 A 
ATOM     15  C   LIG    1        4.258   2.619  -0.911  0.00  0.00    +0.030 A 
ATOM     16  C   LIG    1        5.523   3.168  -0.970  0.00  0.00    +0.020 A 
ATOM     17  C   LIG    1        5.691   4.537  -0.864  0.00  0.00    +0.030 A 
ATOM     18  C   LIG    1        4.594   5.365  -0.699  0.00  0.00    +0.030 A 
ATOM     19  C   LIG    1        3.324   4.829  -0.644  0.00  0.00    -0.070 A 
BRANCH  19  20
ATOM     20  C   LIG    1        2.130   5.732  -0.471  0.00  0.00    +0.380 C 
BRANCH  20  21
ATOM     21  N   LIG    1        1.771   5.799   0.947  0.00  0.00    -0.370 N 
ATOM     22  C   LIG    1        1.655   6.924   1.684  0.00  0.00    +0.220 A 
ATOM     23  C   LIG    1        1.306   6.560   2.940  0.00  0.00    -0.120 A 
ATOM     24  C   LIG    1        1.214   5.165   2.974  0.00  0.00    +0.220 A 
ATOM     25  N   LIG    1        1.493   4.708   1.780  0.00  0.00    -0.280 NA
ENDBRANCH  20  21
ENDBRANCH  19  20
ENDBRANCH  11  14
TORSDOF 3
