REMARK  Name = ZINCvU00000007Uv.0
REMARK                            x       y       z     vdW  Elec       q    Type
REMARK                         _______ _______ _______ _____ _____    ______ ____
ROOT
ATOM      1  N   LIG    1        3.212 -11.671  -0.592  0.00  0.00    -0.740 N 
ATOM      2  H   LIG    1        2.432 -11.656  -0.016  0.00  0.00    +0.390 HD
ATOM      3  C   LIG    1        3.691 -10.521  -1.107  0.00  0.00    +0.710 C 
ATOM      4  N   LIG    1        3.150  -9.342  -0.741  0.00  0.00    -0.630 N 
ATOM      5  C   LIG    1        1.965  -9.299   0.127  0.00  0.00    +0.260 C 
ATOM      6  C   LIG    1        0.886  -8.451  -0.554  0.00  0.00    +0.040 C 
ATOM      7  C   LIG    1        1.464  -7.076  -0.896  0.00  0.00    -0.030 C 
ATOM      8  C   LIG    1        2.634  -7.240  -1.869  0.00  0.00    +0.040 C 
ATOM      9  C   LIG    1        3.732  -8.075  -1.204  0.00  0.00    +0.300 C 
ATOM     10  O   LIG    1        4.612 -10.547  -1.900  0.00  0.00    -0.590 OA
ENDROOT
BRANCH   1  11
ATOM     11  C   LIG    1        3.869 -12.942  -0.904  0.00  0.00    +0.300 C 
ATOM     12  C   LIG    1        5.033 -13.165   0.065  0.00  0.00    +0.040 C 
BRANCH  11  17
ATOM     13  C   LIG    1        0.067 -17.263  -0.373  0.00  0.00    +0.100 C 
ATOM     14  C   LIG    1        1.058 -16.136  -0.511  0.00  0.00    -0.120 A 
ATOM     15  C   LIG    1        1.968 -16.140  -1.551  0.00  0.00    +0.050 A 
ATOM     16  C   LIG    1        2.877 -15.106  -1.677  0.00  0.00    +0.020 A 
ATOM     17  C   LIG    1        2.877 -14.068  -0.765  0.00  0.00    -0.070 A 
ATOM     18  C   LIG    1        1.971 -14.065   0.279  0.00  0.00    -0.020 A 
ATOM     19  C   LIG    1        1.057 -15.097   0.404  0.00  0.00    +0.100 A 
ATOM     20  F   LIG    1        0.167 -15.093   1.421  0.00  0.00    -0.140 F 
ENDBRANCH  11  17
ENDBRANCH   1  11
BRANCH   7  21
ATOM     21  C   LIG    1        0.395  -6.226  -1.534  0.00  0.00    +0.400 C 
ATOM     22  O   LIG    1       -0.535  -6.752  -2.108  0.00  0.00    -0.450 OA
BRANCH  21  23
ATOM     23  C   LIG    1        0.480  -4.759  -1.462  0.00  0.00    -0.180 A 
ATOM     24  C   LIG    1       -0.509  -3.967  -2.053  0.00  0.00    +0.070 A 
ATOM     25  C   LIG    1       -0.422  -2.593  -1.981  0.00  0.00    +0.000 A 
ATOM     26  C   LIG    1        0.641  -1.997  -1.326  0.00  0.00    -0.040 A 
ATOM     27  C   LIG    1        1.627  -2.773  -0.743  0.00  0.00    +0.000 A 
ATOM     28  C   LIG    1        1.551  -4.149  -0.801  0.00  0.00    +0.060 A 
BRANCH  26  29
ATOM     29  C   LIG    1        0.729  -0.494  -1.252  0.00  0.00    +0.080 C 
BRANCH  29  30
ATOM     30  C   LIG    1        0.009  -0.002   0.005  0.00  0.00    -0.020 C 
ATOM     31  C   LIG    1        0.744  -0.511   1.246  0.00  0.00    +0.020 C 
ATOM     32  C   LIG    1       -0.011   1.528   0.015  0.00  0.00    +0.030 C 
ENDBRANCH  29  30
ENDBRANCH  26  29
ENDBRANCH  21  23
ENDBRANCH   7  21
TORSDOF 6
