REMARK  Name = ZINCpk00000y543X.0
REMARK                            x       y       z     vdW  Elec       q    Type
REMARK                         _______ _______ _______ _____ _____    ______ ____
ROOT
ATOM      1  N   LIG    1       -0.703   1.561   1.216  0.00  0.00    -0.470 N 
ATOM      2  C   LIG    1       -2.097   1.094   1.236  0.00  0.00    +0.190 C 
ATOM      3  C   LIG    1       -2.819   1.602  -0.015  0.00  0.00    +0.190 C 
ATOM      4  O   LIG    1       -2.115   1.157  -1.178  0.00  0.00    -0.360 OA
ATOM      5  C   LIG    1       -0.755   1.594  -1.231  0.00  0.00    +0.110 C 
ATOM      6  C   LIG    1       -0.088   1.037  -2.490  0.00  0.00    +0.060 C 
ATOM      7  C   LIG    1       -0.711   3.123  -1.262  0.00  0.00    +0.040 C 
ATOM      8  C   LIG    1       -0.013   1.086   0.008  0.00  0.00    +0.200 C 
ENDROOT
BRANCH   1  13
ATOM      9  C   LIG    1        1.733   0.074   3.359  0.00  0.00    +0.350 A 
ATOM     10  N   LIG    1        1.302   0.384   4.565  0.00  0.00    -0.540 NA
ATOM     11  C   LIG    1        0.195   1.094   4.734  0.00  0.00    +0.190 A 
ATOM     12  C   LIG    1       -0.513   1.511   3.624  0.00  0.00    -0.100 A 
ATOM     13  C   LIG    1       -0.029   1.166   2.360  0.00  0.00    +0.360 A 
ATOM     14  C   LIG    1       -0.286   1.440   6.119  0.00  0.00    +0.140 C 
ATOM     15  N   LIG    1        1.086   0.447   2.273  0.00  0.00    -0.560 NA
BRANCH   9  17
ATOM     16  C   LIG    1        2.649  -2.225   3.207  0.00  0.00    +0.050 C 
ATOM     17  C   LIG    1        2.996  -0.735   3.219  0.00  0.00    +0.120 C 
ENDBRANCH   9  17
ENDBRANCH   1  13
BRANCH   3  18
ATOM     18  C   LIG    1       -4.247   1.053  -0.040  0.00  0.00    +0.200 C 
BRANCH  18  19
ATOM     19  O   LIG    1       -4.954   1.615  -1.147  0.00  0.00    -0.350 OA
BRANCH  19  20
ATOM     20  C   LIG    1       -6.305   1.165  -1.262  0.00  0.00    +0.210 C 
BRANCH  20  21
ATOM     21  C   LIG    1       -6.952   1.818  -2.456  0.00  0.00    +0.510 C 
ATOM     22  N   LIG    1       -8.235   1.542  -2.763  0.00  0.00    -0.620 N 
ATOM     23  C   LIG    1       -9.001   0.607  -1.935  0.00  0.00    +0.290 C 
ATOM     24  C   LIG    1       -8.864   2.177  -3.924  0.00  0.00    +0.300 C 
ATOM     25  O   LIG    1       -6.318   2.592  -3.141  0.00  0.00    -0.510 OA
ENDBRANCH  20  21
ENDBRANCH  19  20
ENDBRANCH  18  19
ENDBRANCH   3  18
TORSDOF 6
