REMARK  Name = ZINCqH00000046gw.1
REMARK                            x       y       z     vdW  Elec       q    Type
REMARK                         _______ _______ _______ _____ _____    ______ ____
ROOT
ATOM      1  N   LIG    1       -1.333   3.456   0.027  0.00  0.00    -0.720 N 
ATOM      2  H   LIG    1       -0.501   3.954   0.026  0.00  0.00    +0.400 HD
ATOM      3  C   LIG    1       -1.311   2.108   0.020  0.00  0.00    +0.560 C 
ATOM      4  O   LIG    1       -2.353   1.484   0.021  0.00  0.00    -0.510 OA
ENDROOT
BRANCH   3   5
ATOM      5  C   LIG    1       -0.017   1.389   0.010  0.00  0.00    -0.060 A 
ATOM      6  C   LIG    1        1.180   2.111   0.002  0.00  0.00    +0.030 A 
ATOM      7  C   LIG    1        2.389   1.451  -0.013  0.00  0.00    +0.140 A 
ATOM      8  C   LIG    1        2.416   0.059  -0.021  0.00  0.00    -0.160 A 
ATOM      9  C   LIG    1        3.688  -0.691  -0.037  0.00  0.00    +0.550 A 
ATOM     10  N   LIG    1        3.636  -2.040  -0.045  0.00  0.00    -0.510 N 
ATOM     11  C   LIG    1        2.463  -2.692  -0.036  0.00  0.00    +0.530 A 
ATOM     12  N   LIG    1        1.278  -2.059  -0.022  0.00  0.00    -0.580 N 
ATOM     13  H   LIG    1        0.458  -2.577  -0.016  0.00  0.00    +0.450 HD
ATOM     14  S   LIG    1        2.478  -4.404  -0.046  0.00  0.00    -0.530 S 
ATOM     15  C   LIG    1        4.885  -2.807  -0.061  0.00  0.00    +0.370 C 
ATOM     16  O   LIG    1        4.755  -0.107  -0.045  0.00  0.00    -0.470 OA
ATOM     17  C   LIG    1        1.215  -0.673  -0.013  0.00  0.00    +0.170 A 
ATOM     18  C   LIG    1        0.002  -0.004   0.002  0.00  0.00    +0.070 A 
ENDBRANCH   3   5
BRANCH   1  19
ATOM     19  C   LIG    1       -2.614   4.168   0.037  0.00  0.00    +0.290 C 
BRANCH  19  20
ATOM     20  C   LIG    1       -2.424   5.534   0.644  0.00  0.00    -0.090 A 
ATOM     21  C   LIG    1       -1.289   6.267   0.354  0.00  0.00    +0.030 A 
ATOM     22  C   LIG    1       -1.118   7.523   0.906  0.00  0.00    +0.040 A 
ATOM     23  C   LIG    1       -2.077   8.041   1.758  0.00  0.00    -0.030 A 
ATOM     24  C   LIG    1       -3.210   7.304   2.052  0.00  0.00    +0.040 A 
ATOM     25 CL   LIG    1       -1.859   9.615   2.457  0.00  0.00    -0.060 Cl
ATOM     26  C   LIG    1       -3.383   6.051   1.495  0.00  0.00    +0.050 A 
ENDBRANCH  19  20
BRANCH  19  28
ATOM     27  C   LIG    1       -3.438   2.929  -1.970  0.00  0.00    +0.010 C 
ATOM     28  C   LIG    1       -3.127   4.313  -1.397  0.00  0.00    +0.020 C 
ENDBRANCH  19  28
ENDBRANCH   1  19
TORSDOF 4
