REMARK  Name = ZINCrH000004mueR.0
REMARK                            x       y       z     vdW  Elec       q    Type
REMARK                         _______ _______ _______ _____ _____    ______ ____
ROOT
ATOM      1  C   LIG    1       -2.649  -2.707  -0.606  0.00  0.00    +0.290 A 
ATOM      2  C   LIG    1       -2.467  -4.040  -0.395  0.00  0.00    -0.220 A 
ATOM      3  C   LIG    1       -3.646  -4.553   0.151  0.00  0.00    +0.250 A 
ATOM      4  N   LIG    1       -4.511  -3.577   0.260  0.00  0.00    -0.270 NA
ATOM      5  C   LIG    1       -1.214  -4.822  -0.695  0.00  0.00    +0.110 C 
ATOM      6  N   LIG    1       -3.912  -2.401  -0.209  0.00  0.00    -0.370 N 
ENDROOT
BRANCH   6   7
ATOM      7  C   LIG    1       -4.536  -1.076  -0.264  0.00  0.00    +0.310 C 
ATOM      8  C   LIG    1       -5.176  -0.765   1.088  0.00  0.00    +0.040 C 
ATOM      9  C   LIG    1       -6.005   0.517   0.947  0.00  0.00    +0.030 C 
ATOM     10  C   LIG    1       -7.223   0.209   0.078  0.00  0.00    +0.070 C 
ATOM     11  C   LIG    1       -6.804  -0.466  -1.202  0.00  0.00    -0.060 A 
ATOM     12  C   LIG    1       -7.712  -0.480  -2.252  0.00  0.00    +0.000 A 
ATOM     13  C   LIG    1       -7.390  -1.087  -3.449  0.00  0.00    +0.010 A 
ATOM     14  C   LIG    1       -6.155  -1.687  -3.603  0.00  0.00    +0.000 A 
ATOM     15  C   LIG    1       -5.251  -1.673  -2.561  0.00  0.00    +0.010 A 
ATOM     16  C   LIG    1       -5.572  -1.060  -1.357  0.00  0.00    -0.100 A 
ENDBRANCH   6   7
BRANCH   1  18
ATOM     17  C   LIG    1       -0.409  -1.949  -0.821  0.00  0.00    +0.580 C 
ATOM     18  N   LIG    1       -1.714  -1.821  -1.136  0.00  0.00    -0.640 N 
ATOM     19  H   LIG    1       -2.001  -1.111  -1.732  0.00  0.00    +0.420 HD
ATOM     20  O   LIG    1       -0.059  -2.789  -0.015  0.00  0.00    -0.490 OA
BRANCH  17  24
ATOM     21  C   LIG    1        2.423   0.570  -2.640  0.00  0.00    +0.110 A 
ATOM     22  C   LIG    1        2.872  -0.377  -1.724  0.00  0.00    +0.030 A 
ATOM     23  C   LIG    1        1.942  -1.207  -1.124  0.00  0.00    +0.100 A 
ATOM     24  C   LIG    1        0.595  -1.068  -1.455  0.00  0.00    +0.030 A 
ATOM     25  N   LIG    1        0.204  -0.152  -2.335  0.00  0.00    -0.420 NA
ATOM     26  C   LIG    1        1.061   0.651  -2.922  0.00  0.00    +0.190 A 
BRANCH  21  28
ATOM     27  C   LIG    1        2.761   2.348  -4.179  0.00  0.00    +0.250 C 
ATOM     28  O   LIG    1        3.301   1.404  -3.252  0.00  0.00    -0.300 OA
ENDBRANCH  21  28
ENDBRANCH  17  24
ENDBRANCH   1  18
TORSDOF 4
