REMARK  Name = ZINCrD00000F5LIW.0
REMARK                            x       y       z     vdW  Elec       q    Type
REMARK                         _______ _______ _______ _____ _____    ______ ____
ROOT
ATOM      1  C   LIG    1       -2.554   4.019   0.036  0.00  0.00    +0.250 C 
ENDROOT
BRANCH   1   2
ATOM      2  C   LIG    1       -2.377   5.516   0.043  0.00  0.00    +0.520 C 
ATOM      3  N   LIG    1       -3.457   6.322   0.053  0.00  0.00    -0.720 N 
ATOM      4  H   LIG    1       -4.348   5.939   0.055  0.00  0.00    +0.400 HD
ATOM      5  O   LIG    1       -1.262   5.995   0.041  0.00  0.00    -0.510 OA
BRANCH   3   6
ATOM      6  C   LIG    1       -3.284   7.777   0.060  0.00  0.00    +0.230 C 
ATOM      7  C   LIG    1       -3.093   8.261   1.499  0.00  0.00    +0.020 C 
BRANCH   6   8
ATOM      8  C   LIG    1       -4.526   8.441  -0.540  0.00  0.00    +0.030 C 
BRANCH   8   9
ATOM      9  C   LIG    1       -4.647   8.055  -2.016  0.00  0.00    +0.060 C 
BRANCH   9  10
ATOM     10  C   LIG    1       -5.870   8.708  -2.607  0.00  0.00    -0.080 A 
ATOM     11  C   LIG    1       -7.086   8.052  -2.579  0.00  0.00    +0.000 A 
ATOM     12  C   LIG    1       -8.208   8.653  -3.117  0.00  0.00    +0.000 A 
ATOM     13  C   LIG    1       -8.112   9.906  -3.692  0.00  0.00    +0.000 A 
ATOM     14  C   LIG    1       -6.895  10.561  -3.724  0.00  0.00    +0.000 A 
ATOM     15  C   LIG    1       -5.774   9.962  -3.182  0.00  0.00    +0.000 A 
ENDBRANCH   9  10
ENDBRANCH   8   9
ENDBRANCH   6   8
ENDBRANCH   3   6
ENDBRANCH   1   2
BRANCH   1  16
ATOM     16  O   LIG    1       -1.272   3.388   0.026  0.00  0.00    -0.330 OA
BRANCH  16  17
ATOM     17  C   LIG    1       -1.254   2.039   0.019  0.00  0.00    +0.510 C 
ATOM     18  O   LIG    1       -2.299   1.416   0.021  0.00  0.00    -0.520 OA
BRANCH  17  20
ATOM     19  C   LIG    1        0.002  -0.004   0.002  0.00  0.00    +0.170 C 
ATOM     20  C   LIG    1       -0.016   1.347   0.009  0.00  0.00    -0.080 C 
BRANCH  19  24
ATOM     21  C   LIG    1        3.703  -2.074  -0.044  0.00  0.00    +0.150 A 
ATOM     22  C   LIG    1        2.510  -2.788  -0.037  0.00  0.00    -0.020 A 
ATOM     23  C   LIG    1        1.306  -2.121  -0.022  0.00  0.00    +0.100 A 
ATOM     24  C   LIG    1        1.285  -0.722  -0.014  0.00  0.00    -0.130 A 
ATOM     25  C   LIG    1        2.489  -0.007  -0.028  0.00  0.00    +0.090 A 
ATOM     26  C   LIG    1        3.687  -0.684  -0.036  0.00  0.00    -0.080 A 
BRANCH  21  28
ATOM     27  C   LIG    1        6.076  -1.942  -0.066  0.00  0.00    +0.240 C 
ATOM     28  O   LIG    1        4.888  -2.737  -0.059  0.00  0.00    -0.310 OA
ENDBRANCH  21  28
ENDBRANCH  19  24
ENDBRANCH  17  20
ENDBRANCH  16  17
ENDBRANCH   1  16
TORSDOF 10
