REMARK  Name = ZINCrD000000AquR.0
REMARK                            x       y       z     vdW  Elec       q    Type
REMARK                         _______ _______ _______ _____ _____    ______ ____
ROOT
ATOM      1  O   LIG    1        1.277   5.829  -0.082  0.00  0.00    -0.480 OA
ATOM      2  C   LIG    1        2.335   5.236  -0.095  0.00  0.00    +0.520 C 
ATOM      3  N   LIG    1        2.355   3.891  -0.001  0.00  0.00    -0.670 N 
ATOM      4  H   LIG    1        3.202   3.422   0.054  0.00  0.00    +0.420 HD
ENDROOT
BRANCH   3   5
ATOM      5  C   LIG    1        1.154   3.173   0.019  0.00  0.00    +0.150 A 
ATOM      6  C   LIG    1        0.033   3.709   0.637  0.00  0.00    +0.100 A 
ATOM      7  C   LIG    1       -1.151   2.997   0.654  0.00  0.00    -0.160 A 
ATOM      8  C   LIG    1       -1.222   1.755   0.051  0.00  0.00    +0.080 A 
ATOM      9  C   LIG    1       -0.106   1.216  -0.562  0.00  0.00    +0.060 A 
ATOM     10  C   LIG    1        1.081   1.922  -0.582  0.00  0.00    -0.030 A 
ATOM     11 CL   LIG    1        2.481   1.247  -1.357  0.00  0.00    -0.050 Cl
BRANCH   7  12
ATOM     12  C   LIG    1       -2.369   3.579   1.326  0.00  0.00    +0.510 C 
ATOM     13  F   LIG    1       -1.969   4.407   2.380  0.00  0.00    -0.170 F 
ATOM     14  F   LIG    1       -3.165   2.542   1.825  0.00  0.00    -0.170 F 
ATOM     15  F   LIG    1       -3.102   4.325   0.398  0.00  0.00    -0.170 F 
ENDBRANCH   7  12
ENDBRANCH   3   5
BRANCH   2  16
ATOM     16  C   LIG    1        3.627   6.002  -0.217  0.00  0.00    +0.260 C 
BRANCH  16  17
ATOM     17  O   LIG    1        3.345   7.400  -0.302  0.00  0.00    -0.280 OA
BRANCH  17  18
ATOM     18  C   LIG    1        4.409   8.238  -0.418  0.00  0.00    +0.140 A 
ATOM     19  C   LIG    1        5.698   7.724  -0.443  0.00  0.00    -0.040 A 
ATOM     20  C   LIG    1        6.778   8.575  -0.566  0.00  0.00    +0.060 A 
ATOM     21  C   LIG    1        6.576   9.945  -0.653  0.00  0.00    +0.090 A 
ATOM     22  C   LIG    1        5.287  10.460  -0.622  0.00  0.00    +0.090 A 
ATOM     23  C   LIG    1        4.207   9.608  -0.505  0.00  0.00    +0.030 A 
BRANCH  21  24
ATOM     24  N   LIG    1        7.675  10.810  -0.772  0.00  0.00    -0.320 N 
ATOM     25  C   LIG    1        8.982  10.475  -0.811  0.00  0.00    +0.460 A 
ATOM     26  N   LIG    1        9.664  11.584  -0.929  0.00  0.00    -0.330 NA
ATOM     27  N   LIG    1        8.877  12.599  -0.960  0.00  0.00    -0.030 NA
ATOM     28  N   LIG    1        7.650  12.213  -0.869  0.00  0.00    -0.080 NA
ENDBRANCH  21  24
ENDBRANCH  17  18
ENDBRANCH  16  17
ENDBRANCH   2  16
TORSDOF 6
