REMARK  Name = ZINCrD000000AJUE.0
REMARK                            x       y       z     vdW  Elec       q    Type
REMARK                         _______ _______ _______ _____ _____    ______ ____
ROOT
ATOM      1  O   LIG    1       -4.956   1.880  -6.448  0.00  0.00    -0.510 OA
ATOM      2  C   LIG    1       -4.212   2.724  -5.986  0.00  0.00    +0.560 C 
ATOM      3  N   LIG    1       -4.024   3.887  -6.639  0.00  0.00    -0.700 N 
ATOM      4  H   LIG    1       -3.348   4.512  -6.332  0.00  0.00    +0.410 HD
ENDROOT
BRANCH   2   5
ATOM      5  C   LIG    1       -3.516   2.473  -4.709  0.00  0.00    -0.170 A 
ATOM      6  C   LIG    1       -3.710   1.267  -4.029  0.00  0.00    +0.130 A 
ATOM      7  C   LIG    1       -3.058   1.037  -2.839  0.00  0.00    -0.080 A 
ATOM      8  C   LIG    1       -2.207   2.002  -2.312  0.00  0.00    +0.160 A 
ATOM      9  C   LIG    1       -2.015   3.205  -2.982  0.00  0.00    -0.010 A 
ATOM     10  C   LIG    1       -2.660   3.441  -4.176  0.00  0.00    +0.100 A 
BRANCH   8  11
ATOM     11  O   LIG    1       -1.565   1.772  -1.139  0.00  0.00    -0.260 OA
BRANCH  11  12
ATOM     12  C   LIG    1       -1.912   0.578  -0.434  0.00  0.00    +0.150 C 
ATOM     13  C   LIG    1       -1.905   0.633   1.095  0.00  0.00    +0.110 C 
ATOM     14  C   LIG    1       -0.804  -0.126   0.353  0.00  0.00    +0.200 C 
ATOM     15  F   LIG    1       -0.836  -1.524   0.404  0.00  0.00    -0.150 F 
ATOM     16  F   LIG    1        0.472   0.447   0.326  0.00  0.00    -0.150 F 
ENDBRANCH  11  12
ENDBRANCH   8  11
ENDBRANCH   2   5
BRANCH   3  17
ATOM     17  C   LIG    1       -4.839   4.208  -7.813  0.00  0.00    +0.060 C 
ATOM     18  C   LIG    1       -5.184   5.679  -8.053  0.00  0.00    +0.090 C 
ATOM     19  C   LIG    1       -6.264   4.708  -7.569  0.00  0.00    +0.100 C 
BRANCH  17  20
ATOM     20  C   LIG    1       -4.603   3.342  -9.024  0.00  0.00    +0.560 C 
ATOM     21  N   LIG    1       -3.425   2.707  -9.179  0.00  0.00    -0.670 N 
ATOM     22  H   LIG    1       -2.769   2.719  -8.465  0.00  0.00    +0.410 HD
ATOM     23  O   LIG    1       -5.474   3.218  -9.859  0.00  0.00    -0.510 OA
BRANCH  21  24
ATOM     24  C   LIG    1       -3.147   2.029 -10.372  0.00  0.00    +0.150 A 
ATOM     25  C   LIG    1       -3.612   2.529 -11.581  0.00  0.00    +0.010 A 
ATOM     26  C   LIG    1       -3.332   1.860 -12.756  0.00  0.00    +0.030 A 
ATOM     27  C   LIG    1       -2.600   0.688 -12.729  0.00  0.00    -0.010 A 
ATOM     28  C   LIG    1       -2.140   0.184 -11.526  0.00  0.00    +0.030 A 
ATOM     29  C   LIG    1       -2.412   0.851 -10.347  0.00  0.00    -0.020 A 
ENDBRANCH  21  24
ENDBRANCH  17  20
ENDBRANCH   3  17
TORSDOF 6
