REMARK  Name = ZINCpk00000y6vCo.0
REMARK                            x       y       z     vdW  Elec       q    Type
REMARK                         _______ _______ _______ _____ _____    ______ ____
ROOT
ATOM      1  C   LIG    1        2.376   0.943  -0.019  0.00  0.00    +0.140 C 
ATOM      2  C   LIG    1        3.738   1.616   0.166  0.00  0.00    +0.060 C 
ATOM      3  C   LIG    1        4.848   0.572   0.025  0.00  0.00    +0.020 C 
ATOM      4  C   LIG    1        4.683  -0.493   1.113  0.00  0.00    +0.260 C 
ATOM      5  N   LIG    1        3.324  -1.044   1.033  0.00  0.00    -0.600 N 
ATOM      6  C   LIG    1        3.126  -2.374   0.930  0.00  0.00    +0.570 C 
ATOM      7  O   LIG    1        2.005  -2.810   0.757  0.00  0.00    -0.530 OA
ATOM      8  C   LIG    1        2.183  -0.119   1.068  0.00  0.00    +0.270 C 
ENDROOT
BRANCH   6   9
ATOM      9  C   LIG    1        4.271  -3.299   1.027  0.00  0.00    -0.150 A 
ATOM     10  C   LIG    1        5.127  -3.238   2.126  0.00  0.00    +0.080 A 
ATOM     11  C   LIG    1        6.196  -4.103   2.221  0.00  0.00    -0.010 A 
ATOM     12  C   LIG    1        6.426  -5.032   1.218  0.00  0.00    +0.080 A 
ATOM     13  C   LIG    1        5.588  -5.100   0.128  0.00  0.00    -0.170 A 
ATOM     14  C   LIG    1        5.579  -5.998  -1.094  0.00  0.00    -0.050 C 
ATOM     15  C   LIG    1        6.633  -5.553  -2.109  0.00  0.00    +0.050 C 
ATOM     16  C   LIG    1        5.787  -7.462  -0.699  0.00  0.00    +0.050 C 
ATOM     17  C   LIG    1        4.151  -5.773  -1.645  0.00  0.00    +0.250 C 
ATOM     18  O   LIG    1        3.820  -4.466  -1.144  0.00  0.00    -0.290 OA
ATOM     19  C   LIG    1        4.504  -4.241   0.008  0.00  0.00    +0.160 A 
ENDBRANCH   6   9
BRANCH   1  20
ATOM     20  O   LIG    1        2.321   0.324  -1.306  0.00  0.00    -0.530 OA
ATOM     21  H   LIG    1        1.485  -0.124  -1.492  0.00  0.00    +0.370 HD
ENDBRANCH   1  20
BRANCH   1  22
ATOM     22  C   LIG    1        1.268   1.993   0.089  0.00  0.00    +0.030 C 
BRANCH  22  26
ATOM     23  C   LIG    1        0.605   4.912  -2.296  0.00  0.00    +0.280 C 
ATOM     24  N   LIG    1        0.476   3.949  -1.200  0.00  0.00    -0.740 N 
ATOM     25  H   LIG    1       -0.274   4.010  -0.587  0.00  0.00    +0.400 HD
ATOM     26  C   LIG    1        1.398   2.979  -1.042  0.00  0.00    +0.510 C 
ATOM     27  O   LIG    1        2.335   2.903  -1.809  0.00  0.00    -0.510 OA
ENDBRANCH  22  26
ENDBRANCH   1  22
TORSDOF 4
