REMARK  Name = ZINCrg00000SjSLT.0
REMARK                            x       y       z     vdW  Elec       q    Type
REMARK                         _______ _______ _______ _____ _____    ______ ____
ROOT
ATOM      1  N   LIG    1       -0.503   4.518   3.105  0.00  0.00    -0.390 N 
ATOM      2  N   LIG    1       -0.378   5.917   3.064  0.00  0.00    -0.040 NA
ATOM      3  N   LIG    1        0.548   6.184   2.208  0.00  0.00    -0.020 NA
ATOM      4  N   LIG    1        1.022   5.099   1.711  0.00  0.00    -0.350 NA
ATOM      5  C   LIG    1        0.411   4.053   2.222  0.00  0.00    +0.420 A 
ENDROOT
BRANCH   5   6
ATOM      6  N   LIG    1        0.658   2.726   1.917  0.00  0.00    -0.440 N 
ATOM      7  C   LIG    1        1.724   2.607   0.909  0.00  0.00    +0.270 C 
ATOM      8  C   LIG    1        1.308   1.471  -0.043  0.00  0.00    +0.030 C 
ATOM      9  C   LIG    1        1.262   0.089   0.626  0.00  0.00    +0.060 C 
ATOM     10  C   LIG    1       -0.151  -0.065   0.042  0.00  0.00    +0.270 C 
ATOM     11  F   LIG    1       -0.169  -0.632  -1.237  0.00  0.00    -0.170 F 
ATOM     12  F   LIG    1       -1.056  -0.673   0.919  0.00  0.00    -0.190 F 
ATOM     13  C   LIG    1       -0.238   1.470   0.036  0.00  0.00    -0.040 C 
ATOM     14  C   LIG    1       -0.556   2.064   1.418  0.00  0.00    +0.240 C 
ENDBRANCH   5   6
BRANCH   1  15
ATOM     15  C   LIG    1       -1.424   3.731   3.929  0.00  0.00    +0.390 C 
BRANCH  15  21
ATOM     16  C   LIG    1       -0.705   4.124   6.293  0.00  0.00    -0.650 A 
ATOM     17  C   LIG    1       -0.065   3.720   7.451  0.00  0.00    +0.100 A 
ATOM     18  C   LIG    1        0.563   2.490   7.500  0.00  0.00    +0.020 A 
ATOM     19  C   LIG    1        0.548   1.661   6.394  0.00  0.00    +0.070 A 
ATOM     20  C   LIG    1       -0.095   2.063   5.238  0.00  0.00    +0.040 A 
ATOM     21  C   LIG    1       -0.724   3.293   5.189  0.00  0.00    -0.030 A 
BRANCH  16  22
ATOM     22  S   LIG    1       -1.500   5.695   6.228  0.00  0.00    +2.680 S 
ATOM     23  O   LIG    1       -2.826   5.455   5.777  0.00  0.00    -0.950 OA
ATOM     24  O   LIG    1       -0.600   6.572   5.565  0.00  0.00    -0.920 OA
BRANCH  22  26
ATOM     25  C   LIG    1       -0.511   6.967   8.400  0.00  0.00    +0.310 C 
ATOM     26  N   LIG    1       -1.627   6.245   7.785  0.00  0.00    -1.010 NA
ATOM     27  C   LIG    1       -2.856   6.009   8.546  0.00  0.00    +0.310 C 
ENDBRANCH  22  26
ENDBRANCH  16  22
ENDBRANCH  15  21
ENDBRANCH   1  15
TORSDOF 5
