REMARK  Name = ZINCb70000001NW5.0
REMARK                            x       y       z     vdW  Elec       q    Type
REMARK                         _______ _______ _______ _____ _____    ______ ____
ROOT
ATOM      1  C   LIG    1       -0.672   3.019  -1.222  0.00  0.00    -0.100 C 
ATOM      2  C   LIG    1       -1.345   3.576   0.035  0.00  0.00    +0.070 C 
ATOM      3  C   LIG    1       -0.647   3.005   1.272  0.00  0.00    +0.050 C 
ATOM      4  C   LIG    1       -0.696   1.477   1.217  0.00  0.00    +0.250 C 
ATOM      5  N   LIG    1       -0.012   1.005   0.008  0.00  0.00    -0.510 N 
ATOM      6  H   LIG    1        0.935   1.353   0.000  0.00  0.00    +0.430 HD
ATOM      7  H   LIG    1        0.002  -0.004   0.002  0.00  0.00    +0.430 HD
ATOM      8  C   LIG    1       -1.412   3.521  -2.464  0.00  0.00    +0.100 C 
ATOM      9  C   LIG    1       -0.719   1.490  -1.184  0.00  0.00    +0.300 C 
ENDROOT
BRANCH   1  13
ATOM     10  C   LIG    1        2.443   5.240  -1.359  0.00  0.00    +0.310 C 
ATOM     11  N   LIG    1        1.048   4.794  -1.311  0.00  0.00    -0.710 N 
ATOM     12  H   LIG    1        0.330   5.446  -1.308  0.00  0.00    +0.410 HD
ATOM     13  C   LIG    1        0.763   3.477  -1.271  0.00  0.00    +0.520 C 
ATOM     14  O   LIG    1        1.660   2.662  -1.275  0.00  0.00    -0.550 OA
ENDBRANCH   1  13
TORSDOF 1
