REMARK  Name = ZINCAx0000000jVC.0
REMARK                            x       y       z     vdW  Elec       q    Type
REMARK                         _______ _______ _______ _____ _____    ______ ____
ROOT
ATOM      1  C   LIG    1        0.118  -0.076  -0.379  0.00  0.00    +0.040 A 
ATOM      2  C   LIG    1        1.049  -0.577   0.533  0.00  0.00    +0.030 A 
ATOM      3  C   LIG    1        2.102   0.206   0.947  0.00  0.00    +0.100 A 
ATOM      4  C   LIG    1        2.242   1.507   0.455  0.00  0.00    -0.150 A 
ATOM      5  C   LIG    1        3.243   2.558   0.708  0.00  0.00    +0.570 C 
ATOM      6  N   LIG    1        2.954   3.660  -0.006  0.00  0.00    -0.610 N 
ATOM      7  C   LIG    1        1.737   3.411  -0.786  0.00  0.00    +0.330 C 
ATOM      8  O   LIG    1        4.194   2.446   1.457  0.00  0.00    -0.510 OA
ATOM      9  C   LIG    1        1.306   2.003  -0.459  0.00  0.00    -0.080 A 
ATOM     10  C   LIG    1        0.256   1.223  -0.872  0.00  0.00    +0.070 A 
ENDROOT
BRANCH   6  11
ATOM     11  C   LIG    1        3.728   4.904  -0.006  0.00  0.00    +0.300 C 
ATOM     12  C   LIG    1        4.600   4.965  -1.265  0.00  0.00    +0.070 C 
ATOM     13  C   LIG    1        3.683   5.028  -2.491  0.00  0.00    +0.090 C 
ATOM     14  C   LIG    1        2.746   6.198  -2.348  0.00  0.00    +0.520 C 
ATOM     15  N   LIG    1        2.362   6.639  -1.140  0.00  0.00    -0.670 N 
ATOM     16  H   LIG    1        1.751   7.391  -1.091  0.00  0.00    +0.420 HD
ATOM     17  O   LIG    1        2.331   6.753  -3.342  0.00  0.00    -0.490 OA
ATOM     18  C   LIG    1        2.789   6.081   0.002  0.00  0.00    +0.520 C 
ATOM     19  O   LIG    1        2.412   6.532   1.062  0.00  0.00    -0.480 OA
ENDBRANCH   6  11
BRANCH   1  22
ATOM     20  N   LIG    1       -2.406  -2.567  -1.093  0.00  0.00    -0.280 N 
ATOM     21  C   LIG    1       -1.280  -2.207  -0.439  0.00  0.00    +0.180 A 
ATOM     22  C   LIG    1       -1.014  -0.923  -0.823  0.00  0.00    +0.010 A 
ATOM     23  N   LIG    1       -1.985  -0.584  -1.692  0.00  0.00    -0.250 NA
ATOM     24  N   LIG    1       -2.787  -1.581  -1.825  0.00  0.00    -0.070 NA
BRANCH  20  25
ATOM     25  C   LIG    1       -3.076  -3.866  -0.991  0.00  0.00    +0.450 C 
BRANCH  25  28
ATOM     26  C   LIG    1       -5.473  -3.477  -2.961  0.00  0.00    +0.200 C 
ATOM     27  C   LIG    1       -5.548  -3.491  -1.456  0.00  0.00    +0.020 A 
ATOM     28  C   LIG    1       -4.518  -3.658  -0.607  0.00  0.00    -0.050 A 
ATOM     29  N   LIG    1       -5.004  -3.613   0.643  0.00  0.00    -0.460 NA
ATOM     30  C   LIG    1       -6.300  -3.414   0.583  0.00  0.00    +0.240 A 
ATOM     31  O   LIG    1       -6.661  -3.339  -0.710  0.00  0.00    -0.190 OA
BRANCH  30  32
ATOM     32  C   LIG    1       -7.210  -3.297   1.741  0.00  0.00    -0.020 A 
ATOM     33  C   LIG    1       -6.708  -3.399   3.040  0.00  0.00    +0.070 A 
ATOM     34  C   LIG    1       -7.562  -3.284   4.117  0.00  0.00    +0.010 A 
ATOM     35  C   LIG    1       -8.915  -3.079   3.912  0.00  0.00    +0.030 A 
ATOM     36  C   LIG    1       -9.420  -2.983   2.627  0.00  0.00    +0.010 A 
ATOM     37  C   LIG    1       -8.576  -3.091   1.542  0.00  0.00    +0.040 A 
ENDBRANCH  30  32
ENDBRANCH  25  28
ENDBRANCH  20  25
ENDBRANCH   1  22
TORSDOF 5
