REMARK  Name = ZINCrD0000073tOt.0
REMARK                            x       y       z     vdW  Elec       q    Type
REMARK                         _______ _______ _______ _____ _____    ______ ____
ROOT
ATOM      1  N   LIG    1        5.902  -5.004  -0.119  0.00  0.00    -0.650 N 
ATOM      2  H   LIG    1        6.790  -4.625  -0.205  0.00  0.00    +0.420 HD
ATOM      3  C   LIG    1        4.824  -4.195  -0.093  0.00  0.00    +0.520 C 
ATOM      4  O   LIG    1        3.708  -4.672  -0.086  0.00  0.00    -0.500 OA
ENDROOT
BRANCH   1   8
ATOM      5  C   LIG    1        5.416  -9.140   0.176  0.00  0.00    +0.150 A 
ATOM      6  C   LIG    1        4.451  -8.288   0.691  0.00  0.00    -0.080 A 
ATOM      7  C   LIG    1        4.614  -6.918   0.599  0.00  0.00    +0.110 A 
ATOM      8  C   LIG    1        5.739  -6.394  -0.020  0.00  0.00    +0.080 A 
ATOM      9  C   LIG    1        6.710  -7.248  -0.538  0.00  0.00    +0.140 A 
ATOM     10  C   LIG    1        6.546  -8.620  -0.439  0.00  0.00    -0.080 A 
BRANCH   5  12
ATOM     11  C   LIG    1        4.069 -10.953   0.918  0.00  0.00    +0.250 C 
ATOM     12  O   LIG    1        5.255 -10.486   0.273  0.00  0.00    -0.320 OA
ENDBRANCH   5  12
BRANCH   9  13
ATOM     13  O   LIG    1        7.816  -6.737  -1.141  0.00  0.00    -0.320 OA
ATOM     14  C   LIG    1        8.769  -7.672  -1.649  0.00  0.00    +0.250 C 
ENDBRANCH   9  13
ENDBRANCH   1   8
BRANCH   3  15
ATOM     15  C   LIG    1        5.004  -2.699  -0.073  0.00  0.00    +0.270 C 
BRANCH  15  16
ATOM     16  O   LIG    1        3.703  -2.055  -0.047  0.00  0.00    -0.330 OA
BRANCH  16  17
ATOM     17  C   LIG    1        3.688  -0.708  -0.028  0.00  0.00    +0.510 C 
ATOM     18  O   LIG    1        4.733  -0.089  -0.032  0.00  0.00    -0.500 OA
BRANCH  17  19
ATOM     19  C   LIG    1        2.400   0.015  -0.001  0.00  0.00    -0.130 A 
ATOM     20  C   LIG    1        1.196  -0.691   0.004  0.00  0.00    +0.080 A 
ATOM     21  C   LIG    1        0.004  -0.003   0.028  0.00  0.00    +0.000 A 
ATOM     22  C   LIG    1       -0.015   1.387   0.046  0.00  0.00    -0.040 A 
ATOM     23  C   LIG    1       -1.359   2.068   0.057  0.00  0.00    +0.070 C 
ATOM     24  C   LIG    1       -1.222   3.519   0.512  0.00  0.00    +0.020 C 
ATOM     25  C   LIG    1       -0.126   4.188  -0.326  0.00  0.00    +0.020 C 
ATOM     26  C   LIG    1        1.221   3.596   0.083  0.00  0.00    +0.080 C 
ATOM     27  C   LIG    1        1.171   2.091   0.047  0.00  0.00    -0.090 A 
ATOM     28  C   LIG    1        2.377   1.409   0.021  0.00  0.00    +0.090 A 
ENDBRANCH  17  19
ENDBRANCH  16  17
ENDBRANCH  15  16
ENDBRANCH   3  15
TORSDOF 7
