REMARK  Name = ZINCkj000005lgoE.1
REMARK                            x       y       z     vdW  Elec       q    Type
REMARK                         _______ _______ _______ _____ _____    ______ ____
ROOT
ATOM      1  N   LIG    1        3.937   3.045   0.935  0.00  0.00    -0.340 N 
ATOM      2  H   LIG    1        3.689   2.807   1.884  0.00  0.00    +0.430 HD
ENDROOT
BRANCH   1   3
ATOM      3  C   LIG    1        3.569   1.939   0.041  0.00  0.00    +0.230 C 
ATOM      4  C   LIG    1        3.941   2.283  -1.417  0.00  0.00    +0.070 C 
ATOM      5  C   LIG    1        4.354   0.909  -1.987  0.00  0.00    +0.110 C 
ATOM      6  C   LIG    1        4.828   0.111  -0.791  0.00  0.00    -0.060 A 
ATOM      7  C   LIG    1        5.592  -1.041  -0.727  0.00  0.00    +0.040 A 
ATOM      8  C   LIG    1        5.905  -1.601   0.497  0.00  0.00    +0.060 A 
ATOM      9  C   LIG    1        5.454  -1.009   1.661  0.00  0.00    +0.030 A 
ATOM     10  C   LIG    1        4.691   0.141   1.600  0.00  0.00    +0.020 A 
ATOM     11  C   LIG    1        4.376   0.703   0.374  0.00  0.00    -0.170 A 
ENDBRANCH   1   3
BRANCH   1  12
ATOM     12  C   LIG    1        3.219   4.261   0.531  0.00  0.00    +0.080 C 
ATOM     13  C   LIG    1        2.347   4.949   1.584  0.00  0.00    +0.120 C 
ATOM     14  C   LIG    1        1.694   4.181   0.432  0.00  0.00    +0.090 C 
ENDBRANCH   1  12
BRANCH   1  15
ATOM     15  C   LIG    1        5.385   3.281   0.852  0.00  0.00    +0.300 C 
BRANCH  15  22
ATOM     16  N   LIG    1        8.726   5.974   3.019  0.00  0.00    -0.850 N 
ATOM     17  H   LIG    1        8.985   6.633   3.682  0.00  0.00    +0.430 HD
ATOM     18  H   LIG    1        9.395   5.586   2.434  0.00  0.00    +0.400 HD
ATOM     19  C   LIG    1        7.436   5.597   2.911  0.00  0.00    +0.700 C 
ATOM     20  N   LIG    1        7.076   4.682   1.990  0.00  0.00    -0.680 N 
ATOM     21  H   LIG    1        7.746   4.293   1.405  0.00  0.00    +0.420 HD
ATOM     22  C   LIG    1        5.787   4.305   1.881  0.00  0.00    +0.510 C 
ATOM     23  O   LIG    1        4.950   4.790   2.613  0.00  0.00    -0.440 OA
ATOM     24  O   LIG    1        6.597   6.084   3.644  0.00  0.00    -0.520 OA
ENDBRANCH  15  22
ENDBRANCH   1  15
TORSDOF 4
