REMARK  Name = ZINCkj000005lgoE.0
REMARK                            x       y       z     vdW  Elec       q    Type
REMARK                         _______ _______ _______ _____ _____    ______ ____
ROOT
ATOM      1  N   LIG    1       -4.828   1.022   0.101  0.00  0.00    -0.340 N 
ATOM      2  H   LIG    1       -4.733   0.734   1.064  0.00  0.00    +0.430 HD
ENDROOT
BRANCH   1   3
ATOM      3  C   LIG    1       -6.187   1.532  -0.125  0.00  0.00    +0.230 C 
ATOM      4  C   LIG    1       -7.221   0.402   0.063  0.00  0.00    +0.080 C 
ATOM      5  C   LIG    1       -8.423   1.151   0.677  0.00  0.00    +0.110 C 
ATOM      6  C   LIG    1       -7.824   2.351   1.380  0.00  0.00    -0.060 A 
ATOM      7  C   LIG    1       -8.361   3.185   2.345  0.00  0.00    +0.040 A 
ATOM      8  C   LIG    1       -7.617   4.234   2.850  0.00  0.00    +0.050 A 
ATOM      9  C   LIG    1       -6.332   4.453   2.389  0.00  0.00    +0.030 A 
ATOM     10  C   LIG    1       -5.795   3.622   1.425  0.00  0.00    +0.010 A 
ATOM     11  C   LIG    1       -6.539   2.570   0.918  0.00  0.00    -0.160 A 
ENDBRANCH   1   3
BRANCH   1  12
ATOM     12  C   LIG    1       -4.583  -0.128  -0.780  0.00  0.00    +0.100 C 
ATOM     13  C   LIG    1       -4.247  -1.466  -0.119  0.00  0.00    +0.110 C 
ATOM     14  C   LIG    1       -3.156  -0.677  -0.845  0.00  0.00    +0.090 C 
ENDBRANCH   1  12
BRANCH   1  15
ATOM     15  C   LIG    1       -3.852   2.080  -0.192  0.00  0.00    +0.290 C 
BRANCH  15  22
ATOM     16  N   LIG    1       -3.093   5.403  -3.583  0.00  0.00    -0.850 N 
ATOM     17  H   LIG    1       -2.436   5.821  -3.003  0.00  0.00    +0.410 HD
ATOM     18  H   LIG    1       -3.282   5.783  -4.455  0.00  0.00    +0.430 HD
ATOM     19  C   LIG    1       -3.744   4.295  -3.175  0.00  0.00    +0.700 C 
ATOM     20  N   LIG    1       -3.486   3.771  -1.960  0.00  0.00    -0.680 N 
ATOM     21  H   LIG    1       -2.829   4.189  -1.381  0.00  0.00    +0.420 HD
ATOM     22  C   LIG    1       -4.141   2.667  -1.550  0.00  0.00    +0.520 C 
ATOM     23  O   LIG    1       -4.962   2.145  -2.274  0.00  0.00    -0.440 OA
ATOM     24  O   LIG    1       -4.567   3.772  -3.900  0.00  0.00    -0.520 OA
ENDBRANCH  15  22
ENDBRANCH   1  15
TORSDOF 4
