REMARK  Name = ZINCqH0000034zmB.0
REMARK                            x       y       z     vdW  Elec       q    Type
REMARK                         _______ _______ _______ _____ _____    ______ ____
ROOT
ATOM      1  C   LIG    1        1.395   1.520   0.594  0.00  0.00    -0.160 A 
ATOM      2  C   LIG    1        0.194   0.923   0.203  0.00  0.00    +0.090 A 
ATOM      3  C   LIG    1       -0.989   1.611   0.349  0.00  0.00    +0.010 A 
ATOM      4  C   LIG    1       -0.993   2.892   0.896  0.00  0.00    +0.180 A 
ATOM      5  C   LIG    1        0.199   3.489   1.290  0.00  0.00    -0.130 A 
ATOM      6  C   LIG    1        0.226   4.871   1.888  0.00  0.00    +0.080 C 
ATOM      7  C   LIG    1       -1.044   5.638   1.520  0.00  0.00    +0.020 C 
ATOM      8  C   LIG    1       -2.263   4.774   1.867  0.00  0.00    +0.260 C 
ATOM      9  N   LIG    1       -2.209   3.566   1.033  0.00  0.00    -0.540 N 
ATOM     10  C   LIG    1       -3.315   3.114   0.409  0.00  0.00    +0.560 C 
ATOM     11  O   LIG    1       -3.287   2.056  -0.188  0.00  0.00    -0.500 OA
ATOM     12  C   LIG    1        1.388   2.806   1.138  0.00  0.00    +0.070 A 
ENDROOT
BRANCH  10  13
ATOM     13  C   LIG    1       -4.562   3.906   0.452  0.00  0.00    -0.130 A 
ATOM     14  C   LIG    1       -4.507   5.301   0.448  0.00  0.00    +0.040 A 
ATOM     15  C   LIG    1       -5.675   6.034   0.481  0.00  0.00    +0.010 A 
ATOM     16  C   LIG    1       -6.899   5.390   0.530  0.00  0.00    +0.040 A 
ATOM     17  C   LIG    1       -6.960   4.008   0.540  0.00  0.00    +0.010 A 
ATOM     18  C   LIG    1       -5.800   3.263   0.501  0.00  0.00    +0.080 A 
ENDBRANCH  10  13
BRANCH   1  21
ATOM     19  C   LIG    1        3.753   2.909  -0.095  0.00  0.00    +0.280 C 
ATOM     20  N   LIG    1        3.804   1.469   0.169  0.00  0.00    -0.610 N 
ATOM     21  C   LIG    1        2.669   0.791   0.434  0.00  0.00    +0.560 C 
ATOM     22  O   LIG    1        2.695  -0.419   0.541  0.00  0.00    -0.530 OA
BRANCH  20  23
ATOM     23  C   LIG    1        5.088   0.765   0.145  0.00  0.00    +0.320 C 
BRANCH  23  24
ATOM     24  C   LIG    1        5.365   0.256  -1.271  0.00  0.00    -0.070 C 
ATOM     25  C   LIG    1        5.445  -1.259  -1.474  0.00  0.00    +0.020 C 
ATOM     26  C   LIG    1        6.718  -0.410  -1.531  0.00  0.00    +0.010 C 
ENDBRANCH  23  24
ENDBRANCH  20  23
ENDBRANCH   1  21
TORSDOF 4
