REMARK  Name = ZINCrD00000dTsi1.0
REMARK                            x       y       z     vdW  Elec       q    Type
REMARK                         _______ _______ _______ _____ _____    ______ ____
ROOT
ATOM      1  N   LIG    1       -4.978  -1.958   5.521  0.00  0.00    -0.470 N 
ATOM      2  C   LIG    1       -4.551  -1.316   4.397  0.00  0.00    +0.460 A 
ATOM      3  N   LIG    1       -5.422  -1.574   3.445  0.00  0.00    -0.310 NA
ATOM      4  N   LIG    1       -6.354  -2.337   3.895  0.00  0.00    -0.230 NA
ATOM      5  C   LIG    1       -6.139  -2.604   5.163  0.00  0.00    +0.200 A 
ENDROOT
BRANCH   5   6
ATOM      6  C   LIG    1       -6.985  -3.440   6.039  0.00  0.00    +0.260 A 
ATOM      7  C   LIG    1       -8.150  -4.038   5.544  0.00  0.00    -0.020 A 
ATOM      8  C   LIG    1       -8.903  -4.815   6.404  0.00  0.00    +0.190 A 
ATOM      9  N   LIG    1       -8.507  -4.959   7.660  0.00  0.00    -0.520 NA
ATOM     10  C   LIG    1       -7.407  -4.378   8.099  0.00  0.00    +0.510 A 
ATOM     11  N   LIG    1       -6.655  -3.634   7.317  0.00  0.00    -0.520 NA
BRANCH   8  12
ATOM     12  C   LIG    1      -10.163  -5.486   5.921  0.00  0.00    +0.050 C 
ATOM     13  C   LIG    1       -9.981  -5.924   4.466  0.00  0.00    +0.050 C 
ATOM     14  C   LIG    1      -11.332  -4.504   6.015  0.00  0.00    +0.050 C 
ENDBRANCH   8  12
ENDBRANCH   5   6
BRANCH   1  16
ATOM     15  C   LIG    1       -4.875  -0.795   7.671  0.00  0.00    +0.050 C 
ATOM     16  C   LIG    1       -4.335  -1.959   6.838  0.00  0.00    +0.310 C 
ENDBRANCH   1  16
BRANCH   2  17
ATOM     17  N   LIG    1       -3.417  -0.534   4.281  0.00  0.00    -0.600 N 
ATOM     18  H   LIG    1       -2.838  -0.402   5.048  0.00  0.00    +0.420 HD
BRANCH  17  19
ATOM     19  C   LIG    1       -3.103   0.066   3.055  0.00  0.00    +0.330 A 
ATOM     20  N   LIG    1       -2.058   0.822   2.812  0.00  0.00    -0.310 NA
ATOM     21  N   LIG    1       -2.113   1.224   1.471  0.00  0.00    -0.350 N 
ATOM     22  C   LIG    1       -3.216   0.680   0.915  0.00  0.00    +0.250 A 
ATOM     23  C   LIG    1       -3.848  -0.042   1.869  0.00  0.00    -0.080 A 
BRANCH  21  24
ATOM     24  C   LIG    1       -1.140   2.082   0.789  0.00  0.00    +0.260 C 
ATOM     25  C   LIG    1       -1.154   2.090  -0.741  0.00  0.00    +0.130 C 
ATOM     26  C   LIG    1       -0.017   1.395   0.010  0.00  0.00    +0.200 C 
ATOM     27  F   LIG    1        1.237   2.015   0.001  0.00  0.00    -0.150 F 
ATOM     28  F   LIG    1        0.002  -0.004   0.002  0.00  0.00    -0.150 F 
ENDBRANCH  21  24
ENDBRANCH  17  19
ENDBRANCH   2  17
TORSDOF 6
