REMARK  Name = ZINCpk00000SBqDu.0
REMARK                            x       y       z     vdW  Elec       q    Type
REMARK                         _______ _______ _______ _____ _____    ______ ____
ROOT
ATOM      1  C   LIG    1       -1.329   1.940   0.019  0.00  0.00    -0.100 C 
ATOM      2  C   LIG    1       -2.481   0.930   0.011  0.00  0.00    +0.060 C 
ATOM      3  C   LIG    1       -2.425   0.118  -1.287  0.00  0.00    -0.000 C 
ATOM      4  C   LIG    1       -2.483   1.075  -2.481  0.00  0.00    +0.210 C 
ATOM      5  O   LIG    1       -1.403   2.006  -2.396  0.00  0.00    -0.370 OA
ATOM      6  C   LIG    1       -1.430   2.826  -1.225  0.00  0.00    +0.240 C 
ENDROOT
BRANCH   1   7
ATOM      7  C   LIG    1       -0.014   1.204   0.009  0.00  0.00    +0.480 C 
ATOM      8  O   LIG    1        0.002  -0.004   0.002  0.00  0.00    -0.490 OA
BRANCH   7   9
ATOM      9  O   LIG    1        1.139   1.891   0.001  0.00  0.00    -0.350 OA
BRANCH   9  11
ATOM     10  C   LIG    1        2.402   0.241  -1.269  0.00  0.00    +0.030 C 
ATOM     11  C   LIG    1        2.367   1.117  -0.015  0.00  0.00    +0.120 C 
ATOM     12  C   LIG    1        2.426   0.228   1.229  0.00  0.00    +0.030 C 
ATOM     13  C   LIG    1        3.568   2.065  -0.021  0.00  0.00    +0.080 C 
ENDBRANCH   9  11
ENDBRANCH   7   9
ENDBRANCH   1   7
BRANCH   1  14
ATOM     14  C   LIG    1       -1.419   2.809   1.274  0.00  0.00    +0.310 C 
BRANCH  14  15
ATOM     15  N   LIG    1       -0.319   3.777   1.278  0.00  0.00    -0.680 N 
ATOM     16  H   LIG    1        0.320   3.787   0.549  0.00  0.00    +0.430 HD
BRANCH  15  17
ATOM     17  C   LIG    1       -0.192   4.677   2.322  0.00  0.00    +0.600 A 
ATOM     18  N   LIG    1       -1.077   4.653   3.308  0.00  0.00    -0.580 NA
ATOM     19  C   LIG    1       -0.982   5.495   4.323  0.00  0.00    +0.480 A 
ATOM     20  C   LIG    1        0.053   6.417   4.341  0.00  0.00    -0.840 A 
ATOM     21  C   LIG    1        0.959   6.418   3.292  0.00  0.00    +0.480 A 
ATOM     22  N   LIG    1        0.809   5.545   2.309  0.00  0.00    -0.570 NA
BRANCH  20  23
ATOM     23  S   LIG    1        0.215   7.562   5.670  0.00  0.00    +2.520 S 
ATOM     24  O   LIG    1        1.602   7.873   5.698  0.00  0.00    -0.940 OA
ATOM     25  O   LIG    1       -0.412   6.915   6.769  0.00  0.00    -0.940 OA
ATOM     26  C   LIG    1       -0.750   9.005   5.145  0.00  0.00    -0.260 C 
ENDBRANCH  20  23
ENDBRANCH  15  17
ENDBRANCH  14  15
ENDBRANCH   1  14
TORSDOF 7
