REMARK  Name = ZINCrD0000074C3n.0
REMARK                            x       y       z     vdW  Elec       q    Type
REMARK                         _______ _______ _______ _____ _____    ______ ____
ROOT
ATOM      1  C   LIG    1        3.572   2.102  -1.416  0.00  0.00    +0.510 C 
ATOM      2  N   LIG    1        2.609   1.375  -0.815  0.00  0.00    -0.610 N 
ATOM      3  C   LIG    1        2.633  -0.092  -0.873  0.00  0.00    +0.280 C 
ATOM      4  C   LIG    1        1.285  -0.587  -1.407  0.00  0.00    +0.010 C 
ATOM      5  C   LIG    1        0.157  -0.010  -0.547  0.00  0.00    +0.030 C 
ATOM      6  C   LIG    1        0.180   1.518  -0.633  0.00  0.00    +0.050 C 
ATOM      7  C   LIG    1        1.515   2.037  -0.090  0.00  0.00    +0.330 C 
ATOM      8  O   LIG    1        3.496   3.312  -1.435  0.00  0.00    -0.480 OA
ENDROOT
BRANCH   7   9
ATOM      9  C   LIG    1        1.600   3.527  -0.297  0.00  0.00    +0.200 A 
ATOM     10  N   LIG    1        1.324   4.176  -1.399  0.00  0.00    -0.270 NA
ATOM     11  N   LIG    1        1.506   5.439  -1.217  0.00  0.00    -0.280 NA
ATOM     12  C   LIG    1        1.903   5.649   0.001  0.00  0.00    +0.180 A 
ATOM     13  C   LIG    1        2.236   6.959   0.668  0.00  0.00    +0.160 C 
ATOM     14  C   LIG    1        2.248   6.731   2.188  0.00  0.00    +0.040 C 
ATOM     15  C   LIG    1        3.096   5.496   2.503  0.00  0.00    +0.040 C 
ATOM     16  C   LIG    1        2.374   4.237   2.010  0.00  0.00    +0.280 C 
ATOM     17  N   LIG    1        1.969   4.442   0.619  0.00  0.00    -0.470 N 
ENDBRANCH   7   9
BRANCH   1  18
ATOM     18  C   LIG    1        4.744   1.410  -2.064  0.00  0.00    +0.230 C 
BRANCH  18  19
ATOM     19  O   LIG    1        5.621   2.387  -2.628  0.00  0.00    -0.290 OA
BRANCH  19  25
ATOM     20  C   LIG    1        8.380  -1.383  -4.039  0.00  0.00    +0.090 C 
ATOM     21  C   LIG    1        8.114   0.098  -3.963  0.00  0.00    -0.050 A 
ATOM     22  C   LIG    1        9.004   0.990  -4.531  0.00  0.00    -0.030 A 
ATOM     23  C   LIG    1        8.763   2.350  -4.462  0.00  0.00    +0.050 A 
ATOM     24  C   LIG    1        7.631   2.820  -3.825  0.00  0.00    -0.120 A 
ATOM     25  C   LIG    1        6.735   1.927  -3.255  0.00  0.00    +0.130 A 
ATOM     26  C   LIG    1        7.369   4.302  -3.751  0.00  0.00    +0.100 C 
ATOM     27  C   LIG    1        6.982   0.564  -3.321  0.00  0.00    -0.090 A 
ENDBRANCH  19  25
ENDBRANCH  18  19
ENDBRANCH   1  18
TORSDOF 4
