REMARK  Name = ZINC660000002yQq.0
REMARK                            x       y       z     vdW  Elec       q    Type
REMARK                         _______ _______ _______ _____ _____    ______ ____
ROOT
ATOM      1  C   LIG    1       -0.729   1.579   1.267  0.00  0.00    +0.150 C 
ATOM      2  C   LIG    1       -0.013   1.086   0.008  0.00  0.00    +0.010 C 
ENDROOT
BRANCH   1   4
ATOM      3  C   LIG    1       -3.012   1.948   0.638  0.00  0.00    +0.200 C 
ATOM      4  O   LIG    1       -2.070   1.085   1.277  0.00  0.00    -0.380 OA
ENDBRANCH   1   4
BRANCH   1   5
ATOM      5  C   LIG    1        0.011   1.072   2.506  0.00  0.00    +0.190 C 
BRANCH   5   6
ATOM      6  O   LIG    1        0.132  -0.350   2.440  0.00  0.00    -0.560 OA
ATOM      7  H   LIG    1        0.593  -0.741   3.196  0.00  0.00    +0.380 HD
ENDBRANCH   5   6
ENDBRANCH   1   5
TORSDOF 3
