REMARK  Name = ZINCrD000000AVK2.0
REMARK                            x       y       z     vdW  Elec       q    Type
REMARK                         _______ _______ _______ _____ _____    ______ ____
ROOT
ATOM      1  O   LIG    1       -6.884   6.095  -0.630  0.00  0.00    -0.590 OA
ATOM      2  C   LIG    1       -6.186   5.730  -1.556  0.00  0.00    +0.700 C 
ATOM      3  N   LIG    1       -5.092   4.978  -1.321  0.00  0.00    -0.740 N 
ATOM      4  H   LIG    1       -4.535   4.687  -2.060  0.00  0.00    +0.400 HD
ATOM      5  N   LIG    1       -6.506   6.078  -2.818  0.00  0.00    -0.750 N 
ATOM      6  H   LIG    1       -5.949   5.787  -3.557  0.00  0.00    +0.400 HD
ENDROOT
BRANCH   3   7
ATOM      7  C   LIG    1       -4.745   4.600   0.051  0.00  0.00    +0.340 C 
BRANCH   7   8
ATOM      8  C   LIG    1       -3.489   3.767   0.040  0.00  0.00    -0.140 A 
ATOM      9  C   LIG    1       -2.253   4.380   0.141  0.00  0.00    +0.060 A 
ATOM     10  C   LIG    1       -1.101   3.619   0.132  0.00  0.00    -0.030 A 
ATOM     11  C   LIG    1       -1.184   2.237   0.020  0.00  0.00    +0.170 A 
ATOM     12  C   LIG    1       -2.426   1.625  -0.088  0.00  0.00    +0.000 A 
ATOM     13  C   LIG    1       -3.575   2.391  -0.071  0.00  0.00    +0.060 A 
BRANCH  11  14
ATOM     14  N   LIG    1       -0.018   1.463   0.010  0.00  0.00    -0.560 N 
ATOM     15  C   LIG    1        1.342   2.015  -0.011  0.00  0.00    +0.260 C 
ATOM     16  C   LIG    1        2.254   0.846  -0.444  0.00  0.00    +0.060 C 
ATOM     17  C   LIG    1        1.428  -0.382   0.004  0.00  0.00    +0.070 C 
ATOM     18  C   LIG    1        0.001   0.119   0.024  0.00  0.00    +0.520 C 
ATOM     19  O   LIG    1       -0.984  -0.589   0.050  0.00  0.00    -0.510 OA
ENDBRANCH  11  14
ENDBRANCH   7   8
ENDBRANCH   3   7
BRANCH   5  20
ATOM     20  C   LIG    1       -7.694   6.895  -3.074  0.00  0.00    +0.280 C 
BRANCH  20  21
ATOM     21  C   LIG    1       -7.827   7.144  -4.578  0.00  0.00    +0.030 C 
BRANCH  21  22
ATOM     22  C   LIG    1       -9.069   7.998  -4.845  0.00  0.00    +0.170 C 
BRANCH  22  23
ATOM     23  O   LIG    1       -9.193   8.231  -6.249  0.00  0.00    -0.380 OA
BRANCH  23  24
ATOM     24  C   LIG    1      -10.327   9.023  -6.609  0.00  0.00    +0.150 C 
ATOM     25  C   LIG    1      -11.527   8.109  -6.865  0.00  0.00    -0.010 C 
ATOM     26  C   LIG    1      -12.741   8.957  -7.250  0.00  0.00    +0.010 C 
ATOM     27  C   LIG    1      -12.426   9.753  -8.518  0.00  0.00    +0.000 C 
ATOM     28  C   LIG    1      -11.226  10.667  -8.262  0.00  0.00    +0.010 C 
ATOM     29  C   LIG    1      -10.012   9.819  -7.877  0.00  0.00    +0.020 C 
ENDBRANCH  23  24
ENDBRANCH  22  23
ENDBRANCH  21  22
ENDBRANCH  20  21
ENDBRANCH   5  20
TORSDOF 8
