REMARK  Name = ZINCkj000005g6bV.0
REMARK                            x       y       z     vdW  Elec       q    Type
REMARK                         _______ _______ _______ _____ _____    ______ ____
ROOT
ATOM      1  C   LIG    1       -1.445   3.947   2.472  0.00  0.00    -0.150 A 
ATOM      2  C   LIG    1       -2.811   4.157   2.456  0.00  0.00    +0.020 A 
ATOM      3  C   LIG    1       -3.459   4.595   3.597  0.00  0.00    +0.050 A 
ATOM      4  C   LIG    1       -2.742   4.835   4.752  0.00  0.00    +0.060 A 
ATOM      5  C   LIG    1       -1.368   4.631   4.769  0.00  0.00    +0.160 A 
ATOM      6  C   LIG    1       -0.721   4.185   3.624  0.00  0.00    +0.010 A 
ENDROOT
BRANCH   5   7
ATOM      7  N   LIG    1       -0.638   4.872   5.938  0.00  0.00    -0.680 N 
ATOM      8  H   LIG    1        0.123   4.313   6.159  0.00  0.00    +0.420 HD
ATOM      9  C   LIG    1       -0.992   5.883   6.757  0.00  0.00    +0.500 C 
ATOM     10  O   LIG    1       -1.992   6.529   6.525  0.00  0.00    -0.500 OA
BRANCH   9  11
ATOM     11  C   LIG    1       -0.145   6.209   7.960  0.00  0.00    +0.350 C 
BRANCH  11  12
ATOM     12  N   LIG    1       -0.738   7.338   8.682  0.00  0.00    -0.610 N 
ATOM     13  C   LIG    1       -0.415   8.747   8.425  0.00  0.00    +0.260 C 
ATOM     14  C   LIG    1       -1.561   9.555   9.078  0.00  0.00    +0.060 C 
ATOM     15  C   LIG    1       -2.043   8.583  10.179  0.00  0.00    +0.070 C 
ATOM     16  C   LIG    1       -1.643   7.216   9.669  0.00  0.00    +0.520 C 
ATOM     17  O   LIG    1       -2.075   6.164  10.089  0.00  0.00    -0.530 OA
ENDBRANCH  11  12
ENDBRANCH   9  11
ENDBRANCH   5   7
BRANCH   1  18
ATOM     18  C   LIG    1       -0.743   3.463   1.229  0.00  0.00    +0.330 C 
BRANCH  18  19
ATOM     19  N   LIG    1       -0.716   1.995   1.222  0.00  0.00    -0.510 N 
ATOM     20  H   LIG    1       -0.222   1.664   2.037  0.00  0.00    +0.430 HD
ATOM     21  H   LIG    1       -1.660   1.641   1.235  0.00  0.00    +0.430 HD
BRANCH  19  23
ATOM     22  C   LIG    1       -0.003  -0.006   0.003  0.00  0.00    +0.080 C 
ATOM     23  C   LIG    1       -0.032   1.523   0.011  0.00  0.00    +0.250 C 
ENDBRANCH  19  23
ENDBRANCH  18  19
ENDBRANCH   1  18
TORSDOF 6
