REMARK  Name = ZINCpe000000Ydyz.0
REMARK                            x       y       z     vdW  Elec       q    Type
REMARK                         _______ _______ _______ _____ _____    ______ ____
ROOT
ATOM      1  C   LIG    1       -6.882   5.771  -0.548  0.00  0.00    +0.350 C 
ATOM      2  N   LIG    1       -5.726   4.877  -0.448  0.00  0.00    -0.560 N 
ATOM      3  C   LIG    1       -4.484   5.403  -0.362  0.00  0.00    +0.570 A 
ATOM      4  C   LIG    1       -3.342   4.477  -0.262  0.00  0.00    -0.250 A 
ATOM      5  C   LIG    1       -2.033   4.935  -0.170  0.00  0.00    +0.270 A 
ATOM      6  C   LIG    1       -1.012   3.980  -0.079  0.00  0.00    -0.230 A 
ATOM      7  C   LIG    1       -1.347   2.622  -0.090  0.00  0.00    +0.390 A 
ATOM      8  N   LIG    1       -2.600   2.227  -0.174  0.00  0.00    -0.510 NA
ATOM      9  C   LIG    1       -3.599   3.091  -0.262  0.00  0.00    +0.430 A 
ATOM     10  N   LIG    1       -4.909   2.665  -0.354  0.00  0.00    -0.530 N 
ATOM     11  C   LIG    1       -5.204   1.230  -0.356  0.00  0.00    +0.340 C 
ATOM     12  O   LIG    1       -4.314   6.607  -0.366  0.00  0.00    -0.480 OA
ATOM     13  C   LIG    1       -5.917   3.548  -0.443  0.00  0.00    +0.710 A 
ATOM     14  O   LIG    1       -7.054   3.125  -0.522  0.00  0.00    -0.520 OA
ENDROOT
BRANCH   6  15
ATOM     15  C   LIG    1        0.399   4.401   0.022  0.00  0.00    +0.580 C 
ATOM     16  N   LIG    1        1.383   3.483  -0.051  0.00  0.00    -0.550 N 
ATOM     17  C   LIG    1        1.177   2.034  -0.116  0.00  0.00    +0.280 C 
ATOM     18  C   LIG    1        2.588   1.429  -0.187  0.00  0.00    +0.110 C 
ATOM     19  C   LIG    1        3.516   2.622  -0.156  0.00  0.00    -0.130 A 
ATOM     20  C   LIG    1        4.895   2.699  -0.193  0.00  0.00    +0.050 A 
ATOM     21  C   LIG    1        5.523   3.930  -0.152  0.00  0.00    -0.010 A 
ATOM     22  C   LIG    1        4.768   5.085  -0.073  0.00  0.00    +0.040 A 
ATOM     23  C   LIG    1        3.392   5.014  -0.036  0.00  0.00    +0.010 A 
ATOM     24  C   LIG    1        2.750   3.775  -0.077  0.00  0.00    +0.140 A 
ATOM     25  O   LIG    1        0.673   5.576   0.171  0.00  0.00    -0.500 OA
ENDBRANCH   6  15
TORSDOF 1
