REMARK  Name = ZINCpe000000ZF8X.0
REMARK                            x       y       z     vdW  Elec       q    Type
REMARK                         _______ _______ _______ _____ _____    ______ ____
ROOT
ATOM      1  N   LIG    1       -0.020   1.652   0.011  0.00  0.00    -1.000 NA
ATOM      2  C   LIG    1       -1.296   2.382   0.021  0.00  0.00    +0.290 C 
ATOM      3  C   LIG    1       -1.297   3.339   1.225  0.00  0.00    +0.280 C 
ATOM      4  N   LIG    1       -0.043   4.104   1.218  0.00  0.00    -1.000 NA
ATOM      5  C   LIG    1        1.232   3.374   1.202  0.00  0.00    +0.280 C 
ATOM      6  C   LIG    1        1.234   2.417   0.003  0.00  0.00    +0.280 C 
ENDROOT
BRANCH   1   8
ATOM      7  O   LIG    1       -1.236  -0.368  -0.593  0.00  0.00    -0.940 OA
ATOM      8  S   LIG    1        0.002  -0.004   0.002  0.00  0.00    +2.600 S 
ATOM      9  O   LIG    1        1.238  -0.334  -0.617  0.00  0.00    -0.940 OA
BRANCH   8  10
ATOM     10  C   LIG    1        0.025  -0.466   1.756  0.00  0.00    -0.300 C 
BRANCH  10  11
ATOM     11  C   LIG    1        0.047  -1.968   1.880  0.00  0.00    -0.100 A 
ATOM     12  C   LIG    1       -1.140  -2.672   1.953  0.00  0.00    +0.030 A 
ATOM     13  C   LIG    1       -1.121  -4.050   2.062  0.00  0.00    +0.010 A 
ATOM     14  C   LIG    1        0.086  -4.723   2.107  0.00  0.00    +0.020 A 
ATOM     15  C   LIG    1        1.273  -4.018   2.039  0.00  0.00    +0.010 A 
ATOM     16  C   LIG    1        1.254  -2.640   1.925  0.00  0.00    +0.020 A 
ENDBRANCH  10  11
ENDBRANCH   8  10
ENDBRANCH   1   8
BRANCH   4  17
ATOM     17  S   LIG    1       -0.065   5.760   1.226  0.00  0.00    +2.780 S 
ATOM     18  O   LIG    1        1.184   6.176   1.760  0.00  0.00    -0.970 OA
ATOM     19  O   LIG    1       -1.315   6.142   1.784  0.00  0.00    -0.970 OA
BRANCH  17  20
ATOM     20  N   LIG    1       -0.087   6.258  -0.354  0.00  0.00    -1.010 NA
ATOM     21  C   LIG    1        1.167   6.506  -1.078  0.00  0.00    +0.280 C 
ATOM     22  C   LIG    1        1.152   5.685  -2.377  0.00  0.00    +0.010 C 
ATOM     23  C   LIG    1       -0.110   6.024  -3.172  0.00  0.00    +0.020 C 
ATOM     24  C   LIG    1       -1.347   5.651  -2.353  0.00  0.00    +0.010 C 
ATOM     25  C   LIG    1       -1.361   6.465  -1.056  0.00  0.00    +0.280 C 
ENDBRANCH  17  20
ENDBRANCH   4  17
TORSDOF 5
