REMARK  Name = ZINCrH000004qnAG.1
REMARK                            x       y       z     vdW  Elec       q    Type
REMARK                         _______ _______ _______ _____ _____    ______ ____
ROOT
ATOM      1  C   LIG    1        0.164   2.299   4.789  0.00  0.00    +0.560 C 
ATOM      2  N   LIG    1       -0.507   2.616   5.914  0.00  0.00    -0.610 N 
ATOM      3  C   LIG    1       -1.947   2.911   5.888  0.00  0.00    +0.320 C 
ATOM      4  C   LIG    1       -2.220   4.111   6.752  0.00  0.00    -0.050 C 
ATOM      5  C   LIG    1       -1.333   4.632   7.567  0.00  0.00    -0.030 C 
ATOM      6  C   LIG    1        0.066   4.119   7.736  0.00  0.00    +0.070 C 
ATOM      7  C   LIG    1        0.172   2.676   7.220  0.00  0.00    +0.290 C 
ATOM      8  O   LIG    1        1.370   2.150   4.822  0.00  0.00    -0.520 OA
ENDROOT
BRANCH   5   9
ATOM      9  C   LIG    1       -1.740   5.800   8.373  0.00  0.00    -0.140 A 
ATOM     10  C   LIG    1       -2.035   5.810   9.698  0.00  0.00    +0.260 A 
ATOM     11  N   LIG    1       -2.368   7.076  10.086  0.00  0.00    -0.580 N 
ATOM     12  H   LIG    1       -2.617   7.331  10.988  0.00  0.00    +0.420 HD
ATOM     13  C   LIG    1       -2.301   7.938   9.016  0.00  0.00    +0.280 A 
ATOM     14  N   LIG    1       -2.527   9.239   8.887  0.00  0.00    -0.500 NA
ATOM     15  C   LIG    1       -2.391   9.852   7.731  0.00  0.00    +0.300 A 
ATOM     16  C   LIG    1       -2.006   9.170   6.588  0.00  0.00    -0.060 A 
ATOM     17  C   LIG    1       -1.756   7.811   6.662  0.00  0.00    +0.100 A 
ATOM     18  C   LIG    1       -1.901   7.184   7.898  0.00  0.00    -0.140 A 
ENDBRANCH   5   9
BRANCH   1  22
ATOM     19  C   LIG    1        0.009   2.690  -0.183  0.00  0.00    +0.130 C 
ATOM     20  C   LIG    1       -0.646   2.317   1.122  0.00  0.00    -0.020 A 
ATOM     21  C   LIG    1        0.041   2.476   2.307  0.00  0.00    +0.090 A 
ATOM     22  C   LIG    1       -0.567   2.131   3.515  0.00  0.00    -0.070 A 
ATOM     23  C   LIG    1       -1.869   1.626   3.514  0.00  0.00    +0.050 A 
ATOM     24  C   LIG    1       -2.545   1.472   2.322  0.00  0.00    +0.110 A 
ATOM     25  C   LIG    1       -1.938   1.821   1.129  0.00  0.00    -0.030 A 
BRANCH  25  26
ATOM     26  N   LIG    1       -2.672   1.659  -0.146  0.00  0.00    +0.030 N 
ATOM     27  O   LIG    1       -2.101   1.848  -1.206  0.00  0.00    -0.150 OA
ATOM     28  O   LIG    1       -3.846   1.336  -0.136  0.00  0.00    -0.160 OA
ENDBRANCH  25  26
ENDBRANCH   1  22
TORSDOF 3
