REMARK  Name = ZINCrH000004qnAG.0
REMARK                            x       y       z     vdW  Elec       q    Type
REMARK                         _______ _______ _______ _____ _____    ______ ____
ROOT
ATOM      1  C   LIG    1        0.171   2.303   4.792  0.00  0.00    +0.560 C 
ATOM      2  N   LIG    1       -0.498   2.617   5.918  0.00  0.00    -0.600 N 
ATOM      3  C   LIG    1       -1.936   2.923   5.893  0.00  0.00    +0.320 C 
ATOM      4  C   LIG    1       -2.201   4.119   6.765  0.00  0.00    -0.060 C 
ATOM      5  C   LIG    1       -1.309   4.627   7.586  0.00  0.00    -0.020 C 
ATOM      6  C   LIG    1        0.085   4.101   7.752  0.00  0.00    +0.070 C 
ATOM      7  C   LIG    1        0.180   2.661   7.225  0.00  0.00    +0.290 C 
ATOM      8  O   LIG    1        1.376   2.144   4.825  0.00  0.00    -0.520 OA
ENDROOT
BRANCH   5   9
ATOM      9  C   LIG    1       -1.706   5.791   8.398  0.00  0.00    -0.200 A 
ATOM     10  C   LIG    1       -2.667   5.836   9.397  0.00  0.00    +0.250 A 
ATOM     11  N   LIG    1       -2.733   7.064   9.898  0.00  0.00    -0.550 NA
ATOM     12  C   LIG    1       -1.885   7.891   9.308  0.00  0.00    +0.260 A 
ATOM     13  N   LIG    1       -1.600   9.223   9.474  0.00  0.00    -0.500 N 
ATOM     14  H   LIG    1       -2.079   9.735  10.145  0.00  0.00    +0.430 HD
ATOM     15  C   LIG    1       -0.667   9.825   8.720  0.00  0.00    +0.330 A 
ATOM     16  C   LIG    1        0.030   9.148   7.766  0.00  0.00    -0.070 A 
ATOM     17  C   LIG    1       -0.212   7.794   7.549  0.00  0.00    +0.180 A 
ATOM     18  C   LIG    1       -1.174   7.156   8.321  0.00  0.00    -0.160 A 
ENDBRANCH   5   9
BRANCH   1  22
ATOM     19  C   LIG    1        0.025   2.735  -0.177  0.00  0.00    +0.130 C 
ATOM     20  C   LIG    1       -0.634   2.357   1.124  0.00  0.00    -0.020 A 
ATOM     21  C   LIG    1        0.053   2.502   2.311  0.00  0.00    +0.090 A 
ATOM     22  C   LIG    1       -0.560   2.151   3.515  0.00  0.00    -0.070 A 
ATOM     23  C   LIG    1       -1.865   1.657   3.510  0.00  0.00    +0.060 A 
ATOM     24  C   LIG    1       -2.541   1.517   2.315  0.00  0.00    +0.110 A 
ATOM     25  C   LIG    1       -1.930   1.871   1.125  0.00  0.00    -0.030 A 
BRANCH  25  26
ATOM     26  N   LIG    1       -2.663   1.724  -0.152  0.00  0.00    +0.030 N 
ATOM     27  O   LIG    1       -2.090   1.917  -1.209  0.00  0.00    -0.150 OA
ATOM     28  O   LIG    1       -3.840   1.411  -0.146  0.00  0.00    -0.160 OA
ENDBRANCH  25  26
ENDBRANCH   1  22
TORSDOF 3
