REMARK  Name = ZINCrD000000BSbq.0
REMARK                            x       y       z     vdW  Elec       q    Type
REMARK                         _______ _______ _______ _____ _____    ______ ____
ROOT
ATOM      1  C   LIG    1       -4.732   1.164  -3.989  0.00  0.00    -0.030 A 
ATOM      2  N   LIG    1       -4.346   2.010  -4.914  0.00  0.00    -0.320 NA
ATOM      3  O   LIG    1       -5.102   2.019  -5.857  0.00  0.00    +0.150 OA
ATOM      4  C   LIG    1       -6.122   1.159  -5.686  0.00  0.00    -0.010 A 
ATOM      5  C   LIG    1       -5.924   0.564  -4.471  0.00  0.00    +0.050 A 
ENDROOT
BRANCH   4   6
ATOM      6  C   LIG    1       -7.233   0.905  -6.627  0.00  0.00    +0.020 A 
ATOM      7  C   LIG    1       -7.559  -0.403  -6.989  0.00  0.00    +0.050 A 
ATOM      8  C   LIG    1       -8.602  -0.634  -7.863  0.00  0.00    +0.060 A 
ATOM      9  C   LIG    1       -9.315   0.428  -8.391  0.00  0.00    +0.040 A 
ATOM     10  C   LIG    1       -8.992   1.727  -8.041  0.00  0.00    +0.080 A 
ATOM     11  C   LIG    1       -7.957   1.972  -7.163  0.00  0.00    -0.160 A 
BRANCH  11  12
ATOM     12  C   LIG    1       -7.607   3.387  -6.783  0.00  0.00    +0.500 C 
ATOM     13  F   LIG    1       -6.285   3.656  -7.154  0.00  0.00    -0.170 F 
ATOM     14  F   LIG    1       -7.745   3.547  -5.400  0.00  0.00    -0.170 F 
ATOM     15  F   LIG    1       -8.466   4.273  -7.443  0.00  0.00    -0.170 F 
ENDBRANCH  11  12
ENDBRANCH   4   6
BRANCH   1  17
ATOM     16  O   LIG    1       -4.525   0.072  -1.929  0.00  0.00    -0.510 OA
ATOM     17  C   LIG    1       -4.055   0.886  -2.699  0.00  0.00    +0.610 C 
ATOM     18  N   LIG    1       -2.918   1.537  -2.381  0.00  0.00    -0.710 N 
ATOM     19  H   LIG    1       -2.543   2.187  -2.995  0.00  0.00    +0.410 HD
BRANCH  18  20
ATOM     20  C   LIG    1       -2.250   1.262  -1.107  0.00  0.00    +0.240 C 
ATOM     21  C   LIG    1       -0.760   1.597  -1.229  0.00  0.00    +0.040 C 
ATOM     22  C   LIG    1       -0.013   1.086   0.008  0.00  0.00    +0.300 C 
ATOM     23  N   LIG    1       -0.704   1.561   1.208  0.00  0.00    -0.460 N 
ATOM     24  C   LIG    1       -0.248   1.628   2.468  0.00  0.00    +0.400 A 
ATOM     25  N   LIG    1       -1.193   2.117   3.229  0.00  0.00    -0.500 NA
ATOM     26  C   LIG    1       -2.279   2.375   2.481  0.00  0.00    +0.160 A 
ATOM     27  C   LIG    1       -1.996   2.034   1.218  0.00  0.00    -0.030 A 
ATOM     28  C   LIG    1       -2.875   2.126  -0.003  0.00  0.00    +0.130 C 
ENDBRANCH  18  20
ENDBRANCH   1  17
TORSDOF 4
