REMARK  Name = ZINCrD000000fQcw.0
REMARK                            x       y       z     vdW  Elec       q    Type
REMARK                         _______ _______ _______ _____ _____    ______ ____
ROOT
ATOM      1  C   LIG    1        0.194  -0.038  -0.049  0.00  0.00    +0.270 C 
ENDROOT
BRANCH   1   2
ATOM      2  N   LIG    1        0.438  -0.792  -1.282  0.00  0.00    -0.730 N 
ATOM      3  H   LIG    1        1.332  -1.106  -1.490  0.00  0.00    +0.410 HD
ATOM      4  C   LIG    1       -0.580  -1.048  -2.128  0.00  0.00    +0.710 C 
ATOM      5  N   LIG    1       -0.356  -1.741  -3.262  0.00  0.00    -0.740 N 
ATOM      6  H   LIG    1        0.538  -2.055  -3.470  0.00  0.00    +0.400 HD
ATOM      7  O   LIG    1       -1.700  -0.654  -1.867  0.00  0.00    -0.580 OA
BRANCH   5   8
ATOM      8  C   LIG    1       -1.462  -2.019  -4.181  0.00  0.00    +0.340 C 
BRANCH   8   9
ATOM      9  C   LIG    1       -0.949  -2.802  -5.362  0.00  0.00    -0.110 A 
ATOM     10  C   LIG    1       -0.495  -2.139  -6.486  0.00  0.00    +0.020 A 
ATOM     11  C   LIG    1       -0.020  -2.857  -7.568  0.00  0.00    +0.000 A 
ATOM     12  C   LIG    1       -0.009  -4.238  -7.529  0.00  0.00    +0.010 A 
ATOM     13  C   LIG    1       -0.468  -4.902  -6.407  0.00  0.00    +0.000 A 
ATOM     14  C   LIG    1       -0.938  -4.184  -5.323  0.00  0.00    +0.020 A 
ENDBRANCH   8   9
ENDBRANCH   5   8
ENDBRANCH   1   2
BRANCH   1  17
ATOM     15  N   LIG    1        0.986  -0.240   2.285  0.00  0.00    -0.670 N 
ATOM     16  H   LIG    1        0.155   0.170   2.572  0.00  0.00    +0.420 HD
ATOM     17  C   LIG    1        1.245  -0.393   0.971  0.00  0.00    +0.520 C 
ATOM     18  O   LIG    1        2.323  -0.815   0.611  0.00  0.00    -0.510 OA
BRANCH  15  22
ATOM     19  C   LIG    1        3.753  -1.528   5.113  0.00  0.00    -0.190 A 
ATOM     20  C   LIG    1        2.381  -1.648   5.367  0.00  0.00    +0.100 A 
ATOM     21  C   LIG    1        1.473  -1.222   4.432  0.00  0.00    -0.030 A 
ATOM     22  C   LIG    1        1.913  -0.671   3.232  0.00  0.00    +0.170 A 
ATOM     23  C   LIG    1        3.276  -0.554   2.973  0.00  0.00    +0.020 A 
ATOM     24  C   LIG    1        4.191  -0.972   3.904  0.00  0.00    +0.090 A 
BRANCH  19  26
ATOM     25  C   LIG    1        6.205  -1.851   5.835  0.00  0.00    +0.070 C 
ATOM     26  C   LIG    1        4.729  -1.982   6.111  0.00  0.00    +0.400 C 
ATOM     27  O   LIG    1        4.348  -2.462   7.157  0.00  0.00    -0.460 OA
ENDBRANCH  19  26
ENDBRANCH  15  22
ENDBRANCH   1  17
BRANCH   1  28
ATOM     28  C   LIG    1        0.257   1.461  -0.347  0.00  0.00    -0.020 C 
ATOM     29  C   LIG    1       -0.039   2.247   0.932  0.00  0.00    +0.040 C 
ATOM     30  C   LIG    1       -0.781   1.813  -1.414  0.00  0.00    +0.050 C 
ENDBRANCH   1  28
TORSDOF 7
