REMARK  Name = ZINCpk00000K6pxf.0
REMARK                            x       y       z     vdW  Elec       q    Type
REMARK                         _______ _______ _______ _____ _____    ______ ____
ROOT
ATOM      1  C   LIG    1       -4.438  -0.594   3.244  0.00  0.00    +0.160 A 
ATOM      2  N   LIG    1       -3.599  -1.558   3.482  0.00  0.00    -0.360 NA
ATOM      3  O   LIG    1       -2.699  -1.541   2.670  0.00  0.00    +0.090 OA
ATOM      4  C   LIG    1       -2.882  -0.534   1.810  0.00  0.00    +0.190 A 
ATOM      5  N   LIG    1       -3.985   0.078   2.171  0.00  0.00    -0.440 NA
ENDROOT
BRANCH   1   6
ATOM      6  C   LIG    1       -5.685  -0.282   4.030  0.00  0.00    +0.350 C 
BRANCH   6   7
ATOM      7  O   LIG    1       -5.370   0.632   5.082  0.00  0.00    -0.310 OA
BRANCH   7  11
ATOM      8  C   LIG    1       -8.473   1.805   7.538  0.00  0.00    +0.090 A 
ATOM      9  C   LIG    1       -7.194   2.296   7.754  0.00  0.00    +0.030 A 
ATOM     10  C   LIG    1       -6.156   1.904   6.932  0.00  0.00    +0.030 A 
ATOM     11  C   LIG    1       -6.392   1.018   5.891  0.00  0.00    +0.090 A 
ATOM     12  C   LIG    1       -7.672   0.531   5.673  0.00  0.00    -0.040 A 
ATOM     13  C   LIG    1       -8.709   0.920   6.497  0.00  0.00    -0.040 A 
BRANCH   8  15
ATOM     14  C   LIG    1      -10.786   1.647   8.068  0.00  0.00    +0.240 C 
ATOM     15  O   LIG    1       -9.495   2.192   8.348  0.00  0.00    -0.320 OA
ENDBRANCH   8  15
ENDBRANCH   7  11
ENDBRANCH   6   7
ENDBRANCH   1   6
BRANCH   4  16
ATOM     16  C   LIG    1       -1.990  -0.168   0.652  0.00  0.00    +0.340 C 
BRANCH  16  17
ATOM     17  N   LIG    1       -0.971   0.789   1.103  0.00  0.00    -0.510 NA
ATOM     18  C   LIG    1       -0.276   0.294   2.298  0.00  0.00    +0.170 C 
ATOM     19  C   LIG    1        0.672   1.374   2.823  0.00  0.00    +0.030 C 
ATOM     20  C   LIG    1        1.685   1.731   1.731  0.00  0.00    +0.010 C 
ATOM     21  C   LIG    1        0.934   2.198   0.481  0.00  0.00    +0.050 C 
ATOM     22  C   LIG    1       -0.022   1.094   0.025  0.00  0.00    +0.140 C 
BRANCH  22  23
ATOM     23  C   LIG    1       -0.778   1.557  -1.194  0.00  0.00    +0.510 C 
ATOM     24  O   LIG    1       -1.845   2.121  -1.068  0.00  0.00    -0.510 OA
ATOM     25  N   LIG    1       -0.270   1.344  -2.424  0.00  0.00    -0.850 N 
ATOM     26  H   LIG    1       -0.757   1.641  -3.208  0.00  0.00    +0.410 HD
ATOM     27  H   LIG    1        0.583   0.892  -2.525  0.00  0.00    +0.400 HD
ENDBRANCH  22  23
ENDBRANCH  16  17
ENDBRANCH   4  16
TORSDOF 7
