REMARK  Name = ZINCtj00001pPAvJ.0
REMARK                            x       y       z     vdW  Elec       q    Type
REMARK                         _______ _______ _______ _____ _____    ______ ____
ROOT
ATOM      1  C   LIG    1       -2.991  -0.141   4.098  0.00  0.00    +0.490 C 
ATOM      2  N   LIG    1       -2.421   1.008   3.682  0.00  0.00    -0.580 N 
ATOM      3  C   LIG    1       -1.334   1.592   4.492  0.00  0.00    +0.260 C 
ATOM      4  C   LIG    1       -0.180   2.120   3.620  0.00  0.00    +0.050 C 
ATOM      5  C   LIG    1        0.091   1.164   2.485  0.00  0.00    +0.050 C 
ATOM      6  C   LIG    1       -0.729   1.579   1.267  0.00  0.00    +0.130 C 
ATOM      7  C   LIG    1       -2.105   1.059   1.256  0.00  0.00    +0.010 C 
ATOM      8  C   LIG    1       -2.900   1.616   2.462  0.00  0.00    +0.300 C 
ATOM      9  O   LIG    1       -3.886  -0.642   3.452  0.00  0.00    -0.530 OA
ENDROOT
BRANCH   6  10
ATOM     10  O   LIG    1       -0.783   3.007   1.226  0.00  0.00    -0.550 OA
ATOM     11  H   LIG    1       -1.256   3.360   0.460  0.00  0.00    +0.380 HD
ENDBRANCH   6  10
BRANCH   1  12
ATOM     12  C   LIG    1       -2.515  -0.802   5.366  0.00  0.00    +0.290 C 
BRANCH  12  17
ATOM     13  C   LIG    1       -1.592  -4.790   6.965  0.00  0.00    +0.060 C 
ATOM     14  C   LIG    1       -2.965  -4.166   6.704  0.00  0.00    -0.080 C 
ATOM     15  C   LIG    1       -3.378  -4.377   5.229  0.00  0.00    +0.080 C 
ATOM     16  C   LIG    1       -2.970  -3.040   4.559  0.00  0.00    +0.270 C 
ATOM     17  N   LIG    1       -3.289  -2.029   5.599  0.00  0.00    -0.380 N 
ATOM     18  H   LIG    1       -4.277  -1.824   5.594  0.00  0.00    +0.430 HD
ATOM     19  C   LIG    1       -4.012  -4.772   7.641  0.00  0.00    +0.070 C 
ATOM     20  C   LIG    1       -2.902  -2.639   6.889  0.00  0.00    +0.260 C 
ENDBRANCH  12  17
ENDBRANCH   1  12
BRANCH   6  21
ATOM     21  C   LIG    1       -0.013   1.086   0.008  0.00  0.00    +0.240 C 
BRANCH  21  22
ATOM     22  N   LIG    1       -0.721   1.571  -1.179  0.00  0.00    -0.740 N 
ATOM     23  H   LIG    1       -1.516   2.118  -1.079  0.00  0.00    +0.400 HD
ATOM     24  C   LIG    1       -0.268   1.258  -2.409  0.00  0.00    +0.520 C 
ATOM     25  O   LIG    1        0.726   0.575  -2.534  0.00  0.00    -0.530 OA
BRANCH  24  26
ATOM     26  C   LIG    1       -0.997   1.758  -3.630  0.00  0.00    +0.060 C 
BRANCH  26  27
ATOM     27  C   LIG    1       -0.281   1.264  -4.889  0.00  0.00    +0.010 C 
ATOM     28  C   LIG    1        1.109   1.902  -4.971  0.00  0.00    +0.000 C 
ATOM     29  C   LIG    1        1.787   1.465  -6.272  0.00  0.00    +0.200 C 
ATOM     30  O   LIG    1        0.970   1.840  -7.383  0.00  0.00    -0.380 OA
ATOM     31  C   LIG    1       -0.325   1.236  -7.384  0.00  0.00    +0.210 C 
ATOM     32  C   LIG    1       -1.088   1.665  -6.128  0.00  0.00    -0.010 C 
ENDBRANCH  26  27
ENDBRANCH  24  26
ENDBRANCH  21  22
ENDBRANCH   6  21
TORSDOF 7
