REMARK  Name = ZINCtj00001pPAvJ.1
REMARK                            x       y       z     vdW  Elec       q    Type
REMARK                         _______ _______ _______ _____ _____    ______ ____
ROOT
ATOM      1  C   LIG    1       -0.717  -5.378   0.900  0.00  0.00    +0.510 C 
ATOM      2  N   LIG    1       -0.023  -4.809  -0.105  0.00  0.00    -0.560 N 
ATOM      3  C   LIG    1        1.346  -5.220  -0.322  0.00  0.00    +0.270 C 
ATOM      4  C   LIG    1        2.294  -4.332   0.522  0.00  0.00    +0.030 C 
ATOM      5  C   LIG    1        2.353  -2.972  -0.037  0.00  0.00    +0.050 C 
ATOM      6  C   LIG    1        1.021  -2.227  -0.020  0.00  0.00    +0.140 C 
ATOM      7  C   LIG    1        0.225  -2.596  -1.246  0.00  0.00    +0.010 C 
ATOM      8  C   LIG    1       -0.694  -3.794  -0.941  0.00  0.00    +0.300 C 
ATOM      9  O   LIG    1       -1.867  -5.053   1.104  0.00  0.00    -0.540 OA
ENDROOT
BRANCH   6  10
ATOM     10  O   LIG    1        0.288  -2.589   1.152  0.00  0.00    -0.550 OA
ATOM     11  H   LIG    1       -0.571  -2.152   1.229  0.00  0.00    +0.370 HD
ENDBRANCH   6  10
BRANCH   1  12
ATOM     12  C   LIG    1       -0.063  -6.419   1.772  0.00  0.00    +0.280 C 
BRANCH  12  17
ATOM     13  C   LIG    1        0.216  -7.539   6.013  0.00  0.00    +0.060 C 
ATOM     14  C   LIG    1       -0.945  -7.771   5.044  0.00  0.00    -0.080 C 
ATOM     15  C   LIG    1       -1.854  -6.522   4.986  0.00  0.00    +0.080 C 
ATOM     16  C   LIG    1       -1.339  -5.777   3.729  0.00  0.00    +0.280 C 
ATOM     17  N   LIG    1       -1.020  -6.880   2.787  0.00  0.00    -0.380 N 
ATOM     18  H   LIG    1       -1.863  -7.214   2.344  0.00  0.00    +0.430 HD
ATOM     19  C   LIG    1       -1.755  -8.998   5.471  0.00  0.00    +0.060 C 
ATOM     20  C   LIG    1       -0.416  -7.951   3.609  0.00  0.00    +0.260 C 
ENDBRANCH  12  17
ENDBRANCH   1  12
BRANCH   6  21
ATOM     21  C   LIG    1        1.281  -0.719  -0.014  0.00  0.00    +0.250 C 
BRANCH  21  22
ATOM     22  N   LIG    1        0.002  -0.004   0.002  0.00  0.00    -0.740 N 
ATOM     23  H   LIG    1       -0.831  -0.500   0.007  0.00  0.00    +0.390 HD
ATOM     24  C   LIG    1       -0.016   1.344   0.009  0.00  0.00    +0.520 C 
ATOM     25  O   LIG    1        1.026   1.964   0.003  0.00  0.00    -0.520 OA
BRANCH  24  26
ATOM     26  C   LIG    1       -1.331   2.079   0.020  0.00  0.00    +0.060 C 
BRANCH  26  27
ATOM     27  C   LIG    1       -1.072   3.587   0.027  0.00  0.00    +0.000 C 
ATOM     28  C   LIG    1       -0.388   3.983   1.339  0.00  0.00    +0.000 C 
ATOM     29  C   LIG    1       -0.204   5.503   1.370  0.00  0.00    +0.200 C 
ATOM     30  O   LIG    1       -1.476   6.138   1.228  0.00  0.00    -0.380 OA
ATOM     31  C   LIG    1       -2.142   5.842  -0.002  0.00  0.00    +0.210 C 
ATOM     32  C   LIG    1       -2.403   4.336  -0.089  0.00  0.00    -0.010 C 
ENDBRANCH  26  27
ENDBRANCH  24  26
ENDBRANCH  21  22
ENDBRANCH   6  21
TORSDOF 7
