REMARK  Name = ZINCpe00000Rc9uM.0
REMARK                            x       y       z     vdW  Elec       q    Type
REMARK                         _______ _______ _______ _____ _____    ______ ____
ROOT
ATOM      1  C   LIG    1       -4.673   1.591  -1.023  0.00  0.00    +0.230 C 
ATOM      2  C   LIG    1       -4.818   0.067  -1.036  0.00  0.00    +0.010 C 
ATOM      3  C   LIG    1       -3.446  -0.576  -1.252  0.00  0.00    +0.020 C 
ATOM      4  C   LIG    1       -2.518  -0.187  -0.102  0.00  0.00    +0.290 C 
ATOM      5  N   LIG    1       -2.487   1.277   0.015  0.00  0.00    -0.570 N 
ATOM      6  C   LIG    1       -3.759   2.003   0.135  0.00  0.00    +0.300 C 
ENDROOT
BRANCH   5   7
ATOM      7  C   LIG    1       -1.280   1.962   0.006  0.00  0.00    +0.350 A 
ATOM      8  N   LIG    1       -0.154   1.328  -0.244  0.00  0.00    -0.500 NA
ATOM      9  C   LIG    1        1.008   1.978  -0.248  0.00  0.00    +0.190 A 
ATOM     10  C   LIG    1        1.081   3.304  -0.005  0.00  0.00    +0.170 A 
ATOM     11  N   LIG    1       -0.043   4.030   0.256  0.00  0.00    -0.590 N 
ATOM     12  H   LIG    1        0.017   4.983   0.429  0.00  0.00    +0.420 HD
ATOM     13  C   LIG    1       -1.242   3.405   0.269  0.00  0.00    +0.490 A 
ATOM     14  O   LIG    1       -2.266   4.025   0.499  0.00  0.00    -0.530 OA
ENDBRANCH   5   7
BRANCH   1  17
ATOM     15  O   LIG    1       -6.440   2.025  -3.018  0.00  0.00    -0.550 OA
ATOM     16  C   LIG    1       -6.781   2.422  -1.918  0.00  0.00    +0.600 C 
ATOM     17  N   LIG    1       -5.992   2.205  -0.848  0.00  0.00    -0.710 N 
ATOM     18  H   LIG    1       -6.296   2.456   0.038  0.00  0.00    +0.400 HD
BRANCH  16  19
ATOM     19  C   LIG    1       -8.011   3.112  -1.764  0.00  0.00    -0.150 A 
ATOM     20  C   LIG    1       -8.492   3.700  -0.606  0.00  0.00    +0.300 A 
ATOM     21  N   LIG    1       -9.669   4.242  -0.876  0.00  0.00    -0.490 NA
ATOM     22  C   LIG    1       -9.979   4.035  -2.155  0.00  0.00    +0.250 A 
ATOM     23  C   LIG    1      -11.100   4.405  -2.920  0.00  0.00    +0.070 A 
ATOM     24  C   LIG    1      -11.156   4.055  -4.236  0.00  0.00    +0.070 A 
ATOM     25  C   LIG    1      -10.098   3.334  -4.807  0.00  0.00    +0.020 A 
ATOM     26  C   LIG    1       -9.029   2.988  -4.054  0.00  0.00    +0.250 A 
ATOM     27  N   LIG    1       -8.962   3.337  -2.742  0.00  0.00    -0.320 N 
ENDBRANCH  16  19
ENDBRANCH   1  17
TORSDOF 3
