REMARK  Name = ZINCpk00000y6whD.0
REMARK                            x       y       z     vdW  Elec       q    Type
REMARK                         _______ _______ _______ _____ _____    ______ ____
ROOT
ATOM      1  C   LIG    1        1.085  -4.340  -2.461  0.00  0.00    +0.110 C 
ATOM      2  C   LIG    1       -0.189  -4.949  -1.935  0.00  0.00    +0.510 C 
ATOM      3  N   LIG    1       -1.137  -4.162  -1.389  0.00  0.00    -0.610 N 
ATOM      4  C   LIG    1       -0.999  -2.699  -1.411  0.00  0.00    +0.290 C 
ATOM      5  C   LIG    1       -1.145  -2.169   0.019  0.00  0.00    +0.230 C 
ATOM      6  C   LIG    1       -2.466  -2.667   0.611  0.00  0.00    +0.050 C 
ATOM      7  C   LIG    1       -2.460  -4.197   0.661  0.00  0.00    +0.060 C 
ATOM      8  C   LIG    1       -2.328  -4.749  -0.762  0.00  0.00    +0.220 C 
ATOM      9  O   LIG    1       -0.361  -6.148  -2.002  0.00  0.00    -0.520 OA
ENDROOT
BRANCH   5  10
ATOM     10  N   LIG    1       -1.139  -0.704   0.001  0.00  0.00    -0.720 N 
ATOM     11  H   LIG    1       -1.977  -0.216  -0.021  0.00  0.00    +0.410 HD
ATOM     12  C   LIG    1        0.031  -0.035   0.014  0.00  0.00    +0.580 C 
ATOM     13  O   LIG    1        1.081  -0.647   0.042  0.00  0.00    -0.530 OA
BRANCH  12  14
ATOM     14  C   LIG    1        0.037   1.441  -0.004  0.00  0.00    -0.160 A 
ATOM     15  C   LIG    1        1.222   2.118   0.009  0.00  0.00    +0.340 A 
ATOM     16  N   LIG    1        1.237   3.476  -0.007  0.00  0.00    -0.400 N 
ATOM     17  C   LIG    1        2.236   4.404   0.001  0.00  0.00    +0.360 A 
ATOM     18  N   LIG    1        1.674   5.584  -0.024  0.00  0.00    -0.250 NA
ATOM     19  N   LIG    1        0.393   5.470  -0.047  0.00  0.00    -0.280 NA
ATOM     20  C   LIG    1        0.063   4.190  -0.038  0.00  0.00    +0.200 A 
ATOM     21  C   LIG    1       -1.173   3.510  -0.053  0.00  0.00    +0.100 A 
ATOM     22  C   LIG    1       -1.188   2.154  -0.042  0.00  0.00    +0.080 A 
ENDBRANCH  12  14
ENDBRANCH   5  10
BRANCH   8  23
ATOM     23  C   LIG    1       -2.182  -6.271  -0.709  0.00  0.00    +0.470 C 
ATOM     24  F   LIG    1       -0.961  -6.602  -0.112  0.00  0.00    -0.170 F 
ATOM     25  F   LIG    1       -2.221  -6.789  -2.008  0.00  0.00    -0.160 F 
ATOM     26  F   LIG    1       -3.231  -6.815   0.041  0.00  0.00    -0.190 F 
ENDBRANCH   8  23
TORSDOF 3
