REMARK  Name = ZINCpk00000y6ygW.0
REMARK                            x       y       z     vdW  Elec       q    Type
REMARK                         _______ _______ _______ _____ _____    ______ ____
ROOT
ATOM      1  C   LIG    1       -3.995   2.620   0.945  0.00  0.00    +0.020 C 
ATOM      2  C   LIG    1       -3.723   1.644  -0.202  0.00  0.00    +0.070 C 
ATOM      3  C   LIG    1       -4.835   0.594  -0.254  0.00  0.00    +0.240 C 
ATOM      4  O   LIG    1       -4.821  -0.169   0.956  0.00  0.00    -0.370 OA
ATOM      5  C   LIG    1       -3.580  -0.835   1.202  0.00  0.00    +0.230 C 
ATOM      6  C   LIG    1       -2.455   0.202   1.269  0.00  0.00    +0.170 C 
ATOM      7  C   LIG    1       -3.681   2.410  -1.526  0.00  0.00    +0.060 C 
ATOM      8  N   LIG    1       -2.433   0.975   0.019  0.00  0.00    -0.510 NA
ENDROOT
BRANCH   5   9
ATOM      9  C   LIG    1       -3.659  -1.577   2.511  0.00  0.00    -0.080 A 
ATOM     10  C   LIG    1       -4.545  -1.165   3.488  0.00  0.00    +0.060 A 
ATOM     11  C   LIG    1       -4.617  -1.846   4.689  0.00  0.00    +0.010 A 
ATOM     12  C   LIG    1       -3.803  -2.939   4.914  0.00  0.00    +0.030 A 
ATOM     13  C   LIG    1       -2.916  -3.353   3.938  0.00  0.00    +0.030 A 
ATOM     14  C   LIG    1       -2.847  -2.676   2.733  0.00  0.00    -0.030 A 
ATOM     15 CL   LIG    1       -1.739  -3.200   1.504  0.00  0.00    -0.060 Cl
ENDBRANCH   5   9
BRANCH   8  16
ATOM     16  C   LIG    1       -1.330   1.944   0.019  0.00  0.00    +0.210 C 
BRANCH  16  17
ATOM     17  C   LIG    1       -0.014   1.209   0.009  0.00  0.00    +0.520 C 
ATOM     18  N   LIG    1        1.143   1.898   0.001  0.00  0.00    -0.620 N 
ATOM     19  C   LIG    1        2.445   1.210  -0.009  0.00  0.00    +0.300 C 
ATOM     20  C   LIG    1        3.180   1.607  -1.296  0.00  0.00    +0.250 C 
ATOM     21  N   LIG    1        3.118   3.047  -1.502  0.00  0.00    -0.720 N 
ATOM     22  H   LIG    1        3.793   3.451  -2.071  0.00  0.00    +0.400 HD
ATOM     23  C   LIG    1        2.200   3.850  -0.964  0.00  0.00    +0.510 C 
ATOM     24  O   LIG    1        2.204   5.023  -1.273  0.00  0.00    -0.540 OA
ATOM     25  C   LIG    1        1.158   3.369   0.009  0.00  0.00    +0.330 C 
ATOM     26  O   LIG    1        0.002  -0.004   0.002  0.00  0.00    -0.500 OA
ENDBRANCH  16  17
ENDBRANCH   8  16
TORSDOF 3
