REMARK  Name = ZINCrg00000B1xfR.0
REMARK                            x       y       z     vdW  Elec       q    Type
REMARK                         _______ _______ _______ _____ _____    ______ ____
ROOT
ATOM      1  C   LIG    1       -8.364   3.194   1.543  0.00  0.00    -0.020 C 
ATOM      2  C   LIG    1       -8.375   1.664   1.376  0.00  0.00    +0.120 C 
ATOM      3  C   LIG    1       -7.012   1.660   2.077  0.00  0.00    -0.570 C 
ATOM      4  C   LIG    1       -6.013   0.674   1.478  0.00  0.00    +0.090 C 
ATOM      5  C   LIG    1       -4.623   0.929   2.060  0.00  0.00    +0.230 C 
ATOM      6  C   LIG    1       -4.588   0.581   3.545  0.00  0.00    +0.060 C 
ATOM      7  C   LIG    1       -5.373   1.619   4.351  0.00  0.00    -0.320 C 
ATOM      8  S   LIG    1       -7.127   1.519   3.882  0.00  0.00    +2.430 S 
ATOM      9  O   LIG    1       -7.800   2.664   4.387  0.00  0.00    -0.930 OA
ATOM     10  O   LIG    1       -7.613   0.224   4.207  0.00  0.00    -0.930 OA
ATOM     11  C   LIG    1       -6.828   3.101   1.588  0.00  0.00    +0.100 C 
ENDROOT
BRANCH   5  12
ATOM     12  N   LIG    1       -3.643   0.107   1.348  0.00  0.00    -0.720 N 
ATOM     13  H   LIG    1       -3.920  -0.721   0.925  0.00  0.00    +0.410 HD
ATOM     14  C   LIG    1       -2.355   0.500   1.280  0.00  0.00    +0.550 C 
ATOM     15  O   LIG    1       -2.009   1.535   1.808  0.00  0.00    -0.530 OA
BRANCH  14  16
ATOM     16  C   LIG    1       -1.347  -0.347   0.547  0.00  0.00    -0.070 C 
ATOM     17  C   LIG    1       -0.769   0.211  -0.756  0.00  0.00    +0.060 C 
ATOM     18  C   LIG    1        0.098   0.155   0.504  0.00  0.00    +0.070 C 
ENDBRANCH  14  16
ENDBRANCH   5  12
BRANCH   1  19
ATOM     19  C   LIG    1       -8.896   3.947   0.322  0.00  0.00    +0.280 C 
BRANCH  19  21
ATOM     20  C   LIG    1       -9.399   6.245  -0.314  0.00  0.00    +0.590 C 
ATOM     21  N   LIG    1       -8.957   5.380   0.621  0.00  0.00    -0.720 N 
ATOM     22  H   LIG    1       -8.679   5.706   1.491  0.00  0.00    +0.410 HD
ATOM     23  O   LIG    1       -9.658   5.849  -1.435  0.00  0.00    -0.550 OA
BRANCH  20  29
ATOM     24  C   LIG    1      -10.557   8.434  -2.174  0.00  0.00    +0.330 C 
ATOM     25  N   LIG    1      -10.080   8.638  -0.804  0.00  0.00    -0.410 N 
ATOM     26  C   LIG    1      -10.073   9.818  -0.137  0.00  0.00    +0.190 A 
ATOM     27  C   LIG    1       -9.563   9.618   1.102  0.00  0.00    -0.070 A 
ATOM     28  C   LIG    1       -9.244   8.261   1.220  0.00  0.00    +0.000 A 
ATOM     29  C   LIG    1       -9.566   7.663   0.021  0.00  0.00    -0.060 A 
ENDBRANCH  20  29
ENDBRANCH  19  21
ENDBRANCH   1  19
TORSDOF 5
