REMARK  Name = ZINCrg00000bUQbT.0
REMARK                            x       y       z     vdW  Elec       q    Type
REMARK                         _______ _______ _______ _____ _____    ______ ____
ROOT
ATOM      1  C   LIG    1       -0.742   1.585  -1.213  0.00  0.00    +0.500 C 
ATOM      2  N   LIG    1       -0.288   1.272  -2.443  0.00  0.00    -0.600 N 
ATOM      3  C   LIG    1        0.919   0.451  -2.609  0.00  0.00    +0.270 C 
ATOM      4  C   LIG    1        1.915   1.207  -3.489  0.00  0.00    +0.270 C 
ATOM      5  N   LIG    1        1.214   1.687  -4.688  0.00  0.00    -0.610 N 
ATOM      6  C   LIG    1        0.011   2.513  -4.522  0.00  0.00    +0.290 C 
ATOM      7  C   LIG    1        1.668   1.375  -5.918  0.00  0.00    +0.520 C 
ATOM      8  O   LIG    1        1.082   1.777  -6.901  0.00  0.00    -0.520 OA
ATOM      9  C   LIG    1       -0.989   1.752  -3.643  0.00  0.00    +0.240 C 
ATOM     10  C   LIG    1       -1.557   0.561  -4.417  0.00  0.00    +0.030 C 
ATOM     11  O   LIG    1       -1.736   2.268  -1.088  0.00  0.00    -0.510 OA
ENDROOT
BRANCH   1  12
ATOM     12  C   LIG    1       -0.013   1.086   0.008  0.00  0.00    +0.380 C 
BRANCH  12  18
ATOM     13  C   LIG    1       -2.296  -0.407   1.514  0.00  0.00    +0.210 C 
ATOM     14  C   LIG    1       -1.686   0.923   1.872  0.00  0.00    +0.200 A 
ATOM     15  N   LIG    1       -2.012   1.687   2.887  0.00  0.00    -0.300 NA
ATOM     16  N   LIG    1       -1.264   2.735   2.853  0.00  0.00    -0.070 NA
ATOM     17  N   LIG    1       -0.466   2.658   1.846  0.00  0.00    -0.080 NA
ATOM     18  N   LIG    1       -0.698   1.558   1.213  0.00  0.00    -0.300 N 
ENDBRANCH  12  18
ENDBRANCH   1  12
BRANCH   7  19
ATOM     19  C   LIG    1        2.904   0.526  -6.073  0.00  0.00    +0.110 C 
BRANCH  19  20
ATOM     20  C   LIG    1        3.195   0.326  -7.538  0.00  0.00    -0.100 A 
ATOM     21  C   LIG    1        4.007   1.221  -8.212  0.00  0.00    +0.130 A 
ATOM     22  C   LIG    1        4.274   1.036  -9.558  0.00  0.00    -0.010 A 
ATOM     23  C   LIG    1        3.730  -0.043 -10.228  0.00  0.00    +0.080 A 
ATOM     24  C   LIG    1        2.919  -0.938  -9.555  0.00  0.00    +0.020 A 
ATOM     25  F   LIG    1        4.539   2.276  -7.556  0.00  0.00    -0.130 F 
ATOM     26  C   LIG    1        2.656  -0.757  -8.209  0.00  0.00    +0.000 A 
ATOM     27 CL   LIG    1        1.643  -1.886  -7.363  0.00  0.00    -0.050 Cl
ENDBRANCH  19  20
ENDBRANCH   7  19
TORSDOF 4
