REMARK  Name = ZINCpk000000nLCX.0
REMARK                            x       y       z     vdW  Elec       q    Type
REMARK                         _______ _______ _______ _____ _____    ______ ____
ROOT
ATOM      1  C   LIG    1       -1.497   3.319   2.317  0.00  0.00    +0.510 C 
ATOM      2  N   LIG    1       -0.937   3.391   3.540  0.00  0.00    -0.670 N 
ATOM      3  H   LIG    1        0.011   3.220   3.650  0.00  0.00    +0.410 HD
ATOM      4  O   LIG    1       -2.667   3.604   2.167  0.00  0.00    -0.510 OA
ENDROOT
BRANCH   2   5
ATOM      5  C   LIG    1       -1.724   3.714   4.653  0.00  0.00    +0.120 A 
ATOM      6  C   LIG    1       -2.749   4.643   4.532  0.00  0.00    +0.060 A 
ATOM      7  C   LIG    1       -3.529   4.957   5.628  0.00  0.00    -0.010 A 
ATOM      8  C   LIG    1       -3.280   4.352   6.853  0.00  0.00    +0.160 A 
ATOM      9  C   LIG    1       -2.251   3.427   6.975  0.00  0.00    +0.010 A 
ATOM     10  C   LIG    1       -1.476   3.108   5.878  0.00  0.00    +0.020 A 
BRANCH   8  11
ATOM     11  N   LIG    1       -4.067   4.675   7.966  0.00  0.00    -0.570 N 
ATOM     12  C   LIG    1       -5.187   5.585   8.165  0.00  0.00    +0.300 C 
ATOM     13  C   LIG    1       -5.220   5.140   9.622  0.00  0.00    +0.070 C 
ATOM     14  C   LIG    1       -4.063   4.264   9.240  0.00  0.00    +0.520 C 
ATOM     15  O   LIG    1       -3.378   3.477   9.857  0.00  0.00    -0.490 OA
ENDBRANCH   8  11
ENDBRANCH   2   5
BRANCH   1  16
ATOM     16  C   LIG    1       -0.671   2.883   1.134  0.00  0.00    +0.290 C 
BRANCH  16  17
ATOM     17  N   LIG    1       -1.431   3.099  -0.099  0.00  0.00    -0.970 NA
ATOM     18  C   LIG    1       -2.753   2.537  -0.417  0.00  0.00    +0.260 C 
ATOM     19  C   LIG    1       -3.515   3.487  -1.364  0.00  0.00    +0.090 C 
ATOM     20  C   LIG    1       -2.462   3.880  -2.441  0.00  0.00    -0.310 C 
ATOM     21  S   LIG    1       -0.954   4.023  -1.406  0.00  0.00    +2.560 S 
ATOM     22  O   LIG    1        0.137   3.318  -1.981  0.00  0.00    -0.950 OA
ATOM     23  O   LIG    1       -0.804   5.340  -0.894  0.00  0.00    -0.950 OA
ENDBRANCH  16  17
BRANCH  16  25
ATOM     24  C   LIG    1       -1.621   0.588   1.398  0.00  0.00    +0.020 C 
ATOM     25  C   LIG    1       -0.330   1.398   1.269  0.00  0.00    -0.010 C 
ATOM     26  C   LIG    1        0.440   0.936   0.030  0.00  0.00    +0.040 C 
ENDBRANCH  16  25
ENDBRANCH   1  16
TORSDOF 5
