REMARK  Name = ZINCpk00000kPRPP.0
REMARK                            x       y       z     vdW  Elec       q    Type
REMARK                         _______ _______ _______ _____ _____    ______ ____
ROOT
ATOM      1  C   LIG    1        3.930   4.449  -0.010  0.00  0.00    +0.570 C 
ATOM      2  N   LIG    1        5.276   4.531  -0.022  0.00  0.00    -0.720 N 
ATOM      3  H   LIG    1        5.811   3.723  -0.031  0.00  0.00    +0.400 HD
ATOM      4  O   LIG    1        3.259   5.463   0.002  0.00  0.00    -0.510 OA
ENDROOT
BRANCH   1   9
ATOM      5  C   LIG    1       -1.242   2.203   0.020  0.00  0.00    +0.160 C 
ATOM      6  C   LIG    1       -0.016   1.327   0.009  0.00  0.00    +0.050 A 
ATOM      7  C   LIG    1        1.300   1.759  -0.001  0.00  0.00    -0.030 A 
ATOM      8  C   LIG    1        1.891   3.031   0.001  0.00  0.00    +0.180 A 
ATOM      9  C   LIG    1        3.273   3.131  -0.011  0.00  0.00    -0.170 A 
ATOM     10  C   LIG    1        4.069   1.900  -0.025  0.00  0.00    +0.040 A 
ATOM     11  C   LIG    1        3.453   0.707  -0.027  0.00  0.00    +0.220 A 
ATOM     12  N   LIG    1        2.082   0.620  -0.015  0.00  0.00    -0.370 N 
ATOM     13  C   LIG    1        1.239  -0.434  -0.012  0.00  0.00    +0.390 A 
ATOM     14  N   LIG    1        0.002  -0.004   0.002  0.00  0.00    -0.460 NA
ENDBRANCH   1   9
BRANCH   2  15
ATOM     15  C   LIG    1        5.929   5.843  -0.021  0.00  0.00    +0.260 C 
ATOM     16  C   LIG    1        7.338   5.730  -0.630  0.00  0.00    +0.050 C 
ATOM     17  C   LIG    1        8.329   6.162   0.472  0.00  0.00    -0.020 C 
ATOM     18  C   LIG    1        7.485   7.059   1.412  0.00  0.00    +0.000 C 
ATOM     19  C   LIG    1        6.113   6.340   1.428  0.00  0.00    +0.150 C 
BRANCH  19  20
ATOM     20  O   LIG    1        5.073   7.256   1.778  0.00  0.00    -0.550 OA
ATOM     21  H   LIG    1        5.139   7.601   2.679  0.00  0.00    +0.380 HD
ENDBRANCH  19  20
BRANCH  17  22
ATOM     22  C   LIG    1        9.486   6.960  -0.133  0.00  0.00    +0.310 C 
BRANCH  22  23
ATOM     23  N   LIG    1       10.427   7.335   0.926  0.00  0.00    -0.460 N 
ATOM     24  C   LIG    1       11.507   6.607   1.347  0.00  0.00    +0.110 A 
ATOM     25  C   LIG    1       12.093   7.314   2.332  0.00  0.00    +0.140 A 
ATOM     26  N   LIG    1       11.390   8.443   2.507  0.00  0.00    -0.500 NA
ATOM     27  C   LIG    1       10.394   8.465   1.665  0.00  0.00    +0.380 A 
ENDBRANCH  22  23
ENDBRANCH  17  22
ENDBRANCH   2  15
TORSDOF 5
