REMARK  Name = ZINCpk000005nECg.0
REMARK                            x       y       z     vdW  Elec       q    Type
REMARK                         _______ _______ _______ _____ _____    ______ ____
ROOT
ATOM      1  N   LIG    1       -2.071  -4.425   0.991  0.00  0.00    -0.460 N 
ATOM      2  C   LIG    1       -3.127  -3.415   1.146  0.00  0.00    +0.220 C 
ATOM      3  C   LIG    1       -3.012  -2.384   0.018  0.00  0.00    +0.290 C 
ATOM      4  N   LIG    1       -1.640  -1.854   0.008  0.00  0.00    -0.620 N 
ATOM      5  C   LIG    1       -0.524  -2.812  -0.014  0.00  0.00    +0.300 C 
ATOM      6  C   LIG    1       -1.412  -0.526   0.013  0.00  0.00    +0.520 C 
ATOM      7  O   LIG    1       -2.344   0.250   0.026  0.00  0.00    -0.530 OA
ATOM      8  C   LIG    1       -0.737  -3.826   1.121  0.00  0.00    +0.210 C 
ENDROOT
BRANCH   1  13
ATOM      9  C   LIG    1       -3.451  -6.402   3.613  0.00  0.00    +0.390 A 
ATOM     10  C   LIG    1       -2.557  -7.472   3.638  0.00  0.00    -0.120 A 
ATOM     11  C   LIG    1       -1.504  -7.472   2.744  0.00  0.00    +0.230 A 
ATOM     12  N   LIG    1       -1.375  -6.464   1.894  0.00  0.00    -0.550 NA
ATOM     13  C   LIG    1       -2.240  -5.461   1.893  0.00  0.00    +0.530 A 
ATOM     14  C   LIG    1       -0.513  -8.608   2.734  0.00  0.00    +0.150 C 
ATOM     15  N   LIG    1       -3.259  -5.422   2.738  0.00  0.00    -0.610 NA
BRANCH   9  17
ATOM     16  C   LIG    1       -5.368  -5.231   4.381  0.00  0.00    +0.260 C 
ATOM     17  O   LIG    1       -4.498  -6.362   4.472  0.00  0.00    -0.300 OA
ENDBRANCH   9  17
ENDBRANCH   1  13
BRANCH   6  18
ATOM     18  C   LIG    1        0.002  -0.004   0.002  0.00  0.00    +0.070 C 
BRANCH  18  19
ATOM     19  C   LIG    1       -0.019   1.526   0.010  0.00  0.00    +0.110 C 
BRANCH  19  20
ATOM     20  C   LIG    1        1.395   2.047  -0.000  0.00  0.00    -0.040 A 
ATOM     21  C   LIG    1        2.070   2.292   1.186  0.00  0.00    -0.040 A 
ATOM     22  C   LIG    1        3.368   2.766   1.137  0.00  0.00    +0.260 A 
ATOM     23  N   LIG    1        3.959   2.995  -0.020  0.00  0.00    -0.490 NA
ATOM     24  C   LIG    1        3.346   2.778  -1.167  0.00  0.00    +0.260 A 
ATOM     25  C   LIG    1        2.050   2.299  -1.196  0.00  0.00    -0.030 A 
ENDBRANCH  19  20
ENDBRANCH  18  19
ENDBRANCH   6  18
TORSDOF 5
