REMARK  Name = ZINCvU0000000Bln.0
REMARK                            x       y       z     vdW  Elec       q    Type
REMARK                         _______ _______ _______ _____ _____    ______ ____
ROOT
ATOM      1  O   LIG    1       -3.541   3.800   0.603  0.00  0.00    -0.500 OA
ATOM      2  C   LIG    1       -3.413   2.596   0.536  0.00  0.00    +0.510 C 
ATOM      3  N   LIG    1       -2.182   2.049   0.517  0.00  0.00    -0.670 N 
ATOM      4  H   LIG    1       -2.078   1.091   0.397  0.00  0.00    +0.410 HD
ENDROOT
BRANCH   3   5
ATOM      5  C   LIG    1       -1.054   2.860   0.669  0.00  0.00    +0.160 A 
ATOM      6  C   LIG    1       -1.052   4.152   0.164  0.00  0.00    +0.020 A 
ATOM      7  C   LIG    1        0.066   4.950   0.310  0.00  0.00    +0.030 A 
ATOM      8  C   LIG    1        1.186   4.470   0.965  0.00  0.00    +0.000 A 
ATOM      9  C   LIG    1        1.196   3.189   1.478  0.00  0.00    +0.040 A 
ATOM     10  C   LIG    1        0.076   2.374   1.337  0.00  0.00    -0.080 A 
BRANCH  10  11
ATOM     11  C   LIG    1        0.082   0.997   1.886  0.00  0.00    -0.050 A 
ATOM     12  C   LIG    1       -0.967   0.561   2.693  0.00  0.00    +0.010 A 
ATOM     13  C   LIG    1       -0.959  -0.724   3.198  0.00  0.00    +0.000 A 
ATOM     14  C   LIG    1        0.094  -1.575   2.912  0.00  0.00    +0.000 A 
ATOM     15  C   LIG    1        1.141  -1.146   2.116  0.00  0.00    +0.000 A 
ATOM     16  C   LIG    1        1.140   0.135   1.602  0.00  0.00    +0.020 A 
ENDBRANCH  10  11
ENDBRANCH   3   5
BRANCH   2  17
ATOM     17  C   LIG    1       -4.632   1.711   0.474  0.00  0.00    +0.230 C 
BRANCH  17  18
ATOM     18  N   LIG    1       -5.839   2.545   0.396  0.00  0.00    -0.470 N 
ATOM     19  C   LIG    1       -6.162   3.133   1.715  0.00  0.00    +0.260 C 
ATOM     20  C   LIG    1       -7.180   2.123   2.294  0.00  0.00    +0.060 C 
ATOM     21  C   LIG    1       -7.776   1.494   1.050  0.00  0.00    -0.130 A 
ATOM     22  C   LIG    1       -8.920   0.749   0.861  0.00  0.00    +0.040 A 
ATOM     23  C   LIG    1       -9.251   0.296  -0.404  0.00  0.00    +0.000 A 
ATOM     24  C   LIG    1       -8.433   0.593  -1.478  0.00  0.00    +0.030 A 
ATOM     25  C   LIG    1       -7.285   1.335  -1.293  0.00  0.00    +0.020 A 
ATOM     26  C   LIG    1       -6.943   1.792  -0.022  0.00  0.00    +0.090 A 
BRANCH  20  27
ATOM     27  C   LIG    1       -6.485   1.084   3.137  0.00  0.00    -0.070 A 
ATOM     28  C   LIG    1       -5.995  -0.067   2.549  0.00  0.00    +0.000 A 
ATOM     29  C   LIG    1       -5.353  -1.018   3.321  0.00  0.00    +0.000 A 
ATOM     30  C   LIG    1       -5.212  -0.822   4.683  0.00  0.00    +0.000 A 
ATOM     31  C   LIG    1       -5.707   0.327   5.271  0.00  0.00    +0.010 A 
ATOM     32  C   LIG    1       -6.344   1.280   4.498  0.00  0.00    +0.010 A 
ENDBRANCH  20  27
ENDBRANCH  17  18
ENDBRANCH   2  17
TORSDOF 5
