REMARK  Name = ZINCbu0000000GD2.0
REMARK                            x       y       z     vdW  Elec       q    Type
REMARK                         _______ _______ _______ _____ _____    ______ ____
ROOT
ATOM      1  C   LIG    1       -2.080   2.502  -3.455  0.00  0.00    -0.060 A 
ATOM      2  C   LIG    1       -1.566   1.211  -3.430  0.00  0.00    +0.050 A 
ATOM      3  C   LIG    1       -0.899   0.757  -2.309  0.00  0.00    +0.080 A 
ATOM      4  C   LIG    1       -0.742   1.585  -1.213  0.00  0.00    -0.160 A 
ATOM      5  C   LIG    1       -1.257   2.868  -1.232  0.00  0.00    +0.020 A 
ATOM      6  C   LIG    1       -1.920   3.331  -2.351  0.00  0.00    +0.010 A 
ENDROOT
BRANCH   1   8
ATOM      7  C   LIG    1       -3.390   4.779  -4.420  0.00  0.00    +0.150 C 
ATOM      8  S   LIG    1       -2.932   3.086  -4.882  0.00  0.00    -0.080 S 
ENDBRANCH   1   8
BRANCH   4   9
ATOM      9  C   LIG    1       -0.013   1.086   0.008  0.00  0.00    +0.240 C 
ATOM     10  C   LIG    1        1.423   1.615  -0.003  0.00  0.00    +0.100 C 
BRANCH   9  11
ATOM     11  N   LIG    1       -0.700   1.560   1.217  0.00  0.00    -0.640 N 
ATOM     12  H   LIG    1       -0.714   2.568   1.222  0.00  0.00    +0.430 HD
ATOM     13  H   LIG    1       -0.212   1.225   2.034  0.00  0.00    +0.440 HD
ATOM     14  H   LIG    1       -1.647   1.210   1.224  0.00  0.00    +0.440 HD
ENDBRANCH   9  11
ENDBRANCH   4   9
TORSDOF 3
