REMARK  Name = ZINCrD000000CJ4F.0
REMARK                            x       y       z     vdW  Elec       q    Type
REMARK                         _______ _______ _______ _____ _____    ______ ____
ROOT
ATOM      1  O   LIG    1        2.773   5.968   2.719  0.00  0.00    -0.520 OA
ATOM      2  C   LIG    1        1.857   6.413   2.056  0.00  0.00    +0.570 C 
ATOM      3  N   LIG    1        1.018   5.575   1.416  0.00  0.00    -0.590 N 
ATOM      4  C   LIG    1       -0.092   6.091   0.600  0.00  0.00    +0.270 C 
ATOM      5  C   LIG    1       -0.040   5.412  -0.773  0.00  0.00    +0.210 C 
ATOM      6  O   LIG    1        0.013   3.994  -0.596  0.00  0.00    -0.370 OA
ATOM      7  C   LIG    1        1.177   3.533   0.095  0.00  0.00    +0.200 C 
ATOM      8  C   LIG    1        1.186   4.116   1.512  0.00  0.00    +0.270 C 
ENDROOT
BRANCH   7   9
ATOM      9  C   LIG    1        1.155   2.028   0.169  0.00  0.00    -0.080 A 
ATOM     10  C   LIG    1       -0.027   1.357   0.101  0.00  0.00    +0.050 A 
ATOM     11  C   LIG    1       -0.067  -0.034   0.167  0.00  0.00    +0.010 A 
ATOM     12  C   LIG    1        1.075  -0.763   0.302  0.00  0.00    +0.030 A 
ATOM     13  C   LIG    1        2.314  -0.105   0.375  0.00  0.00    -0.050 A 
ATOM     14  C   LIG    1        3.514  -0.822   0.514  0.00  0.00    +0.030 A 
ATOM     15  C   LIG    1        4.697  -0.151   0.582  0.00  0.00    +0.000 A 
ATOM     16  C   LIG    1        4.737   1.240   0.515  0.00  0.00    +0.010 A 
ATOM     17  C   LIG    1        3.594   1.968   0.381  0.00  0.00    +0.010 A 
ATOM     18  C   LIG    1        2.355   1.310   0.308  0.00  0.00    -0.040 A 
ENDBRANCH   7   9
BRANCH   2  19
ATOM     19  C   LIG    1        1.664   7.878   1.950  0.00  0.00    +0.190 A 
ATOM     20  C   LIG    1        2.608   8.769   2.481  0.00  0.00    -0.160 A 
ATOM     21  C   LIG    1        3.875   8.636   3.190  0.00  0.00    +0.010 A 
ATOM     22  C   LIG    1        4.316   9.882   3.439  0.00  0.00    +0.260 A 
ATOM     23  N   LIG    1        3.429  10.800   2.943  0.00  0.00    -0.570 N 
ATOM     24  H   LIG    1        3.534  11.762   3.003  0.00  0.00    +0.430 HD
ATOM     25  C   LIG    1        2.374  10.159   2.351  0.00  0.00    +0.320 A 
ATOM     26  N   LIG    1        1.272  10.561   1.734  0.00  0.00    -0.510 NA
ATOM     27  C   LIG    1        0.413   9.685   1.251  0.00  0.00    +0.520 A 
ATOM     28  N   LIG    1        0.591   8.384   1.343  0.00  0.00    -0.510 NA
ENDBRANCH   2  19
TORSDOF 2
