REMARK  Name = ZINCvU0000000FA4.0
REMARK                            x       y       z     vdW  Elec       q    Type
REMARK                         _______ _______ _______ _____ _____    ______ ____
ROOT
ATOM      1  C   LIG    1        1.206   1.795   0.165  0.00  0.00    -0.130 A 
ATOM      2  C   LIG    1        0.003   1.105  -0.009  0.00  0.00    +0.070 A 
ATOM      3  C   LIG    1       -1.190   1.793  -0.003  0.00  0.00    -0.010 A 
ATOM      4  C   LIG    1       -1.207   3.167   0.184  0.00  0.00    +0.070 A 
ATOM      5  C   LIG    1       -0.028   3.863   0.356  0.00  0.00    -0.020 A 
ATOM      6  C   LIG    1        1.187   3.188   0.348  0.00  0.00    -0.060 A 
ENDROOT
BRANCH   1   9
ATOM      7  N   LIG    1        2.501  -0.270  -0.023  0.00  0.00    -0.670 N 
ATOM      8  H   LIG    1        1.666  -0.762  -0.067  0.00  0.00    +0.410 HD
ATOM      9  C   LIG    1        2.487   1.066   0.154  0.00  0.00    +0.550 C 
ATOM     10  O   LIG    1        3.532   1.670   0.305  0.00  0.00    -0.480 OA
BRANCH   7  16
ATOM     11  C   LIG    1        9.458  -1.726  -1.716  0.00  0.00    +0.230 C 
ATOM     12  C   LIG    1        8.024  -1.693  -1.255  0.00  0.00    +0.250 A 
ATOM     13  N   LIG    1        7.218  -0.685  -1.407  0.00  0.00    -0.480 NA
ATOM     14  C   LIG    1        6.008  -1.007  -0.875  0.00  0.00    +0.050 A 
ATOM     15  C   LIG    1        4.793  -0.330  -0.761  0.00  0.00    +0.090 A 
ATOM     16  C   LIG    1        3.720  -0.948  -0.144  0.00  0.00    +0.150 A 
ATOM     17  C   LIG    1        3.845  -2.243   0.352  0.00  0.00    +0.040 A 
ATOM     18  C   LIG    1        5.041  -2.920   0.238  0.00  0.00    +0.070 A 
ATOM     19  C   LIG    1        6.127  -2.312  -0.372  0.00  0.00    -0.010 A 
ATOM     20  O   LIG    1        7.396  -2.701  -0.630  0.00  0.00    -0.210 OA
ENDBRANCH   7  16
ENDBRANCH   1   9
BRANCH   6  21
ATOM     21  S   LIG    1        2.694   4.073   0.569  0.00  0.00    +0.090 S 
BRANCH  21  22
ATOM     22  C   LIG    1        2.135   5.789   0.758  0.00  0.00    +0.010 C 
BRANCH  22  23
ATOM     23  C   LIG    1        3.329   6.686   0.959  0.00  0.00    +0.530 C 
ATOM     24  N   LIG    1        3.154   8.013   1.123  0.00  0.00    -0.730 N 
ATOM     25  H   LIG    1        2.260   8.389   1.113  0.00  0.00    +0.400 HD
ATOM     26  O   LIG    1        4.446   6.215   0.972  0.00  0.00    -0.520 OA
BRANCH  24  27
ATOM     27  C   LIG    1        4.315   8.886   1.318  0.00  0.00    +0.260 C 
BRANCH  27  28
ATOM     28  C   LIG    1        3.843  10.332   1.478  0.00  0.00    -0.020 C 
ATOM     29  C   LIG    1        3.196  10.805   0.175  0.00  0.00    +0.010 C 
ATOM     30  C   LIG    1        2.724  12.252   0.336  0.00  0.00    +0.000 C 
ATOM     31  C   LIG    1        3.923  13.145   0.663  0.00  0.00    +0.000 C 
ATOM     32  C   LIG    1        4.570  12.672   1.966  0.00  0.00    +0.000 C 
ATOM     33  C   LIG    1        5.042  11.226   1.806  0.00  0.00    +0.030 C 
ENDBRANCH  27  28
ENDBRANCH  24  27
ENDBRANCH  22  23
ENDBRANCH  21  22
ENDBRANCH   6  21
TORSDOF 7
