REMARK  Name = ZINCrH000004sX0k.0
REMARK                            x       y       z     vdW  Elec       q    Type
REMARK                         _______ _______ _______ _____ _____    ______ ____
ROOT
ATOM      1  N   LIG    1       -0.721   1.571  -1.179  0.00  0.00    -0.740 N 
ATOM      2  H   LIG    1       -1.516   2.118  -1.079  0.00  0.00    +0.400 HD
ENDROOT
BRANCH   1   3
ATOM      3  C   LIG    1       -0.252   1.247  -2.454  0.00  0.00    +0.250 A 
ATOM      4  C   LIG    1        0.887   0.465  -2.598  0.00  0.00    -0.060 A 
ATOM      5  C   LIG    1        1.349   0.146  -3.860  0.00  0.00    +0.070 A 
ATOM      6  C   LIG    1        0.679   0.605  -4.979  0.00  0.00    -0.030 A 
ATOM      7  C   LIG    1       -0.455   1.383  -4.840  0.00  0.00    -0.080 A 
ATOM      8  C   LIG    1       -1.374   2.013  -5.862  0.00  0.00    +0.290 C 
ATOM      9  N   LIG    1       -2.132   3.054  -5.131  0.00  0.00    -0.420 N 
ATOM     10  C   LIG    1       -2.162   2.557  -3.736  0.00  0.00    +0.280 C 
ATOM     11  C   LIG    1       -0.925   1.702  -3.579  0.00  0.00    -0.210 A 
BRANCH   9  12
ATOM     12  C   LIG    1       -1.490   4.281  -5.207  0.00  0.00    +0.210 A 
ATOM     13  N   LIG    1       -2.000   5.355  -5.725  0.00  0.00    -0.450 NA
ATOM     14  C   LIG    1       -1.248   6.440  -5.710  0.00  0.00    +0.220 A 
ATOM     15  C   LIG    1       -0.043   6.273  -5.163  0.00  0.00    -0.070 A 
ATOM     16  S   LIG    1        0.091   4.597  -4.638  0.00  0.00    +0.080 S 
ENDBRANCH   9  12
ENDBRANCH   1   3
BRANCH   1  17
ATOM     17  C   LIG    1       -0.013   1.086   0.008  0.00  0.00    +0.320 C 
BRANCH  17  25
ATOM     18  C   LIG    1        0.051   5.474   3.525  0.00  0.00    +0.360 C 
ATOM     19  N   LIG    1       -0.888   4.370   3.741  0.00  0.00    -0.550 N 
ATOM     20  C   LIG    1       -1.790   4.275   4.739  0.00  0.00    +0.630 A 
ATOM     21  O   LIG    1       -2.473   3.127   4.615  0.00  0.00    -0.230 OA
ATOM     22  C   LIG    1       -2.022   2.455   3.528  0.00  0.00    +0.040 A 
ATOM     23  C   LIG    1       -2.372   1.243   2.953  0.00  0.00    +0.070 A 
ATOM     24  C   LIG    1       -1.720   0.806   1.817  0.00  0.00    +0.060 A 
ATOM     25  C   LIG    1       -0.718   1.572   1.248  0.00  0.00    -0.090 A 
ATOM     26  C   LIG    1       -0.358   2.779   1.817  0.00  0.00    +0.060 A 
ATOM     27  O   LIG    1       -1.958   5.102   5.615  0.00  0.00    -0.480 OA
ATOM     28  C   LIG    1       -1.012   3.227   2.954  0.00  0.00    +0.070 A 
ENDBRANCH  17  25
ENDBRANCH   1  17
TORSDOF 4
