REMARK  Name = ZINCnE000001TyDn.0
REMARK                            x       y       z     vdW  Elec       q    Type
REMARK                         _______ _______ _______ _____ _____    ______ ____
ROOT
ATOM      1  C   LIG    1       -3.343  -3.300  -0.512  0.00  0.00    -0.030 C 
ATOM      2  C   LIG    1       -3.750  -1.883  -0.101  0.00  0.00    +0.010 C 
ATOM      3  C   LIG    1       -2.580  -1.201   0.612  0.00  0.00    +0.010 C 
ATOM      4  C   LIG    1       -1.392  -1.105  -0.343  0.00  0.00    +0.260 C 
ATOM      5  N   LIG    1       -1.084  -2.445  -0.862  0.00  0.00    -0.600 N 
ATOM      6  C   LIG    1        0.161  -2.950  -0.762  0.00  0.00    +0.550 C 
ATOM      7  O   LIG    1        0.425  -4.017  -1.276  0.00  0.00    -0.530 OA
ATOM      8  C   LIG    1       -2.162  -3.225  -1.485  0.00  0.00    +0.280 C 
ENDROOT
BRANCH   6   9
ATOM      9  C   LIG    1        1.225  -2.191  -0.012  0.00  0.00    -0.120 C 
ATOM     10  C   LIG    1        2.670  -2.343  -0.490  0.00  0.00    +0.090 C 
ATOM     11  C   LIG    1        1.914  -1.036  -0.740  0.00  0.00    +0.060 C 
BRANCH   9  12
ATOM     12  C   LIG    1        0.994  -2.041   1.470  0.00  0.00    -0.030 A 
ATOM     13  C   LIG    1        0.288  -3.009   2.160  0.00  0.00    +0.030 A 
ATOM     14  C   LIG    1        0.076  -2.872   3.520  0.00  0.00    +0.040 A 
ATOM     15  C   LIG    1        0.568  -1.767   4.189  0.00  0.00    +0.020 A 
ATOM     16  C   LIG    1        1.274  -0.798   3.498  0.00  0.00    -0.030 A 
ATOM     17 CL   LIG    1        1.892   0.590   4.337  0.00  0.00    -0.070 Cl
ATOM     18  C   LIG    1        1.487  -0.936   2.138  0.00  0.00    +0.030 A 
ENDBRANCH   9  12
ENDBRANCH   6   9
BRANCH   1  19
ATOM     19  C   LIG    1       -4.524  -3.993  -1.195  0.00  0.00    +0.030 C 
BRANCH  19  20
ATOM     20  C   LIG    1       -5.659  -4.179  -0.186  0.00  0.00    -0.070 C 
BRANCH  20  22
ATOM     21  O   LIG    1       -6.750  -5.171  -2.036  0.00  0.00    -0.700 OA
ATOM     22  C   LIG    1       -6.822  -4.862  -0.858  0.00  0.00    +0.490 C 
ATOM     23  O   LIG    1       -7.835  -5.105  -0.225  0.00  0.00    -0.710 OA
ENDBRANCH  20  22
ENDBRANCH  19  20
ENDBRANCH   1  19
TORSDOF 5
