REMARK  Name = ZINCvU0000000J2z.0
REMARK                            x       y       z     vdW  Elec       q    Type
REMARK                         _______ _______ _______ _____ _____    ______ ____
ROOT
ATOM      1  C   LIG    1        5.809  -0.619  -1.534  0.00  0.00    +0.600 C 
ATOM      2  N   LIG    1        4.811   0.255  -1.296  0.00  0.00    -0.720 N 
ATOM      3  H   LIG    1        4.112   0.385  -1.956  0.00  0.00    +0.410 HD
ATOM      4  O   LIG    1        6.684  -0.782  -0.705  0.00  0.00    -0.520 OA
ENDROOT
BRANCH   1   8
ATOM      5  N   LIG    1        5.522  -2.941  -4.305  0.00  0.00    -0.340 N 
ATOM      6  N   LIG    1        6.274  -1.913  -4.886  0.00  0.00    -0.260 NA
ATOM      7  C   LIG    1        6.464  -0.975  -4.000  0.00  0.00    +0.120 A 
ATOM      8  C   LIG    1        5.840  -1.375  -2.797  0.00  0.00    -0.270 A 
ATOM      9  C   LIG    1        7.220   0.310  -4.221  0.00  0.00    +0.170 C 
ATOM     10  C   LIG    1        5.260  -2.609  -3.030  0.00  0.00    +0.170 A 
ATOM     11 CL   LIG    1        4.357  -3.553  -1.887  0.00  0.00    +0.010 Cl
BRANCH   5  12
ATOM     12  C   LIG    1        5.094  -4.171  -4.975  0.00  0.00    +0.400 C 
BRANCH  12  17
ATOM     13  C   LIG    1       -0.062  -3.328  -7.444  0.00  0.00    +0.090 C 
ATOM     14  C   LIG    1        1.282  -3.548  -6.800  0.00  0.00    -0.070 A 
ATOM     15  C   LIG    1        2.439  -3.289  -7.510  0.00  0.00    +0.010 A 
ATOM     16  C   LIG    1        3.673  -3.491  -6.920  0.00  0.00    +0.050 A 
ATOM     17  C   LIG    1        3.749  -3.951  -5.619  0.00  0.00    -0.130 A 
ATOM     18  C   LIG    1        2.592  -4.215  -4.910  0.00  0.00    +0.030 A 
ATOM     19  C   LIG    1        1.359  -4.008  -5.498  0.00  0.00    +0.010 A 
ENDBRANCH  12  17
ENDBRANCH   5  12
ENDBRANCH   1   8
BRANCH   2  20
ATOM     20  C   LIG    1        4.780   1.007  -0.039  0.00  0.00    +0.300 C 
BRANCH  20  21
ATOM     21  C   LIG    1        3.553   1.921  -0.022  0.00  0.00    +0.210 C 
BRANCH  21  22
ATOM     22  O   LIG    1        2.366   1.125  -0.015  0.00  0.00    -0.310 OA
BRANCH  22  23
ATOM     23  C   LIG    1        1.179   1.786   0.000  0.00  0.00    +0.160 A 
ATOM     24  C   LIG    1       -0.013   1.076   0.008  0.00  0.00    -0.010 A 
ATOM     25  C   LIG    1       -1.218   1.751   0.017  0.00  0.00    +0.110 A 
ATOM     26  C   LIG    1       -1.237   3.133   0.030  0.00  0.00    -0.220 A 
ATOM     27  C   LIG    1       -0.051   3.844   0.023  0.00  0.00    +0.110 A 
ATOM     28  C   LIG    1        1.157   3.174   0.008  0.00  0.00    -0.070 A 
BRANCH  26  29
ATOM     29  C   LIG    1       -2.553   3.867   0.046  0.00  0.00    +0.510 C 
ATOM     30  F   LIG    1       -2.398   5.088   0.711  0.00  0.00    -0.180 F 
ATOM     31  F   LIG    1       -3.511   3.093   0.711  0.00  0.00    -0.180 F 
ATOM     32  F   LIG    1       -2.973   4.101  -1.268  0.00  0.00    -0.180 F 
ENDBRANCH  26  29
ENDBRANCH  22  23
ENDBRANCH  21  22
ENDBRANCH  20  21
ENDBRANCH   2  20
TORSDOF 8
