REMARK  Name = ZINCrg000000t6At.0
REMARK                            x       y       z     vdW  Elec       q    Type
REMARK                         _______ _______ _______ _____ _____    ______ ____
ROOT
ATOM      1  C   LIG    1       -0.952   7.673   0.048  0.00  0.00    +0.540 C 
ATOM      2  N   LIG    1       -0.167   8.764   0.147  0.00  0.00    -0.580 N 
ATOM      3  O   LIG    1       -2.156   7.798  -0.033  0.00  0.00    -0.520 OA
ENDROOT
BRANCH   2   4
ATOM      4  C   LIG    1       -0.771  10.093   0.270  0.00  0.00    +0.270 C 
ATOM      5  C   LIG    1       -1.701  10.138   1.495  0.00  0.00    +0.080 C 
ATOM      6  C   LIG    1       -2.572  11.407   1.408  0.00  0.00    -0.310 C 
ATOM      7  S   LIG    1       -2.717  11.763  -0.380  0.00  0.00    +2.390 S 
ATOM      8  O   LIG    1       -4.056  11.535  -0.799  0.00  0.00    -0.930 OA
ATOM      9  O   LIG    1       -2.086  13.004  -0.666  0.00  0.00    -0.930 OA
ATOM     10  C   LIG    1       -1.655  10.391  -0.969  0.00  0.00    -0.310 C 
ENDBRANCH   2   4
BRANCH   2  11
ATOM     11  C   LIG    1        1.291   8.621   0.133  0.00  0.00    +0.220 C 
ATOM     12  C   LIG    1        1.884   9.123   1.466  0.00  0.00    +0.020 C 
ATOM     13  C   LIG    1        3.209   9.812   1.056  0.00  0.00    +0.020 C 
ATOM     14  C   LIG    1        2.836  10.504  -0.279  0.00  0.00    +0.010 C 
ATOM     15  C   LIG    1        1.896   9.499  -0.976  0.00  0.00    +0.020 C 
ENDBRANCH   2  11
BRANCH   1  16
ATOM     16  C   LIG    1       -0.335   6.298   0.037  0.00  0.00    +0.120 C 
BRANCH  16  17
ATOM     17  S   LIG    1       -1.644   5.049   0.044  0.00  0.00    +0.100 S 
BRANCH  17  19
ATOM     18  N   LIG    1       -1.131   2.298   0.023  0.00  0.00    -0.280 N 
ATOM     19  C   LIG    1       -0.668   3.582   0.029  0.00  0.00    +0.130 A 
ATOM     20  N   LIG    1        0.644   3.518   0.018  0.00  0.00    -0.270 NA
ATOM     21  N   LIG    1        1.020   2.289   0.010  0.00  0.00    -0.210 NA
ATOM     22  C   LIG    1       -0.019   1.503   0.016  0.00  0.00    +0.120 A 
BRANCH  22  23
ATOM     23  C   LIG    1        0.001  -0.004   0.009  0.00  0.00    +0.580 C 
ATOM     24  F   LIG    1       -0.344  -0.469  -1.265  0.00  0.00    -0.160 F 
ATOM     25  F   LIG    1       -0.917  -0.487   0.947  0.00  0.00    -0.160 F 
ATOM     26  F   LIG    1        1.284  -0.455   0.337  0.00  0.00    -0.150 F 
ENDBRANCH  22  23
BRANCH  18  27
ATOM     27  N   LIG    1       -2.436   1.892   0.026  0.00  0.00    -0.580 N 
ATOM     28  H   LIG    1       -3.015   2.533  -0.495  0.00  0.00    +0.390 HD
ATOM     29  H   LIG    1       -2.777   1.781   0.969  0.00  0.00    +0.380 HD
ENDBRANCH  18  27
ENDBRANCH  17  19
ENDBRANCH  16  17
ENDBRANCH   1  16
TORSDOF 7
