REMARK  Name = ZINCvU0000000GIw.0
REMARK                            x       y       z     vdW  Elec       q    Type
REMARK                         _______ _______ _______ _____ _____    ______ ____
ROOT
ATOM      1  C   LIG    1        3.203  -0.061  -3.421  0.00  0.00    +0.160 A 
ATOM      2  N   LIG    1        3.819   1.096  -3.341  0.00  0.00    -0.280 NA
ATOM      3  N   LIG    1        3.645   1.604  -2.173  0.00  0.00    -0.270 NA
ATOM      4  C   LIG    1        2.915   0.810  -1.442  0.00  0.00    +0.210 A 
ATOM      5  N   LIG    1        2.610  -0.283  -2.209  0.00  0.00    -0.410 N 
ENDROOT
BRANCH   5   6
ATOM      6  C   LIG    1        1.847  -1.397  -1.831  0.00  0.00    +0.100 A 
ATOM      7  C   LIG    1        2.305  -2.249  -0.835  0.00  0.00    +0.030 A 
ATOM      8  C   LIG    1        1.549  -3.343  -0.461  0.00  0.00    +0.040 A 
ATOM      9  C   LIG    1        0.342  -3.596  -1.085  0.00  0.00    +0.030 A 
ATOM     10  C   LIG    1       -0.116  -2.752  -2.081  0.00  0.00    +0.040 A 
ATOM     11  C   LIG    1        0.634  -1.654  -2.455  0.00  0.00    +0.030 A 
ENDBRANCH   5   6
BRANCH   1  12
ATOM     12  S   LIG    1        3.155  -1.127  -4.823  0.00  0.00    +0.050 S 
BRANCH  12  14
ATOM     13  C   LIG    1        5.586  -0.061  -5.469  0.00  0.00    +0.110 C 
ATOM     14  C   LIG    1        4.150  -0.162  -5.987  0.00  0.00    +0.160 C 
BRANCH  14  15
ATOM     15  C   LIG    1        4.148  -0.840  -7.333  0.00  0.00    +0.200 A 
ATOM     16  N   LIG    1        3.977  -0.260  -8.494  0.00  0.00    -0.440 NA
ATOM     17  C   LIG    1        4.053  -1.254  -9.411  0.00  0.00    +0.250 A 
ATOM     18  N   LIG    1        4.265  -2.368  -8.755  0.00  0.00    -0.350 NA
ATOM     19  O   LIG    1        4.327  -2.144  -7.564  0.00  0.00    +0.100 OA
BRANCH  17  20
ATOM     20  C   LIG    1        3.922  -1.109 -10.875  0.00  0.00    +0.040 A 
ATOM     21  C   LIG    1        4.000  -2.115 -11.787  0.00  0.00    +0.020 A 
ATOM     22  C   LIG    1        3.818  -1.529 -13.054  0.00  0.00    -0.060 A 
ATOM     23  C   LIG    1        3.639  -0.207 -12.856  0.00  0.00    +0.220 A 
ATOM     24  O   LIG    1        3.697   0.042 -11.539  0.00  0.00    -0.150 OA
ENDBRANCH  17  20
ENDBRANCH  14  15
ENDBRANCH  12  14
ENDBRANCH   1  12
BRANCH   4  25
ATOM     25  C   LIG    1        2.490   1.048  -0.016  0.00  0.00    +0.220 C 
BRANCH  25  26
ATOM     26  C   LIG    1        1.175   1.783   0.000  0.00  0.00    -0.090 A 
ATOM     27  C   LIG    1       -0.013   1.076   0.008  0.00  0.00    +0.010 A 
ATOM     28  C   LIG    1       -1.219   1.751   0.017  0.00  0.00    +0.000 A 
ATOM     29  C   LIG    1       -1.238   3.133   0.030  0.00  0.00    +0.010 A 
ATOM     30  C   LIG    1       -0.050   3.840   0.022  0.00  0.00    +0.010 A 
ATOM     31  C   LIG    1        1.156   3.165   0.008  0.00  0.00    +0.030 A 
ENDBRANCH  25  26
ENDBRANCH   4  25
TORSDOF 7
