REMARK  Name = ZINCpe000000TOwB.0
REMARK                            x       y       z     vdW  Elec       q    Type
REMARK                         _______ _______ _______ _____ _____    ______ ____
ROOT
ATOM      1  N   LIG    1       -0.016   1.344   0.009  0.00  0.00    -0.620 N 
ATOM      2  H   LIG    1        0.817   1.840   0.004  0.00  0.00    +0.430 HD
ATOM      3  C   LIG    1        0.002  -0.004   0.002  0.00  0.00    +0.470 C 
ATOM      4  O   LIG    1       -1.040  -0.625   0.009  0.00  0.00    -0.500 OA
ENDROOT
BRANCH   1   6
ATOM      5  C   LIG    1       -1.356   3.386   0.032  0.00  0.00    -0.230 A 
ATOM      6  C   LIG    1       -1.226   2.020   0.019  0.00  0.00    +0.080 A 
ATOM      7  S   LIG    1       -2.756   1.270   0.023  0.00  0.00    +0.310 S 
ATOM      8  C   LIG    1       -3.598   2.809   0.035  0.00  0.00    -0.120 A 
ATOM      9  C   LIG    1       -2.737   3.817   0.035  0.00  0.00    +0.080 A 
BRANCH   5  10
ATOM     10  C   LIG    1       -0.219   4.308   0.039  0.00  0.00    +0.540 C 
ATOM     11  O   LIG    1        0.917   3.873   0.032  0.00  0.00    -0.530 OA
BRANCH  10  12
ATOM     12  O   LIG    1       -0.431   5.640   0.052  0.00  0.00    -0.350 OA
BRANCH  12  14
ATOM     13  C   LIG    1        0.307   7.961   0.073  0.00  0.00    +0.070 C 
ATOM     14  C   LIG    1        0.743   6.495   0.058  0.00  0.00    +0.200 C 
ENDBRANCH  12  14
ENDBRANCH  10  12
ENDBRANCH   5  10
ENDBRANCH   1   6
BRANCH   3  15
ATOM     15  C   LIG    1        1.317  -0.740  -0.015  0.00  0.00    +0.280 C 
BRANCH  15  16
ATOM     16  N   LIG    1        1.068  -2.188  -0.020  0.00  0.00    -0.510 NA
ATOM     17  C   LIG    1        0.421  -2.603  -1.264  0.00  0.00    +0.170 C 
ATOM     18  C   LIG    1        0.767  -3.969  -1.703  0.00  0.00    +0.020 C 
ATOM     19  C   LIG    1        0.297  -4.995  -0.642  0.00  0.00    +0.290 C 
ATOM     20  N   LIG    1        1.107  -4.863   0.550  0.00  0.00    -0.980 NA
ATOM     21  C   LIG    1        0.767  -3.942   1.654  0.00  0.00    +0.290 C 
ATOM     22  C   LIG    1        0.275  -2.582   1.125  0.00  0.00    +0.190 C 
BRANCH  20  23
ATOM     23  S   LIG    1        2.476  -5.786   0.683  0.00  0.00    +2.610 S 
ATOM     24  O   LIG    1        2.212  -6.923  -0.128  0.00  0.00    -0.960 OA
ATOM     25  O   LIG    1        2.677  -5.916   2.083  0.00  0.00    -0.960 OA
ATOM     26  C   LIG    1        3.783  -4.767  -0.056  0.00  0.00    -0.290 C 
ENDBRANCH  20  23
ENDBRANCH  15  16
ENDBRANCH   3  15
TORSDOF 7
