REMARK  Name = ZINCqH0000007tbh.0
REMARK                            x       y       z     vdW  Elec       q    Type
REMARK                         _______ _______ _______ _____ _____    ______ ____
ROOT
ATOM      1  N   LIG    1       -2.920   0.119  -0.445  0.00  0.00    -0.720 N 
ATOM      2  H   LIG    1       -3.771   0.445  -0.111  0.00  0.00    +0.400 HD
ATOM      3  C   LIG    1       -2.418  -1.045   0.012  0.00  0.00    +0.570 C 
ATOM      4  O   LIG    1       -1.352  -1.454  -0.405  0.00  0.00    -0.530 OA
ENDROOT
BRANCH   3   5
ATOM      5  C   LIG    1       -3.164  -1.825   1.020  0.00  0.00    -0.150 A 
ATOM      6  C   LIG    1       -4.390  -1.350   1.504  0.00  0.00    +0.060 A 
ATOM      7  C   LIG    1       -5.091  -2.064   2.432  0.00  0.00    +0.020 A 
ATOM      8  C   LIG    1       -4.587  -3.267   2.914  0.00  0.00    +0.070 A 
ATOM      9  C   LIG    1       -3.355  -3.757   2.442  0.00  0.00    +0.040 A 
ATOM     10  N   LIG    1       -3.125  -4.933   3.083  0.00  0.00    -0.480 NA
ATOM     11  C   LIG    1       -4.110  -5.187   3.894  0.00  0.00    +0.280 A 
ATOM     12  C   LIG    1       -4.210  -6.404   4.776  0.00  0.00    +0.190 C 
ATOM     13  N   LIG    1       -5.038  -4.193   3.829  0.00  0.00    -0.490 N 
ATOM     14  C   LIG    1       -6.287  -4.122   4.592  0.00  0.00    +0.330 C 
ATOM     15  C   LIG    1       -2.645  -3.027   1.491  0.00  0.00    +0.160 A 
ENDBRANCH   3   5
BRANCH   1  16
ATOM     16  C   LIG    1       -2.180   0.893  -1.445  0.00  0.00    +0.320 C 
BRANCH  16  20
ATOM     17  C   LIG    1       -4.902   3.339  -3.652  0.00  0.00    +0.130 A 
ATOM     18  C   LIG    1       -3.856   2.701  -4.303  0.00  0.00    -0.020 A 
ATOM     19  C   LIG    1       -2.977   1.911  -3.587  0.00  0.00    +0.070 A 
ATOM     20  C   LIG    1       -3.139   1.756  -2.223  0.00  0.00    -0.130 A 
ATOM     21  C   LIG    1       -4.184   2.386  -1.573  0.00  0.00    +0.050 A 
ATOM     22  C   LIG    1       -5.062   3.182  -2.283  0.00  0.00    -0.070 A 
BRANCH  17  24
ATOM     23  C   LIG    1       -6.820   4.742  -3.618  0.00  0.00    +0.250 C 
ATOM     24  O   LIG    1       -5.767   4.116  -4.354  0.00  0.00    -0.320 OA
ENDBRANCH  17  24
ENDBRANCH  16  20
BRANCH  16  25
ATOM     25  C   LIG    1       -1.150   1.781  -0.743  0.00  0.00    -0.060 C 
ATOM     26  C   LIG    1       -0.013   1.086   0.008  0.00  0.00    +0.030 C 
ATOM     27  C   LIG    1       -1.136   1.773   0.788  0.00  0.00    +0.000 C 
ENDBRANCH  16  25
ENDBRANCH   1  16
TORSDOF 5
