REMARK  Name = ZINCvU0000000Ih2.0
REMARK                            x       y       z     vdW  Elec       q    Type
REMARK                         _______ _______ _______ _____ _____    ______ ____
ROOT
ATOM      1  O   LIG    1        1.534  -0.554  -1.190  0.00  0.00    -0.460 OA
ATOM      2  C   LIG    1        2.524  -0.027  -0.727  0.00  0.00    +0.490 C 
ATOM      3  N   LIG    1        2.426   1.168  -0.112  0.00  0.00    -0.510 N 
ATOM      4  C   LIG    1        1.203   1.850  -0.132  0.00  0.00    +0.140 A 
ATOM      5  C   LIG    1        0.011   1.150  -0.026  0.00  0.00    +0.050 A 
ATOM      6  C   LIG    1       -1.194   1.829  -0.045  0.00  0.00    +0.050 A 
ATOM      7  C   LIG    1       -1.219   3.207  -0.157  0.00  0.00    +0.030 A 
ATOM      8  C   LIG    1       -0.035   3.916  -0.264  0.00  0.00    +0.070 A 
ATOM      9  C   LIG    1        1.173   3.241  -0.254  0.00  0.00    -0.130 A 
ATOM     10  S   LIG    1        2.695   4.123  -0.398  0.00  0.00    +0.020 S 
ATOM     11  C   LIG    1        3.804   3.074   0.488  0.00  0.00    -0.130 A 
ATOM     12  C   LIG    1        4.911   3.600   1.130  0.00  0.00    +0.080 A 
ATOM     13  C   LIG    1        5.770   2.761   1.818  0.00  0.00    +0.030 A 
ATOM     14  C   LIG    1        5.524   1.402   1.862  0.00  0.00    +0.060 A 
ATOM     15  C   LIG    1        4.418   0.870   1.223  0.00  0.00    -0.010 A 
ATOM     16  C   LIG    1        3.550   1.701   0.532  0.00  0.00    +0.140 A 
ENDROOT
BRANCH   2  17
ATOM     17  C   LIG    1        3.863  -0.709  -0.840  0.00  0.00    +0.380 C 
BRANCH  17  18
ATOM     18  N   LIG    1        3.758  -1.842  -1.762  0.00  0.00    -0.910 N 
ATOM     19  C   LIG    1        3.871  -1.808  -3.161  0.00  0.00    +0.140 A 
ATOM     20  C   LIG    1        4.106  -0.703  -3.976  0.00  0.00    +0.020 A 
ATOM     21  C   LIG    1        4.191  -0.842  -5.356  0.00  0.00    +0.050 A 
ATOM     22  C   LIG    1        4.052  -2.046  -5.980  0.00  0.00    +0.030 A 
ATOM     23  C   LIG    1        3.813  -3.190  -5.200  0.00  0.00    -0.030 A 
ATOM     24  C   LIG    1        3.655  -4.474  -5.745  0.00  0.00    +0.090 A 
ATOM     25  C   LIG    1        3.425  -5.536  -4.920  0.00  0.00    +0.000 A 
ATOM     26  C   LIG    1        3.343  -5.375  -3.532  0.00  0.00    +0.190 A 
ATOM     27  C   LIG    1        3.492  -4.152  -2.988  0.00  0.00    -0.640 A 
ATOM     28  C   LIG    1        3.729  -3.039  -3.800  0.00  0.00    -0.070 A 
ATOM     29  S   LIG    1        3.484  -3.447  -1.365  0.00  0.00    +2.670 S 
ATOM     30  O   LIG    1        2.159  -3.546  -0.862  0.00  0.00    -0.920 OA
ATOM     31  O   LIG    1        4.636  -3.923  -0.682  0.00  0.00    -0.930 OA
ENDBRANCH  17  18
ENDBRANCH   2  17
TORSDOF 2
