REMARK  Name = ZINCpk00000xI8ir.0
REMARK                            x       y       z     vdW  Elec       q    Type
REMARK                         _______ _______ _______ _____ _____    ______ ____
ROOT
ATOM      1  C   LIG    1       -0.014   1.208   0.009  0.00  0.00    +0.500 C 
ATOM      2  N   LIG    1       -1.191   1.866   0.018  0.00  0.00    -0.690 N 
ATOM      3  H   LIG    1       -1.204   2.836   0.023  0.00  0.00    +0.410 HD
ATOM      4  C   LIG    1       -2.349   1.176   0.020  0.00  0.00    +0.700 C 
ATOM      5  N   LIG    1       -3.525   1.834   0.029  0.00  0.00    -0.740 N 
ATOM      6  H   LIG    1       -3.538   2.804   0.034  0.00  0.00    +0.400 HD
ATOM      7  O   LIG    1       -2.332  -0.039   0.013  0.00  0.00    -0.520 OA
ATOM      8  O   LIG    1        0.002  -0.004   0.002  0.00  0.00    -0.440 OA
ENDROOT
BRANCH   1   9
ATOM      9  C   LIG    1        1.280   1.979   0.001  0.00  0.00    +0.380 C 
BRANCH   9  12
ATOM     10  N   LIG    1        4.000  -0.284  -0.755  0.00  0.00    -0.540 N 
ATOM     11  C   LIG    1        3.002   0.545  -1.115  0.00  0.00    +0.690 A 
ATOM     12  N   LIG    1        2.407   1.043  -0.015  0.00  0.00    -0.530 N 
ATOM     13  C   LIG    1        3.048   0.520   1.105  0.00  0.00    +0.090 A 
ATOM     14  C   LIG    1        2.864   0.684   2.469  0.00  0.00    +0.030 A 
ATOM     15  C   LIG    1        3.681   0.013   3.359  0.00  0.00    +0.020 A 
ATOM     16  C   LIG    1        4.681  -0.823   2.894  0.00  0.00    +0.020 A 
ATOM     17  C   LIG    1        4.866  -1.000   1.536  0.00  0.00    +0.030 A 
ATOM     18  O   LIG    1        2.686   0.805  -2.262  0.00  0.00    -0.550 OA
ATOM     19  C   LIG    1        4.055  -0.327   0.636  0.00  0.00    +0.100 A 
BRANCH  10  21
ATOM     20  C   LIG    1        6.107  -0.162  -1.992  0.00  0.00    +0.030 C 
ATOM     21  C   LIG    1        4.879  -1.016  -1.671  0.00  0.00    +0.310 C 
ENDBRANCH  10  21
ENDBRANCH   9  12
ENDBRANCH   1   9
BRANCH   5  22
ATOM     22  C   LIG    1       -4.783   1.085   0.031  0.00  0.00    +0.410 C 
BRANCH  22  23
ATOM     23  C   LIG    1       -5.942   2.048   0.041  0.00  0.00    -0.050 A 
ATOM     24  C   LIG    1       -6.552   2.557  -1.044  0.00  0.00    -0.030 A 
ATOM     25  C   LIG    1       -7.578   3.410  -0.576  0.00  0.00    -0.070 A 
ATOM     26  C   LIG    1       -7.533   3.371   0.768  0.00  0.00    +0.190 A 
ATOM     27  O   LIG    1       -6.544   2.540   1.136  0.00  0.00    -0.170 OA
ENDBRANCH  22  23
ENDBRANCH   5  22
TORSDOF 5
