REMARK  Name = ZINCpe000000XMhf.0
REMARK                            x       y       z     vdW  Elec       q    Type
REMARK                         _______ _______ _______ _____ _____    ______ ____
ROOT
ATOM      1  C   LIG    1       -0.742   1.585  -1.213  0.00  0.00    +0.520 C 
ATOM      2  N   LIG    1       -0.288   1.272  -2.443  0.00  0.00    -0.620 N 
ATOM      3  C   LIG    1        0.919   0.450  -2.619  0.00  0.00    +0.250 C 
ATOM      4  C   LIG    1        1.856   1.162  -3.596  0.00  0.00    +0.220 C 
ATOM      5  O   LIG    1        1.135   1.494  -4.785  0.00  0.00    -0.370 OA
ATOM      6  C   LIG    1        0.049   2.401  -4.576  0.00  0.00    +0.140 C 
ATOM      7  C   LIG    1       -0.983   1.748  -3.650  0.00  0.00    +0.280 C 
ATOM      8  O   LIG    1       -1.736   2.268  -1.088  0.00  0.00    -0.520 OA
ENDROOT
BRANCH   1   9
ATOM      9  C   LIG    1       -0.013   1.086   0.008  0.00  0.00    +0.100 C 
BRANCH   9  14
ATOM     10  C   LIG    1       -2.717   2.949   4.763  0.00  0.00    +0.090 C 
ATOM     11  C   LIG    1       -2.012   2.463   3.523  0.00  0.00    -0.080 A 
ATOM     12  C   LIG    1       -2.366   1.254   2.955  0.00  0.00    +0.010 A 
ATOM     13  C   LIG    1       -1.719   0.808   1.818  0.00  0.00    +0.010 A 
ATOM     14  C   LIG    1       -0.718   1.572   1.248  0.00  0.00    -0.070 A 
ATOM     15  C   LIG    1       -0.360   2.779   1.819  0.00  0.00    +0.020 A 
ATOM     16  C   LIG    1       -1.010   3.227   2.954  0.00  0.00    -0.080 A 
ATOM     17  C   LIG    1       -0.622   4.545   3.573  0.00  0.00    +0.090 C 
ENDBRANCH   9  14
ENDBRANCH   1   9
BRANCH   6  18
ATOM     18  C   LIG    1       -0.606   2.732  -5.919  0.00  0.00    +0.370 C 
BRANCH  18  19
ATOM     19  N   LIG    1        0.345   3.462  -6.760  0.00  0.00    -0.290 N 
ATOM     20  C   LIG    1        0.733   3.111  -8.008  0.00  0.00    +0.180 A 
ATOM     21  C   LIG    1        1.612   4.058  -8.410  0.00  0.00    -0.030 A 
ATOM     22  N   LIG    1        1.724   4.927  -7.399  0.00  0.00    -0.260 NA
ATOM     23  N   LIG    1        0.961   4.545  -6.436  0.00  0.00    -0.080 NA
BRANCH  21  24
ATOM     24  C   LIG    1        2.328   4.119  -9.735  0.00  0.00    +0.310 C 
BRANCH  24  25
ATOM     25  O   LIG    1        1.935   3.006 -10.540  0.00  0.00    -0.570 OA
ATOM     26  H   LIG    1        2.358   2.981 -11.410  0.00  0.00    +0.390 HD
ENDBRANCH  24  25
ENDBRANCH  21  24
ENDBRANCH  18  19
ENDBRANCH   6  18
TORSDOF 6
