REMARK  Name = ZINCrH000004oTcr.0
REMARK                            x       y       z     vdW  Elec       q    Type
REMARK                         _______ _______ _______ _____ _____    ______ ____
ROOT
ATOM      1  C   LIG    1        3.854   1.745   2.094  0.00  0.00    +0.520 C 
ATOM      2  N   LIG    1        3.102   0.792   1.509  0.00  0.00    -0.610 N 
ATOM      3  C   LIG    1        2.978  -0.529   2.131  0.00  0.00    +0.280 C 
ATOM      4  O   LIG    1        3.904   2.857   1.614  0.00  0.00    -0.480 OA
ENDROOT
BRANCH   1  15
ATOM      5  C   LIG    1        5.849  -0.415   2.154  0.00  0.00    +0.090 C 
ATOM      6  C   LIG    1        6.015   0.873   2.964  0.00  0.00    +0.160 C 
ATOM      7  O   LIG    1        6.734   0.595   4.170  0.00  0.00    -0.300 OA
ATOM      8  C   LIG    1        6.710   1.558   5.132  0.00  0.00    +0.050 A 
ATOM      9  C   LIG    1        7.649   1.526   6.152  0.00  0.00    +0.030 A 
ATOM     10  C   LIG    1        7.633   2.493   7.139  0.00  0.00    +0.020 A 
ATOM     11  C   LIG    1        6.681   3.495   7.112  0.00  0.00    +0.020 A 
ATOM     12  C   LIG    1        5.743   3.534   6.098  0.00  0.00    +0.030 A 
ATOM     13  C   LIG    1        5.754   2.568   5.104  0.00  0.00    +0.050 A 
ATOM     14  O   LIG    1        4.827   2.621   4.109  0.00  0.00    -0.280 OA
ATOM     15  C   LIG    1        4.635   1.427   3.343  0.00  0.00    +0.140 C 
ENDBRANCH   1  15
BRANCH   2  16
ATOM     16  C   LIG    1        2.406   1.077   0.251  0.00  0.00    +0.360 C 
BRANCH  16  17
ATOM     17  C   LIG    1        1.034   1.624   0.549  0.00  0.00    -0.120 A 
ATOM     18  C   LIG    1       -0.070   0.797   0.475  0.00  0.00    +0.070 A 
ATOM     19  C   LIG    1       -1.331   1.300   0.743  0.00  0.00    -0.010 A 
ATOM     20  C   LIG    1       -1.487   2.627   1.095  0.00  0.00    +0.060 A 
ATOM     21  C   LIG    1       -0.386   3.458   1.170  0.00  0.00    -0.070 A 
ATOM     22  C   LIG    1        0.879   2.958   0.897  0.00  0.00    +0.130 A 
BRANCH  22  23
ATOM     23  O   LIG    1        1.964   3.773   0.969  0.00  0.00    -0.270 OA
BRANCH  23  24
ATOM     24  C   LIG    1        1.729   5.135   1.333  0.00  0.00    +0.600 C 
ATOM     25  F   LIG    1        0.875   5.728   0.397  0.00  0.00    -0.170 F 
ATOM     26  F   LIG    1        2.944   5.827   1.360  0.00  0.00    -0.130 F 
ATOM     27  F   LIG    1        1.137   5.183   2.600  0.00  0.00    -0.170 F 
ENDBRANCH  23  24
ENDBRANCH  22  23
ENDBRANCH  16  17
ENDBRANCH   2  16
TORSDOF 5
