REMARK  Name = ZINCtV000002MjuD.0
REMARK                            x       y       z     vdW  Elec       q    Type
REMARK                         _______ _______ _______ _____ _____    ______ ____
ROOT
ATOM      1  O   LIG    1        2.021   7.552   0.225  0.00  0.00    -0.490 OA
ATOM      2  C   LIG    1        1.144   8.382   0.347  0.00  0.00    +0.520 C 
ATOM      3  N   LIG    1       -0.139   7.991   0.480  0.00  0.00    -0.670 N 
ATOM      4  H   LIG    1       -0.832   8.649   0.644  0.00  0.00    +0.410 HD
ENDROOT
BRANCH   3   5
ATOM      5  C   LIG    1       -0.472   6.633   0.380  0.00  0.00    +0.140 A 
ATOM      6  C   LIG    1       -1.676   6.255  -0.199  0.00  0.00    +0.010 A 
ATOM      7  C   LIG    1       -2.005   4.918  -0.298  0.00  0.00    +0.050 A 
ATOM      8  C   LIG    1       -1.130   3.951   0.182  0.00  0.00    -0.110 A 
ATOM      9  C   LIG    1        0.072   4.330   0.766  0.00  0.00    +0.030 A 
ATOM     10  C   LIG    1        0.402   5.667   0.860  0.00  0.00    +0.040 A 
BRANCH   8  11
ATOM     11  S   LIG    1       -1.549   2.244   0.056  0.00  0.00    +0.000 S 
BRANCH  11  12
ATOM     12  C   LIG    1       -0.232   1.448   0.915  0.00  0.00    -0.130 A 
ATOM     13  C   LIG    1        0.863   0.959   0.213  0.00  0.00    +0.080 A 
ATOM     14  C   LIG    1        1.889   0.330   0.889  0.00  0.00    +0.040 A 
ATOM     15  C   LIG    1        1.830   0.188   2.264  0.00  0.00    -0.060 A 
ATOM     16  C   LIG    1        0.741   0.675   2.966  0.00  0.00    +0.040 A 
ATOM     17 BR   LIG    1        3.239  -0.673   3.185  0.00  0.00    -0.040 Br
ATOM     18  C   LIG    1       -0.289   1.304   2.296  0.00  0.00    +0.080 A 
ENDBRANCH  11  12
ENDBRANCH   8  11
ENDBRANCH   3   5
BRANCH   2  19
ATOM     19  C   LIG    1        1.489   9.848   0.351  0.00  0.00    +0.240 C 
BRANCH  19  20
ATOM     20  O   LIG    1        2.901  10.006   0.197  0.00  0.00    -0.290 OA
BRANCH  20  21
ATOM     21  C   LIG    1        3.382  11.277   0.180  0.00  0.00    +0.130 A 
ATOM     22  C   LIG    1        4.724  11.488   0.036  0.00  0.00    -0.010 A 
ATOM     23  C   LIG    1        5.222  12.801   0.018  0.00  0.00    -0.010 A 
ATOM     24  C   LIG    1        6.596  13.057  -0.129  0.00  0.00    +0.020 A 
ATOM     25  C   LIG    1        7.044  14.343  -0.142  0.00  0.00    +0.030 A 
ATOM     26  C   LIG    1        6.159  15.412  -0.012  0.00  0.00    -0.010 A 
ATOM     27  C   LIG    1        4.822  15.201   0.133  0.00  0.00    +0.030 A 
ATOM     28  C   LIG    1        4.322  13.889   0.150  0.00  0.00    -0.080 A 
ATOM     29  C   LIG    1        2.947  13.634   0.297  0.00  0.00    +0.070 A 
ATOM     30  C   LIG    1        2.496  12.351   0.305  0.00  0.00    -0.060 A 
ENDBRANCH  20  21
ENDBRANCH  19  20
ENDBRANCH   2  19
TORSDOF 6
