REMARK  Name = ZINCrD0000071RSk.0
REMARK                            x       y       z     vdW  Elec       q    Type
REMARK                         _______ _______ _______ _____ _____    ______ ____
ROOT
ATOM      1  N   LIG    1        0.074  -0.193   1.565  0.00  0.00    -0.590 N 
ATOM      2  C   LIG    1        1.232  -0.639   2.091  0.00  0.00    +0.580 C 
ATOM      3  O   LIG    1        2.254  -0.596   1.435  0.00  0.00    -0.510 OA
ENDROOT
BRANCH   2   4
ATOM      4  C   LIG    1        1.258  -1.180   3.466  0.00  0.00    -0.210 A 
ATOM      5  C   LIG    1        0.090  -1.673   4.058  0.00  0.00    +0.340 A 
ATOM      6  N   LIG    1        0.092  -2.165   5.277  0.00  0.00    -0.450 NA
ATOM      7  C   LIG    1        1.192  -2.207   6.010  0.00  0.00    +0.230 A 
ATOM      8  O   LIG    1        1.494  -2.632   7.249  0.00  0.00    +0.090 OA
ATOM      9  N   LIG    1        2.659  -2.480   7.532  0.00  0.00    -0.310 NA
ATOM     10  C   LIG    1        3.359  -1.942   6.577  0.00  0.00    +0.070 A 
ATOM     11  C   LIG    1        4.830  -1.615   6.593  0.00  0.00    +0.190 C 
ATOM     12  C   LIG    1        2.409  -1.721   5.482  0.00  0.00    -0.220 A 
ATOM     13  C   LIG    1        2.451  -1.201   4.198  0.00  0.00    +0.230 A 
ENDBRANCH   2   4
BRANCH   1  14
ATOM     14  C   LIG    1       -1.150  -0.208   2.369  0.00  0.00    +0.350 C 
BRANCH  14  15
ATOM     15  C   LIG    1       -1.986  -1.404   1.991  0.00  0.00    +0.430 C 
ATOM     16  O   LIG    1       -1.598  -2.166   1.137  0.00  0.00    -0.480 OA
BRANCH  15  17
ATOM     17  O   LIG    1       -3.160  -1.623   2.603  0.00  0.00    -0.350 OA
BRANCH  17  19
ATOM     18  C   LIG    1       -5.212  -2.877   2.990  0.00  0.00    +0.060 C 
ATOM     19  C   LIG    1       -3.911  -2.795   2.188  0.00  0.00    +0.200 C 
ENDBRANCH  17  19
ENDBRANCH  15  17
ENDBRANCH  14  15
ENDBRANCH   1  14
BRANCH   1  20
ATOM     20  C   LIG    1        0.040   0.306   0.188  0.00  0.00    +0.360 C 
BRANCH  20  21
ATOM     21  C   LIG    1        0.319   1.786   0.183  0.00  0.00    -0.110 A 
ATOM     22  C   LIG    1       -0.725   2.687   0.284  0.00  0.00    +0.040 A 
ATOM     23  C   LIG    1       -0.469   4.045   0.285  0.00  0.00    +0.030 A 
ATOM     24  C   LIG    1        0.832   4.503   0.173  0.00  0.00    -0.030 A 
ATOM     25  C   LIG    1        1.876   3.602   0.066  0.00  0.00    +0.030 A 
ATOM     26 CL   LIG    1        1.154   6.209   0.166  0.00  0.00    -0.070 Cl
ATOM     27  C   LIG    1        1.619   2.244   0.071  0.00  0.00    +0.060 A 
ENDBRANCH  20  21
ENDBRANCH   1  20
TORSDOF 7
