REMARK  Name = ZINCrH000004m3Ci.0
REMARK                            x       y       z     vdW  Elec       q    Type
REMARK                         _______ _______ _______ _____ _____    ______ ____
ROOT
ATOM      1  C   LIG    1       -0.718   1.572   1.248  0.00  0.00    +0.530 C 
ATOM      2  N   LIG    1       -0.242   1.246   2.466  0.00  0.00    -0.620 N 
ATOM      3  C   LIG    1        0.955   0.425   2.729  0.00  0.00    +0.240 C 
ATOM      4  C   LIG    1        0.730  -0.160   4.145  0.00  0.00    +0.040 C 
ATOM      5  C   LIG    1        0.037   1.026   4.867  0.00  0.00    +0.050 C 
ATOM      6  C   LIG    1       -0.825   1.655   3.752  0.00  0.00    +0.270 C 
ATOM      7  O   LIG    1       -1.714   2.256   1.150  0.00  0.00    -0.510 OA
ENDROOT
BRANCH   6   8
ATOM      8  C   LIG    1       -0.803   3.158   3.869  0.00  0.00    -0.100 A 
ATOM      9  C   LIG    1        0.298   3.869   3.429  0.00  0.00    +0.050 A 
ATOM     10  C   LIG    1        0.317   5.247   3.532  0.00  0.00    -0.020 A 
ATOM     11  C   LIG    1       -0.762   5.914   4.087  0.00  0.00    +0.100 A 
ATOM     12  C   LIG    1       -1.861   5.200   4.533  0.00  0.00    -0.010 A 
ATOM     13  F   LIG    1       -0.742   7.261   4.192  0.00  0.00    -0.140 F 
ATOM     14  C   LIG    1       -1.880   3.823   4.424  0.00  0.00    +0.060 A 
ENDBRANCH   6   8
BRANCH   1  15
ATOM     15  C   LIG    1       -0.013   1.086   0.008  0.00  0.00    +0.120 C 
BRANCH  15  18
ATOM     16  C   LIG    1       -1.064   3.264  -2.896  0.00  0.00    +0.150 A 
ATOM     17  C   LIG    1       -0.397   2.801  -1.772  0.00  0.00    -0.090 A 
ATOM     18  C   LIG    1       -0.742   1.585  -1.213  0.00  0.00    +0.010 A 
ATOM     19  C   LIG    1       -1.750   0.823  -1.774  0.00  0.00    -0.090 A 
ATOM     20  C   LIG    1       -2.426   1.282  -2.893  0.00  0.00    +0.150 A 
ATOM     21  C   LIG    1       -2.082   2.503  -3.459  0.00  0.00    +0.030 A 
BRANCH  16  23
ATOM     22  C   LIG    1        0.332   5.187  -2.815  0.00  0.00    +0.240 C 
ATOM     23  O   LIG    1       -0.724   4.460  -3.446  0.00  0.00    -0.300 OA
ENDBRANCH  16  23
BRANCH  20  24
ATOM     24  O   LIG    1       -3.422   0.534  -3.441  0.00  0.00    -0.300 OA
ATOM     25  C   LIG    1       -3.722  -0.711  -2.807  0.00  0.00    +0.240 C 
ENDBRANCH  20  24
BRANCH  21  26
ATOM     26  O   LIG    1       -2.740   2.954  -4.562  0.00  0.00    -0.310 OA
ATOM     27  C   LIG    1       -2.203   2.583  -5.834  0.00  0.00    +0.210 C 
ENDBRANCH  21  26
ENDBRANCH  15  18
ENDBRANCH   1  15
TORSDOF 6
