REMARK  Name = ZINCpe000000TAEX.0
REMARK                            x       y       z     vdW  Elec       q    Type
REMARK                         _______ _______ _______ _____ _____    ______ ____
ROOT
ATOM      1  N   LIG    1       -9.255   2.183   5.717  0.00  0.00    -0.750 N 
ATOM      2  H   LIG    1       -8.375   2.592   5.700  0.00  0.00    +0.390 HD
ATOM      3  C   LIG    1       -9.621   1.332   4.738  0.00  0.00    +0.710 C 
ATOM      4  N   LIG    1       -8.806   1.126   3.685  0.00  0.00    -0.630 N 
ATOM      5  C   LIG    1       -9.241   0.293   2.555  0.00  0.00    +0.300 C 
ATOM      6  C   LIG    1       -8.208  -0.820   2.341  0.00  0.00    +0.290 C 
ATOM      7  N   LIG    1       -6.869  -0.217   2.301  0.00  0.00    -0.610 N 
ATOM      8  C   LIG    1       -6.432   0.612   3.434  0.00  0.00    +0.270 C 
ATOM      9  C   LIG    1       -6.054  -0.424   1.248  0.00  0.00    +0.600 C 
ATOM     10  O   LIG    1       -6.458  -1.034   0.277  0.00  0.00    -0.520 OA
ATOM     11  C   LIG    1       -7.467   1.730   3.646  0.00  0.00    +0.270 C 
ATOM     12  O   LIG    1      -10.687   0.751   4.806  0.00  0.00    -0.580 OA
ENDROOT
BRANCH   9  13
ATOM     13  C   LIG    1       -4.675   0.088   1.274  0.00  0.00    -0.320 A 
ATOM     14  C   LIG    1       -3.692  -0.539   2.033  0.00  0.00    +0.230 A 
ATOM     15  N   LIG    1       -2.455  -0.052   2.035  0.00  0.00    -0.530 NA
ATOM     16  C   LIG    1       -2.131   1.007   1.338  0.00  0.00    +0.430 A 
ATOM     17  N   LIG    1       -3.029   1.668   0.586  0.00  0.00    -0.620 N 
ATOM     18  H   LIG    1       -2.756   2.453   0.085  0.00  0.00    +0.420 HD
ATOM     19  C   LIG    1       -4.029  -1.762   2.848  0.00  0.00    +0.150 C 
ATOM     20  C   LIG    1       -4.308   1.240   0.521  0.00  0.00    +0.540 A 
ATOM     21  O   LIG    1       -5.129   1.828  -0.160  0.00  0.00    -0.520 OA
BRANCH  16  22
ATOM     22  C   LIG    1       -0.710   1.506   1.386  0.00  0.00    -0.030 C 
ATOM     23  C   LIG    1       -0.114   1.483  -0.023  0.00  0.00    +0.060 C 
ATOM     24  C   LIG    1       -0.691   2.938   1.924  0.00  0.00    +0.060 C 
ATOM     25  C   LIG    1        0.117   0.605   2.304  0.00  0.00    +0.080 C 
ENDBRANCH  16  22
ENDBRANCH   9  13
BRANCH   1  27
ATOM     26  C   LIG    1       -9.527   3.476   7.776  0.00  0.00    +0.030 C 
ATOM     27  C   LIG    1      -10.185   2.492   6.806  0.00  0.00    +0.270 C 
ENDBRANCH   1  27
TORSDOF 3
