REMARK  Name = ZINCrg000000rUGV.0
REMARK                            x       y       z     vdW  Elec       q    Type
REMARK                         _______ _______ _______ _____ _____    ______ ____
ROOT
ATOM      1  C   LIG    1       -2.628  -0.328   2.676  0.00  0.00    +0.120 C 
ATOM      2  C   LIG    1       -1.859   0.941   2.414  0.00  0.00    -0.040 A 
ATOM      3  C   LIG    1       -2.055   1.817   1.382  0.00  0.00    -0.060 A 
ATOM      4  N   LIG    1       -1.146   2.850   1.506  0.00  0.00    -0.500 N 
ATOM      5  H   LIG    1       -1.071   3.607   0.903  0.00  0.00    +0.420 HD
ATOM      6  C   LIG    1       -0.384   2.641   2.579  0.00  0.00    +0.110 A 
ATOM      7  C   LIG    1        0.743   3.480   3.127  0.00  0.00    +0.130 C 
ATOM      8  C   LIG    1        0.965   3.127   4.600  0.00  0.00    -0.050 C 
ATOM      9  C   LIG    1       -0.246   3.585   5.416  0.00  0.00    +0.030 C 
ATOM     10  C   LIG    1        2.215   3.848   5.108  0.00  0.00    +0.040 C 
ATOM     11  C   LIG    1        1.148   1.616   4.774  0.00  0.00    +0.040 C 
ATOM     12  C   LIG    1       -0.152   0.927   4.387  0.00  0.00    +0.430 C 
ATOM     13  O   LIG    1       -0.620   0.012   5.032  0.00  0.00    -0.460 OA
ATOM     14  C   LIG    1       -0.800   1.450   3.175  0.00  0.00    -0.260 A 
ENDROOT
BRANCH   3  15
ATOM     15  C   LIG    1       -3.064   1.683   0.324  0.00  0.00    +0.600 C 
ATOM     16  N   LIG    1       -4.368   1.875   0.607  0.00  0.00    -0.600 N 
ATOM     17  C   LIG    1       -4.784   2.332   1.941  0.00  0.00    +0.270 C 
ATOM     18  C   LIG    1       -5.629   3.607   1.775  0.00  0.00    +0.290 C 
ATOM     19  N   LIG    1       -6.660   3.357   0.758  0.00  0.00    -1.010 NA
ATOM     20  C   LIG    1       -6.244   2.894  -0.573  0.00  0.00    +0.290 C 
ATOM     21  C   LIG    1       -5.399   1.625  -0.409  0.00  0.00    +0.290 C 
ATOM     22  O   LIG    1       -2.724   1.400  -0.809  0.00  0.00    -0.520 OA
BRANCH  19  23
ATOM     23  S   LIG    1       -8.262   3.592   1.107  0.00  0.00    +2.780 S 
ATOM     24  O   LIG    1       -8.914   3.814  -0.136  0.00  0.00    -0.970 OA
ATOM     25  O   LIG    1       -8.306   4.518   2.184  0.00  0.00    -0.970 OA
BRANCH  23  26
ATOM     26  N   LIG    1       -8.851   2.161   1.695  0.00  0.00    -1.010 NA
ATOM     27  C   LIG    1       -9.420   1.170   0.778  0.00  0.00    +0.300 C 
ATOM     28  C   LIG    1       -8.803   1.885   3.133  0.00  0.00    +0.290 C 
ENDBRANCH  23  26
ENDBRANCH  19  23
ENDBRANCH   3  15
TORSDOF 3
