REMARK  Name = ZINCpe00000MJK6p.1
REMARK                            x       y       z     vdW  Elec       q    Type
REMARK                         _______ _______ _______ _____ _____    ______ ____
ROOT
ATOM      1  C   LIG    1       -1.627   2.684   0.811  0.00  0.00    +0.150 C 
ATOM      2  C   LIG    1       -2.008   2.387  -0.660  0.00  0.00    +0.290 C 
ATOM      3  N   LIG    1       -0.872   1.615  -1.195  0.00  0.00    -0.620 N 
ATOM      4  C   LIG    1       -0.177   0.961  -0.077  0.00  0.00    +0.290 C 
ATOM      5  C   LIG    1       -0.526   1.524  -2.495  0.00  0.00    +0.610 C 
ATOM      6  O   LIG    1       -1.224   2.040  -3.347  0.00  0.00    -0.510 OA
ATOM      7  C   LIG    1       -0.905   1.371   1.221  0.00  0.00    +0.280 C 
ENDROOT
BRANCH   5   8
ATOM      8  C   LIG    1        0.695   0.802  -2.883  0.00  0.00    -0.270 A 
ATOM      9  C   LIG    1        0.703  -0.590  -2.955  0.00  0.00    +0.180 A 
ATOM     10  C   LIG    1        1.880  -1.240  -3.326  0.00  0.00    -0.070 A 
ATOM     11  C   LIG    1        2.995  -0.520  -3.611  0.00  0.00    +0.220 A 
ATOM     12  N   LIG    1        2.995   0.832  -3.543  0.00  0.00    -0.600 N 
ATOM     13  H   LIG    1        3.806   1.321  -3.752  0.00  0.00    +0.420 HD
ATOM     14  C   LIG    1        1.885   1.510  -3.195  0.00  0.00    +0.540 A 
ATOM     15  O   LIG    1        1.902   2.728  -3.145  0.00  0.00    -0.530 OA
BRANCH  11  16
ATOM     16  C   LIG    1        4.257  -1.240  -4.011  0.00  0.00    +0.000 C 
ATOM     17  C   LIG    1        5.538  -0.411  -4.127  0.00  0.00    +0.050 C 
ATOM     18  C   LIG    1        4.843  -0.925  -5.389  0.00  0.00    +0.050 C 
ENDBRANCH  11  16
ENDBRANCH   5   8
BRANCH   7  19
ATOM     19  N   LIG    1       -1.876   0.348   1.616  0.00  0.00    -0.260 N 
ATOM     20  C   LIG    1       -2.618  -0.409   0.774  0.00  0.00    +0.140 A 
ATOM     21  C   LIG    1       -3.373  -1.214   1.557  0.00  0.00    +0.140 A 
ATOM     22  N   LIG    1       -3.060  -0.915   2.823  0.00  0.00    -0.270 NA
ATOM     23  N   LIG    1       -2.167   0.010   2.824  0.00  0.00    -0.080 NA
ENDBRANCH   7  19
BRANCH   1  25
ATOM     24  C   LIG    1       -2.462   3.278   3.005  0.00  0.00    +0.210 C 
ATOM     25  N   LIG    1       -2.826   2.906   1.631  0.00  0.00    -0.530 NA
ATOM     26  C   LIG    1       -3.698   3.920   1.025  0.00  0.00    +0.200 C 
ENDBRANCH   1  25
TORSDOF 4
