REMARK  Name = ZINCpe000000XOAN.0
REMARK                            x       y       z     vdW  Elec       q    Type
REMARK                         _______ _______ _______ _____ _____    ______ ____
ROOT
ATOM      1  C   LIG    1       -1.749   1.833  -3.921  0.00  0.00    +0.100 C 
ATOM      2  C   LIG    1       -2.411   3.180  -4.055  0.00  0.00    +0.010 A 
ATOM      3  C   LIG    1       -3.405   3.370  -4.996  0.00  0.00    +0.020 A 
ATOM      4  C   LIG    1       -4.014   4.604  -5.120  0.00  0.00    +0.060 A 
ATOM      5  C   LIG    1       -3.625   5.654  -4.299  0.00  0.00    +0.120 A 
ATOM      6  C   LIG    1       -2.629   5.458  -3.351  0.00  0.00    +0.130 A 
ATOM      7  C   LIG    1       -2.021   4.224  -3.235  0.00  0.00    -0.660 A 
ENDROOT
BRANCH   5   8
ATOM      8  N   LIG    1       -4.239   6.905  -4.423  0.00  0.00    -0.670 N 
ATOM      9  H   LIG    1       -5.175   6.964  -4.673  0.00  0.00    +0.420 HD
ATOM     10  C   LIG    1       -3.531   8.029  -4.194  0.00  0.00    +0.490 C 
ATOM     11  O   LIG    1       -2.340   7.961  -3.976  0.00  0.00    -0.490 OA
BRANCH  10  12
ATOM     12  C   LIG    1       -4.219   9.370  -4.211  0.00  0.00    +0.350 C 
BRANCH  12  13
ATOM     13  N   LIG    1       -3.240  10.425  -3.937  0.00  0.00    -0.450 N 
ATOM     14  C   LIG    1       -2.494  11.101  -4.864  0.00  0.00    +0.120 A 
ATOM     15  C   LIG    1       -1.729  11.977  -4.186  0.00  0.00    +0.150 A 
ATOM     16  N   LIG    1       -2.001  11.839  -2.879  0.00  0.00    -0.490 NA
ATOM     17  C   LIG    1       -2.909  10.916  -2.723  0.00  0.00    +0.390 A 
ENDBRANCH  12  13
ENDBRANCH  10  12
ENDBRANCH   5   8
BRANCH   7  18
ATOM     18  S   LIG    1       -0.754   3.976  -2.036  0.00  0.00    +2.690 S 
ATOM     19  O   LIG    1        0.320   3.337  -2.714  0.00  0.00    -0.950 OA
ATOM     20  O   LIG    1       -0.612   5.208  -1.342  0.00  0.00    -0.950 OA
BRANCH  18  21
ATOM     21  N   LIG    1       -1.329   2.882  -0.934  0.00  0.00    -1.000 NA
ATOM     22  C   LIG    1       -1.121   1.437  -1.123  0.00  0.00    +0.260 C 
ATOM     23  C   LIG    1       -0.539   0.859   0.172  0.00  0.00    +0.220 C 
ATOM     24  O   LIG    1       -1.365   1.244   1.274  0.00  0.00    -0.380 OA
ATOM     25  C   LIG    1       -1.433   2.656   1.490  0.00  0.00    +0.220 C 
ATOM     26  C   LIG    1       -2.061   3.325   0.262  0.00  0.00    +0.260 C 
ENDBRANCH  18  21
ENDBRANCH   7  18
TORSDOF 5
