REMARK  Name = ZINCqH00000332bC.0
REMARK                            x       y       z     vdW  Elec       q    Type
REMARK                         _______ _______ _______ _____ _____    ______ ____
ROOT
ATOM      1  C   LIG    1       -3.671   3.187   0.054  0.00  0.00    +0.320 C 
ENDROOT
BRANCH   1   5
ATOM      2  C   LIG    1       -6.841   6.058   0.104  0.00  0.00    +0.090 A 
ATOM      3  C   LIG    1       -6.313   5.584   1.295  0.00  0.00    -0.020 A 
ATOM      4  C   LIG    1       -5.291   4.651   1.275  0.00  0.00    +0.020 A 
ATOM      5  C   LIG    1       -4.788   4.199   0.070  0.00  0.00    -0.060 A 
ATOM      6  C   LIG    1       -5.311   4.668  -1.121  0.00  0.00    -0.030 A 
ATOM      7 CL   LIG    1       -6.937   6.156   2.810  0.00  0.00    -0.040 Cl
ATOM      8  C   LIG    1       -6.338   5.598  -1.109  0.00  0.00    +0.120 A 
BRANCH   8   9
ATOM      9  O   LIG    1       -6.853   6.059  -2.280  0.00  0.00    -0.300 OA
ATOM     10  C   LIG    1       -6.287   5.542  -3.486  0.00  0.00    +0.250 C 
ENDBRANCH   8   9
BRANCH   2  11
ATOM     11  O   LIG    1       -7.849   6.971   0.121  0.00  0.00    -0.310 OA
BRANCH  11  12
ATOM     12  C   LIG    1       -9.185   6.462   0.133  0.00  0.00    +0.170 C 
BRANCH  12  14
ATOM     13  C   LIG    1      -11.604   7.084   0.164  0.00  0.00    +0.030 C 
ATOM     14  C   LIG    1      -10.175   7.629   0.152  0.00  0.00    +0.020 C 
ENDBRANCH  12  14
ENDBRANCH  11  12
ENDBRANCH   2  11
ENDBRANCH   1   5
BRANCH   1  15
ATOM     15  N   LIG    1       -2.382   3.883   0.045  0.00  0.00    -0.720 N 
ATOM     16  H   LIG    1       -2.354   4.853   0.050  0.00  0.00    +0.420 HD
BRANCH  15  17
ATOM     17  C   LIG    1       -1.192   3.150   0.030  0.00  0.00    +0.190 A 
ATOM     18  C   LIG    1       -1.219   1.760   0.017  0.00  0.00    -0.010 A 
ATOM     19  C   LIG    1       -0.013   1.076   0.008  0.00  0.00    +0.040 A 
ATOM     20  C   LIG    1        1.170   1.789   0.001  0.00  0.00    +0.240 A 
ATOM     21  N   LIG    1        1.168   3.109   0.007  0.00  0.00    -0.450 NA
ATOM     22  C   LIG    1        0.042   3.802   0.021  0.00  0.00    +0.270 A 
BRANCH  22  23
ATOM     23  N   LIG    1        0.088   5.200   0.028  0.00  0.00    -0.320 N 
ATOM     24  C   LIG    1        1.096   5.973   0.478  0.00  0.00    +0.520 A 
ATOM     25  N   LIG    1        0.753   7.225   0.309  0.00  0.00    -0.540 NA
ATOM     26  C   LIG    1       -0.458   7.291  -0.242  0.00  0.00    +0.450 A 
ATOM     27  N   LIG    1       -0.904   6.078  -0.439  0.00  0.00    -0.330 NA
ENDBRANCH  22  23
ENDBRANCH  15  17
ENDBRANCH   1  15
TORSDOF 8
