REMARK  Name = ZINCpe000000XRbZ.0
REMARK                            x       y       z     vdW  Elec       q    Type
REMARK                         _______ _______ _______ _____ _____    ______ ____
ROOT
ATOM      1  C   LIG    1        5.246   2.579  -0.034  0.00  0.00    +0.530 C 
ATOM      2  N   LIG    1        3.956   2.970  -0.029  0.00  0.00    -0.610 N 
ATOM      3  C   LIG    1        3.263   3.282  -1.286  0.00  0.00    +0.280 C 
ATOM      4  C   LIG    1        2.663   4.688  -1.181  0.00  0.00    +0.060 C 
ATOM      5  C   LIG    1        1.793   4.777   0.069  0.00  0.00    +0.120 C 
ATOM      6  N   LIG    1        0.664   3.843  -0.023  0.00  0.00    -0.720 N 
ATOM      7  H   LIG    1        0.713   2.877  -0.095  0.00  0.00    +0.440 HD
ATOM      8  C   LIG    1       -0.454   4.593   0.013  0.00  0.00    +0.710 C 
ATOM      9  N   LIG    1       -0.189   5.900   0.124  0.00  0.00    -0.680 N 
ATOM     10  H   LIG    1       -0.867   6.592   0.169  0.00  0.00    +0.440 HD
ATOM     11  O   LIG    1       -1.578   4.134  -0.043  0.00  0.00    -0.540 OA
ATOM     12  C   LIG    1        2.616   4.498   1.322  0.00  0.00    +0.060 C 
ATOM     13  C   LIG    1        1.139   6.136   0.160  0.00  0.00    +0.530 C 
ATOM     14  O   LIG    1        1.691   7.212   0.252  0.00  0.00    -0.450 OA
ATOM     15  C   LIG    1        3.217   3.091   1.236  0.00  0.00    +0.310 C 
ATOM     16  O   LIG    1        5.834   2.413   1.013  0.00  0.00    -0.500 OA
ENDROOT
BRANCH   1  23
ATOM     17  C   LIG    1       10.615   0.291  -5.307  0.00  0.00    +0.100 C 
ATOM     18  C   LIG    1        9.735   0.784  -4.188  0.00  0.00    -0.120 A 
ATOM     19  C   LIG    1       10.300   1.363  -3.067  0.00  0.00    +0.040 A 
ATOM     20  C   LIG    1        9.493   1.813  -2.042  0.00  0.00    -0.010 A 
ATOM     21  C   LIG    1        8.111   1.687  -2.133  0.00  0.00    +0.130 A 
ATOM     22  O   LIG    1        7.350   2.138  -1.102  0.00  0.00    -0.290 OA
ATOM     23  C   LIG    1        5.958   2.350  -1.343  0.00  0.00    +0.180 C 
ATOM     24  C   LIG    1        5.390   1.100  -2.027  0.00  0.00    +0.030 C 
ATOM     25  C   LIG    1        6.054   0.960  -3.399  0.00  0.00    +0.090 C 
ATOM     26  C   LIG    1        7.547   1.110  -3.258  0.00  0.00    -0.160 A 
ATOM     27  C   LIG    1        8.362   0.659  -4.282  0.00  0.00    +0.050 A 
ENDBRANCH   1  23
TORSDOF 1
