REMARK  Name = ZINCtV00000L6l98.0
REMARK                            x       y       z     vdW  Elec       q    Type
REMARK                         _______ _______ _______ _____ _____    ______ ____
ROOT
ATOM      1  C   LIG    1        3.609   5.889  -0.002  0.00  0.00    +0.280 A 
ATOM      2  N   LIG    1        4.302   6.184   1.060  0.00  0.00    -0.460 NA
ATOM      3  C   LIG    1        5.503   6.699   0.692  0.00  0.00    +0.040 A 
ATOM      4  C   LIG    1        6.609   7.168   1.405  0.00  0.00    +0.070 A 
ATOM      5  C   LIG    1        7.699   7.646   0.734  0.00  0.00    +0.000 A 
ATOM      6  C   LIG    1        7.722   7.669  -0.653  0.00  0.00    +0.040 A 
ATOM      7  C   LIG    1        6.642   7.211  -1.378  0.00  0.00    +0.010 A 
ATOM      8  C   LIG    1        5.526   6.723  -0.713  0.00  0.00    +0.060 A 
ATOM      9  N   LIG    1        4.314   6.204  -1.122  0.00  0.00    -0.470 N 
ENDROOT
BRANCH   1  10
ATOM     10  C   LIG    1        2.225   5.292   0.009  0.00  0.00    +0.320 C 
BRANCH  10  11
ATOM     11  O   LIG    1        2.322   3.866   0.000  0.00  0.00    -0.310 OA
BRANCH  11  15
ATOM     12  C   LIG    1       -1.220   1.750   0.017  0.00  0.00    -0.100 A 
ATOM     13  C   LIG    1       -0.013   1.076   0.008  0.00  0.00    +0.060 A 
ATOM     14  C   LIG    1        1.175   1.782   0.000  0.00  0.00    -0.010 A 
ATOM     15  C   LIG    1        1.155   3.169   0.008  0.00  0.00    +0.120 A 
ATOM     16  C   LIG    1       -0.057   3.844   0.023  0.00  0.00    -0.080 A 
ATOM     17  C   LIG    1       -1.242   3.133   0.031  0.00  0.00    +0.050 A 
BRANCH  12  19
ATOM     18  C   LIG    1       -2.575   0.089   1.263  0.00  0.00    +0.040 C 
ATOM     19  C   LIG    1       -2.513   0.977   0.019  0.00  0.00    -0.030 C 
ATOM     20  C   LIG    1       -2.587   0.104  -1.235  0.00  0.00    +0.040 C 
ATOM     21  C   LIG    1       -3.691   1.954   0.030  0.00  0.00    +0.030 C 
ENDBRANCH  12  19
ENDBRANCH  11  15
ENDBRANCH  10  11
ENDBRANCH   1  10
BRANCH   9  22
ATOM     22  C   LIG    1        3.868   6.026  -2.506  0.00  0.00    +0.370 C 
BRANCH  22  23
ATOM     23  C   LIG    1        3.153   7.269  -2.968  0.00  0.00    -0.110 A 
ATOM     24  C   LIG    1        1.786   7.385  -2.793  0.00  0.00    +0.040 A 
ATOM     25  C   LIG    1        1.130   8.527  -3.212  0.00  0.00    +0.030 A 
ATOM     26  C   LIG    1        1.840   9.550  -3.816  0.00  0.00    -0.020 A 
ATOM     27  C   LIG    1        3.206   9.431  -3.996  0.00  0.00    +0.030 A 
ATOM     28 CL   LIG    1        1.015  10.981  -4.349  0.00  0.00    -0.060 Cl
ATOM     29  C   LIG    1        3.862   8.290  -3.571  0.00  0.00    +0.050 A 
ENDBRANCH  22  23
ENDBRANCH   9  22
TORSDOF 6
