REMARK  Name = ZINCAx0000000iCk.0
REMARK                            x       y       z     vdW  Elec       q    Type
REMARK                         _______ _______ _______ _____ _____    ______ ____
ROOT
ATOM      1  C   LIG    1       -3.804  -1.389  -1.651  0.00  0.00    +0.080 A 
ATOM      2  C   LIG    1       -4.058  -2.286  -2.691  0.00  0.00    +0.070 A 
ATOM      3  C   LIG    1       -5.007  -3.280  -2.511  0.00  0.00    +0.070 A 
ATOM      4  C   LIG    1       -5.681  -3.341  -1.303  0.00  0.00    +0.030 A 
ATOM      5  C   LIG    1       -5.382  -2.409  -0.307  0.00  0.00    +0.090 A 
ATOM      6  N   LIG    1       -4.466  -1.475  -0.508  0.00  0.00    -0.400 NA
ENDROOT
BRANCH   1   9
ATOM      7  C   LIG    1       -3.083   0.276   0.511  0.00  0.00    +0.310 C 
ATOM      8  N   LIG    1       -2.478   0.491  -0.805  0.00  0.00    -0.580 N 
ATOM      9  C   LIG    1       -2.787  -0.326  -1.832  0.00  0.00    +0.580 C 
ATOM     10  O   LIG    1       -2.233  -0.191  -2.904  0.00  0.00    -0.530 OA
BRANCH   8  11
ATOM     11  C   LIG    1       -1.535   1.594  -1.007  0.00  0.00    +0.340 C 
BRANCH  11  12
ATOM     12  C   LIG    1       -2.289   2.828  -1.431  0.00  0.00    +0.500 C 
ATOM     13  N   LIG    1       -1.624   3.974  -1.675  0.00  0.00    -0.670 N 
ATOM     14  H   LIG    1       -0.670   4.027  -1.504  0.00  0.00    +0.410 HD
ATOM     15  O   LIG    1       -3.495   2.788  -1.559  0.00  0.00    -0.500 OA
BRANCH  13  16
ATOM     16  C   LIG    1       -2.308   5.089  -2.175  0.00  0.00    +0.130 A 
ATOM     17  C   LIG    1       -1.682   5.945  -3.071  0.00  0.00    +0.030 A 
ATOM     18  C   LIG    1       -2.361   7.041  -3.567  0.00  0.00    +0.010 A 
ATOM     19  C   LIG    1       -3.661   7.292  -3.162  0.00  0.00    +0.080 A 
ATOM     20  C   LIG    1       -4.285   6.443  -2.264  0.00  0.00    +0.010 A 
ATOM     21  F   LIG    1       -4.321   8.368  -3.643  0.00  0.00    -0.140 F 
ATOM     22  C   LIG    1       -3.612   5.343  -1.770  0.00  0.00    +0.060 A 
ENDBRANCH  13  16
ENDBRANCH  11  12
ENDBRANCH   8  11
ENDBRANCH   1   9
BRANCH   5  23
ATOM     23  C   LIG    1       -6.099  -2.466   0.990  0.00  0.00    +0.580 C 
ATOM     24  N   LIG    1       -7.427  -2.694   1.016  0.00  0.00    -0.590 N 
ATOM     25  C   LIG    1       -8.142  -3.002  -0.225  0.00  0.00    +0.300 C 
ATOM     26  O   LIG    1       -5.489  -2.307   2.028  0.00  0.00    -0.500 OA
BRANCH  24  27
ATOM     27  C   LIG    1       -8.155  -2.633   2.286  0.00  0.00    +0.340 C 
BRANCH  27  28
ATOM     28  C   LIG    1       -8.647  -1.227   2.516  0.00  0.00    +0.490 C 
ATOM     29  N   LIG    1       -9.347  -0.932   3.629  0.00  0.00    -0.670 N 
ATOM     30  H   LIG    1       -9.470  -1.605   4.317  0.00  0.00    +0.410 HD
ATOM     31  O   LIG    1       -8.411  -0.361   1.700  0.00  0.00    -0.500 OA
BRANCH  29  32
ATOM     32  C   LIG    1       -9.898   0.345   3.792  0.00  0.00    +0.140 A 
ATOM     33  C   LIG    1       -9.997   0.903   5.060  0.00  0.00    +0.020 A 
ATOM     34  C   LIG    1      -10.536   2.165   5.218  0.00  0.00    +0.010 A 
ATOM     35  C   LIG    1      -10.986   2.869   4.114  0.00  0.00    +0.080 A 
ATOM     36  C   LIG    1      -10.893   2.313   2.849  0.00  0.00    +0.010 A 
ATOM     37  F   LIG    1      -11.518   4.101   4.271  0.00  0.00    -0.140 F 
ATOM     38  C   LIG    1      -10.350   1.054   2.687  0.00  0.00    +0.050 A 
ENDBRANCH  29  32
ENDBRANCH  27  28
ENDBRANCH  24  27
ENDBRANCH   5  23
TORSDOF 8
