REMARK  Name = ZINCqH0000000khX.0
REMARK                            x       y       z     vdW  Elec       q    Type
REMARK                         _______ _______ _______ _____ _____    ______ ____
ROOT
ATOM      1  N   LIG    1       -1.998   9.637  -1.262  0.00  0.00    -0.450 N 
ATOM      2  C   LIG    1       -1.242   8.884  -0.411  0.00  0.00    +0.160 A 
ATOM      3  N   LIG    1       -0.308   9.669   0.080  0.00  0.00    -0.290 NA
ATOM      4  N   LIG    1       -0.423  10.851  -0.411  0.00  0.00    -0.250 NA
ATOM      5  C   LIG    1       -1.442  10.896  -1.237  0.00  0.00    +0.220 A 
ENDROOT
BRANCH   5   6
ATOM      6  C   LIG    1       -1.906  12.076  -1.997  0.00  0.00    +0.030 A 
ATOM      7  C   LIG    1       -3.198  12.123  -2.535  0.00  0.00    -0.030 A 
ATOM      8  C   LIG    1       -3.591  13.246  -3.232  0.00  0.00    +0.270 A 
ATOM      9  N   LIG    1       -2.765  14.261  -3.404  0.00  0.00    -0.480 NA
ATOM     10  C   LIG    1       -1.537  14.255  -2.919  0.00  0.00    +0.280 A 
ATOM     11  C   LIG    1       -1.063  13.175  -2.204  0.00  0.00    +0.020 A 
ENDBRANCH   5   6
BRANCH   1  12
ATOM     12  C   LIG    1       -3.159   9.197  -2.040  0.00  0.00    +0.340 C 
BRANCH  12  14
ATOM     13  C   LIG    1       -5.441   9.943  -1.595  0.00  0.00    +0.080 C 
ATOM     14  C   LIG    1       -4.395   9.270  -1.181  0.00  0.00    -0.060 C 
ENDBRANCH  12  14
ENDBRANCH   1  12
BRANCH   2  15
ATOM     15  S   LIG    1       -1.479   7.179  -0.034  0.00  0.00    +0.030 S 
BRANCH  15  16
ATOM     16  C   LIG    1       -0.119   6.924   1.133  0.00  0.00    +0.220 C 
BRANCH  16  17
ATOM     17  C   LIG    1       -0.124   5.492   1.605  0.00  0.00    +0.060 A 
ATOM     18  C   LIG    1       -0.797   5.017   2.675  0.00  0.00    +0.120 A 
ATOM     19  N   LIG    1       -0.534   3.676   2.755  0.00  0.00    -0.360 N 
ATOM     20  C   LIG    1       -0.932   2.708   3.631  0.00  0.00    +0.210 A 
ATOM     21  C   LIG    1       -0.519   1.433   3.479  0.00  0.00    +0.020 A 
ATOM     22  C   LIG    1        0.328   1.084   2.414  0.00  0.00    +0.030 A 
ATOM     23  C   LIG    1        0.732   2.039   1.534  0.00  0.00    -0.040 A 
ATOM     24  C   LIG    1        1.640   1.681   0.386  0.00  0.00    +0.130 C 
ATOM     25  C   LIG    1        0.296   3.368   1.709  0.00  0.00    +0.230 A 
ATOM     26  N   LIG    1        0.527   4.480   1.027  0.00  0.00    -0.470 NA
ENDBRANCH  16  17
ENDBRANCH  15  16
ENDBRANCH   2  15
TORSDOF 6
