REMARK  Name = ZINCpe00000gLT4w.0
REMARK                            x       y       z     vdW  Elec       q    Type
REMARK                         _______ _______ _______ _____ _____    ______ ____
ROOT
ATOM      1  C   LIG    1        1.714   3.127   0.851  0.00  0.00    +0.530 C 
ATOM      2  N   LIG    1        1.032   4.263   0.603  0.00  0.00    -0.600 N 
ATOM      3  C   LIG    1        1.283   5.417   1.438  0.00  0.00    +0.270 C 
ATOM      4  C   LIG    1        0.304   5.410   2.639  0.00  0.00    +0.030 C 
ATOM      5  C   LIG    1       -1.066   5.684   2.166  0.00  0.00    +0.210 C 
ATOM      6  N   LIG    1       -1.595   4.685   1.238  0.00  0.00    -0.470 N 
ATOM      7  C   LIG    1       -1.234   5.014  -0.125  0.00  0.00    +0.200 C 
ATOM      8  C   LIG    1        0.065   4.276  -0.515  0.00  0.00    +0.300 C 
ATOM      9  O   LIG    1        1.593   2.173   0.112  0.00  0.00    -0.530 OA
ENDROOT
BRANCH   1  12
ATOM     10  N   LIG    1        4.169   1.455   2.970  0.00  0.00    -0.620 N 
ATOM     11  C   LIG    1        2.775   1.582   2.528  0.00  0.00    +0.290 C 
ATOM     12  C   LIG    1        2.627   3.043   2.047  0.00  0.00    -0.020 C 
ATOM     13  C   LIG    1        4.082   3.396   1.659  0.00  0.00    +0.080 C 
ATOM     14  C   LIG    1        4.926   2.457   2.492  0.00  0.00    +0.520 C 
ATOM     15  O   LIG    1        6.114   2.590   2.699  0.00  0.00    -0.530 OA
BRANCH  10  17
ATOM     16  C   LIG    1        4.544   0.784   5.292  0.00  0.00    +0.020 C 
ATOM     17  C   LIG    1        4.670   0.374   3.823  0.00  0.00    +0.280 C 
ENDBRANCH  10  17
ENDBRANCH   1  12
BRANCH   6  18
ATOM     18  C   LIG    1       -2.967   4.562   1.371  0.00  0.00    +0.360 A 
ATOM     19  N   LIG    1       -3.611   5.299   2.262  0.00  0.00    -0.520 NA
ATOM     20  C   LIG    1       -4.918   5.216   2.418  0.00  0.00    +0.330 A 
ATOM     21  C   LIG    1       -5.677   4.342   1.661  0.00  0.00    -0.050 A 
ATOM     22  C   LIG    1       -5.056   3.542   0.717  0.00  0.00    +0.150 A 
ATOM     23  C   LIG    1       -3.669   3.649   0.564  0.00  0.00    -0.100 A 
BRANCH  23  24
ATOM     24  C   LIG    1       -2.977   2.845  -0.398  0.00  0.00    +0.250 C 
ATOM     25  N   LIG    1       -2.429   2.207  -1.161  0.00  0.00    -0.400 NA
ENDBRANCH  23  24
ENDBRANCH   6  18
TORSDOF 4
