REMARK  Name = ZINCrg000000ry1v.0
REMARK                            x       y       z     vdW  Elec       q    Type
REMARK                         _______ _______ _______ _____ _____    ______ ____
ROOT
ATOM      1  C   LIG    1       -0.927   1.718   3.671  0.00  0.00    +0.260 C 
ATOM      2  C   LIG    1       -0.438   3.126   4.018  0.00  0.00    +0.020 C 
ENDROOT
BRANCH   1   3
ATOM      3  N   LIG    1       -0.242   1.246   2.466  0.00  0.00    -0.720 N 
ATOM      4  H   LIG    1        0.555   0.699   2.544  0.00  0.00    +0.400 HD
ATOM      5  C   LIG    1       -0.718   1.572   1.248  0.00  0.00    +0.520 C 
ATOM      6  O   LIG    1       -1.714   2.256   1.150  0.00  0.00    -0.530 OA
BRANCH   5   7
ATOM      7  C   LIG    1       -0.013   1.086   0.008  0.00  0.00    +0.050 C 
BRANCH   7   8
ATOM      8  C   LIG    1       -0.753   1.593  -1.232  0.00  0.00    +0.370 C 
BRANCH   8   9
ATOM      9  N   LIG    1       -0.067   1.120  -2.437  0.00  0.00    -0.350 N 
ATOM     10  C   LIG    1       -0.626   0.419  -3.445  0.00  0.00    +0.370 A 
ATOM     11  C   LIG    1        0.337   0.178  -4.364  0.00  0.00    -0.190 A 
ATOM     12  C   LIG    1        1.526   0.752  -3.902  0.00  0.00    +0.330 A 
ATOM     13  N   LIG    1        1.284   1.322  -2.749  0.00  0.00    -0.270 NA
BRANCH  11  14
ATOM     14  N   LIG    1        0.164  -0.562  -5.634  0.00  0.00    +0.070 N 
ATOM     15  O   LIG    1        1.111  -0.715  -6.384  0.00  0.00    -0.160 OA
ATOM     16  O   LIG    1       -0.926  -1.019  -5.929  0.00  0.00    -0.170 OA
ENDBRANCH  11  14
ENDBRANCH   8   9
ENDBRANCH   7   8
ENDBRANCH   5   7
ENDBRANCH   1   3
BRANCH   1  18
ATOM     17  C   LIG    1       -1.114  -0.635   4.488  0.00  0.00    +0.060 C 
ATOM     18  C   LIG    1       -0.624   0.772   4.834  0.00  0.00    -0.010 C 
BRANCH  18  19
ATOM     19  C   LIG    1       -1.329   1.258   6.074  0.00  0.00    +0.510 C 
ATOM     20  N   LIG    1       -1.206   0.576   7.231  0.00  0.00    -0.660 N 
ATOM     21  H   LIG    1       -0.664  -0.227   7.264  0.00  0.00    +0.420 HD
ATOM     22  O   LIG    1       -2.008   2.262   6.032  0.00  0.00    -0.460 OA
BRANCH  20  23
ATOM     23  C   LIG    1       -1.860   1.026   8.379  0.00  0.00    +0.340 A 
ATOM     24  N   LIG    1       -2.598   2.122   8.326  0.00  0.00    -0.460 NA
ATOM     25  C   LIG    1       -3.233   2.582   9.388  0.00  0.00    +0.290 A 
ATOM     26  C   LIG    1       -3.149   1.932  10.603  0.00  0.00    -0.050 A 
ATOM     27  C   LIG    1       -2.385   0.777  10.705  0.00  0.00    +0.080 A 
ATOM     28  C   LIG    1       -1.733   0.313   9.571  0.00  0.00    +0.020 A 
BRANCH  28  29
ATOM     29  O   LIG    1       -0.978  -0.816   9.623  0.00  0.00    -0.490 OA
ATOM     30  H   LIG    1       -0.051  -0.660   9.852  0.00  0.00    +0.390 HD
ENDBRANCH  28  29
ENDBRANCH  20  23
ENDBRANCH  18  19
ENDBRANCH   1  18
TORSDOF 9
