REMARK  Name = ZINCrD0000071nXJ.0
REMARK                            x       y       z     vdW  Elec       q    Type
REMARK                         _______ _______ _______ _____ _____    ______ ____
ROOT
ATOM      1  C   LIG    1        5.654   4.046   2.844  0.00  0.00    +0.240 C 
ENDROOT
BRANCH   1   2
ATOM      2  C   LIG    1        4.533   3.081   2.556  0.00  0.00    +0.520 C 
ATOM      3  N   LIG    1        3.572   3.409   1.669  0.00  0.00    -0.600 N 
ATOM      4  C   LIG    1        3.660   4.655   0.897  0.00  0.00    +0.270 C 
ATOM      5  C   LIG    1        3.530   4.323  -0.593  0.00  0.00    +0.030 C 
ATOM      6  C   LIG    1        2.241   3.530  -0.824  0.00  0.00    +0.010 C 
ATOM      7  C   LIG    1        2.300   2.217  -0.039  0.00  0.00    +0.160 C 
ATOM      8  C   LIG    1        2.417   2.526   1.457  0.00  0.00    +0.250 C 
ATOM      9  O   LIG    1        4.495   2.009   3.122  0.00  0.00    -0.530 OA
BRANCH   6  10
ATOM     10  C   LIG    1        2.091   3.225  -2.315  0.00  0.00    -0.060 C 
ATOM     11  C   LIG    1        3.195   2.261  -2.753  0.00  0.00    +0.010 C 
ATOM     12  C   LIG    1        2.202   4.525  -3.115  0.00  0.00    +0.020 C 
ATOM     13  C   LIG    1        0.724   2.586  -2.570  0.00  0.00    +0.030 C 
ENDBRANCH   6  10
BRANCH   7  14
ATOM     14  O   LIG    1        1.110   1.464  -0.279  0.00  0.00    -0.550 OA
ATOM     15  H   LIG    1        1.079   0.618   0.189  0.00  0.00    +0.370 HD
ENDBRANCH   7  14
ENDBRANCH   1   2
BRANCH   1  16
ATOM     16  N   LIG    1        5.994   3.988   4.268  0.00  0.00    -0.710 N 
ATOM     17  H   LIG    1        5.806   3.186   4.779  0.00  0.00    +0.410 HD
ATOM     18  C   LIG    1        6.569   5.050   4.867  0.00  0.00    +0.560 C 
ATOM     19  O   LIG    1        6.804   6.056   4.226  0.00  0.00    -0.500 OA
BRANCH  18  20
ATOM     20  C   LIG    1        6.912   4.992   6.303  0.00  0.00    -0.130 A 
ATOM     21  C   LIG    1        6.638   3.841   7.043  0.00  0.00    +0.060 A 
ATOM     22  C   LIG    1        6.965   3.791   8.382  0.00  0.00    +0.020 A 
ATOM     23  C   LIG    1        7.555   4.882   8.995  0.00  0.00    +0.060 A 
ATOM     24  C   LIG    1        7.825   6.029   8.270  0.00  0.00    +0.020 A 
ATOM     25  C   LIG    1        7.508   6.091   6.927  0.00  0.00    +0.020 A 
ATOM     26 CL   LIG    1        7.847   7.530   6.018  0.00  0.00    -0.030 Cl
ENDBRANCH  18  20
ENDBRANCH   1  16
BRANCH   1  28
ATOM     27  C   LIG    1        6.490   3.601   0.532  0.00  0.00    +0.030 C 
ATOM     28  C   LIG    1        6.880   3.668   2.010  0.00  0.00    -0.020 C 
ATOM     29  C   LIG    1        7.972   4.721   2.203  0.00  0.00    +0.030 C 
ENDBRANCH   1  28
TORSDOF 6
