REMARK  Name = ZINCpk00000y6x8s.0
REMARK                            x       y       z     vdW  Elec       q    Type
REMARK                         _______ _______ _______ _____ _____    ______ ____
ROOT
ATOM      1  C   LIG    1        1.762   2.533  -2.567  0.00  0.00    +0.320 C 
ENDROOT
BRANCH   1   6
ATOM      2  C   LIG    1        1.449   3.075  -0.122  0.00  0.00    +0.100 C 
ATOM      3  C   LIG    1        0.338   3.893   0.574  0.00  0.00    +0.020 C 
ATOM      4  C   LIG    1       -0.155   4.864  -0.522  0.00  0.00    +0.210 C 
ATOM      5  O   LIG    1        0.186   4.218  -1.768  0.00  0.00    -0.370 OA
ATOM      6  C   LIG    1        1.496   3.649  -1.555  0.00  0.00    +0.160 C 
BRANCH   2  11
ATOM      7  C   LIG    1       -1.109  -1.276  -0.346  0.00  0.00    +0.200 C 
ATOM      8  C   LIG    1       -0.007  -0.252  -0.247  0.00  0.00    +0.180 A 
ATOM      9  N   LIG    1        1.268  -0.498  -0.125  0.00  0.00    -0.290 NA
ATOM     10  N   LIG    1        1.920   0.609  -0.068  0.00  0.00    -0.280 NA
ATOM     11  C   LIG    1        1.089   1.612  -0.150  0.00  0.00    +0.190 A 
ATOM     12  N   LIG    1       -0.158   1.094  -0.266  0.00  0.00    -0.580 N 
ATOM     13  H   LIG    1       -0.989   1.587  -0.350  0.00  0.00    +0.430 HD
ENDBRANCH   2  11
ENDBRANCH   1   6
BRANCH   1  14
ATOM     14  N   LIG    1        1.922   3.113  -3.903  0.00  0.00    -0.610 N 
ATOM     15  C   LIG    1        3.143   3.487  -4.334  0.00  0.00    +0.570 C 
ATOM     16  O   LIG    1        4.098   3.420  -3.585  0.00  0.00    -0.520 OA
ATOM     17  C   LIG    1        0.754   3.286  -4.770  0.00  0.00    +0.300 C 
BRANCH  15  18
ATOM     18  C   LIG    1        3.320   3.978  -5.715  0.00  0.00    -0.120 A 
ATOM     19  C   LIG    1        4.432   3.583  -6.461  0.00  0.00    +0.100 A 
ATOM     20  C   LIG    1        4.593   4.038  -7.752  0.00  0.00    +0.040 A 
ATOM     21  C   LIG    1        3.658   4.899  -8.310  0.00  0.00    +0.060 A 
ATOM     22  O   LIG    1        3.594   5.483  -9.541  0.00  0.00    -0.300 OA
ATOM     23  C   LIG    1        2.230   5.919  -9.690  0.00  0.00    +0.440 C 
ATOM     24  O   LIG    1        1.790   6.139  -8.337  0.00  0.00    -0.310 OA
ATOM     25  C   LIG    1        2.547   5.302  -7.568  0.00  0.00    +0.020 A 
ATOM     26  C   LIG    1        2.378   4.845  -6.276  0.00  0.00    +0.080 A 
ENDBRANCH  15  18
ENDBRANCH   1  14
TORSDOF 4
