REMARK  Name = ZINCpe000000XR1w.0
REMARK                            x       y       z     vdW  Elec       q    Type
REMARK                         _______ _______ _______ _____ _____    ______ ____
ROOT
ATOM      1  S   LIG    1        0.002  -0.004   0.002  0.00  0.00    +2.700 S 
ATOM      2  O   LIG    1        1.252  -0.385  -0.556  0.00  0.00    -0.940 OA
ATOM      3  O   LIG    1       -1.247  -0.419  -0.533  0.00  0.00    -0.940 OA
ENDROOT
BRANCH   1  10
ATOM      4  C   LIG    1        2.282   0.523   1.920  0.00  0.00    +0.120 C 
ATOM      5  C   LIG    1        1.114  -0.245   2.483  0.00  0.00    +0.070 A 
ATOM      6  C   LIG    1        1.132  -0.662   3.801  0.00  0.00    +0.020 A 
ATOM      7  C   LIG    1        0.061  -1.367   4.318  0.00  0.00    +0.160 A 
ATOM      8  C   LIG    1       -1.028  -1.655   3.518  0.00  0.00    -0.070 A 
ATOM      9  C   LIG    1       -1.048  -1.235   2.200  0.00  0.00    +0.220 A 
ATOM     10  C   LIG    1        0.025  -0.535   1.682  0.00  0.00    -0.690 A 
BRANCH   8  11
ATOM     11  N   LIG    1       -2.175  -2.409   4.071  0.00  0.00    +0.030 N 
ATOM     12  O   LIG    1       -3.135  -2.663   3.366  0.00  0.00    -0.150 OA
ATOM     13  O   LIG    1       -2.158  -2.776   5.233  0.00  0.00    -0.150 OA
ENDBRANCH   8  11
ENDBRANCH   1  10
BRANCH   1  14
ATOM     14  N   LIG    1       -0.020   1.652   0.011  0.00  0.00    -0.990 NA
ATOM     15  C   LIG    1        1.234   2.417   0.003  0.00  0.00    +0.280 C 
ATOM     16  C   LIG    1        1.195   3.415  -1.159  0.00  0.00    +0.020 C 
ATOM     17  C   LIG    1       -0.066   4.275  -1.046  0.00  0.00    +0.020 C 
ATOM     18  C   LIG    1       -1.305   3.381  -1.136  0.00  0.00    -0.020 C 
ATOM     19  C   LIG    1       -1.295   2.383   0.021  0.00  0.00    +0.300 C 
BRANCH  18  20
ATOM     20  C   LIG    1       -2.565   4.245  -1.057  0.00  0.00    +0.280 C 
BRANCH  20  21
ATOM     21  N   LIG    1       -2.632   5.118  -2.231  0.00  0.00    -1.120 NA
ATOM     22  H   LIG    1       -1.847   5.245  -2.787  0.00  0.00    +0.420 HD
BRANCH  21  23
ATOM     23  S   LIG    1       -4.048   5.889  -2.610  0.00  0.00    +2.620 S 
ATOM     24  O   LIG    1       -5.022   4.854  -2.607  0.00  0.00    -0.950 OA
ATOM     25  O   LIG    1       -3.748   6.610  -3.797  0.00  0.00    -0.960 OA
ATOM     26  C   LIG    1       -4.327   7.029  -1.226  0.00  0.00    -0.280 C 
ENDBRANCH  21  23
ENDBRANCH  20  21
ENDBRANCH  18  20
ENDBRANCH   1  14
TORSDOF 6
