REMARK  Name = ZINCvU00000004kG.0
REMARK                            x       y       z     vdW  Elec       q    Type
REMARK                         _______ _______ _______ _____ _____    ______ ____
ROOT
ATOM      1  N   LIG    1        3.254   0.860  -2.000  0.00  0.00    -0.940 N 
ENDROOT
BRANCH   1   2
ATOM      2  C   LIG    1        3.827   2.034  -2.494  0.00  0.00    +0.140 A 
ATOM      3  C   LIG    1        3.251   3.265  -2.205  0.00  0.00    -0.010 A 
ATOM      4  C   LIG    1        3.824   4.424  -2.692  0.00  0.00    +0.030 A 
ATOM      5  C   LIG    1        4.963   4.359  -3.473  0.00  0.00    -0.090 A 
ATOM      6  C   LIG    1        5.535   3.136  -3.766  0.00  0.00    +0.030 A 
ATOM      7  C   LIG    1        5.581   5.626  -4.006  0.00  0.00    +0.090 C 
ATOM      8  C   LIG    1        4.971   1.973  -3.279  0.00  0.00    +0.020 A 
ENDBRANCH   1   2
BRANCH   1   9
ATOM      9  S   LIG    1        3.072   0.651  -0.367  0.00  0.00    +2.680 S 
ATOM     10  O   LIG    1        3.092  -0.752  -0.138  0.00  0.00    -0.940 OA
ATOM     11  O   LIG    1        3.975   1.553   0.256  0.00  0.00    -0.940 OA
BRANCH   9  12
ATOM     12  C   LIG    1        1.451   1.200   0.051  0.00  0.00    -0.690 A 
ATOM     13  C   LIG    1        0.392   0.311   0.026  0.00  0.00    +0.120 A 
ATOM     14  C   LIG    1       -0.881   0.744   0.349  0.00  0.00    -0.010 A 
ATOM     15  C   LIG    1       -1.093   2.062   0.707  0.00  0.00    -0.020 A 
ATOM     16  C   LIG    1       -0.035   2.950   0.731  0.00  0.00    -0.010 A 
ATOM     17  C   LIG    1       -2.480   2.532   1.063  0.00  0.00    +0.090 C 
ATOM     18  C   LIG    1        1.237   2.519   0.403  0.00  0.00    +0.120 A 
ENDBRANCH   9  12
ENDBRANCH   1   9
BRANCH   1  19
ATOM     19  C   LIG    1        2.814  -0.186  -2.926  0.00  0.00    +0.340 C 
BRANCH  19  20
ATOM     20  C   LIG    1        1.398   0.126  -3.413  0.00  0.00    +0.040 C 
BRANCH  20  23
ATOM     21  N   LIG    1       -0.279  -0.883  -4.926  0.00  0.00    -0.670 N 
ATOM     22  H   LIG    1       -0.842  -0.109  -4.769  0.00  0.00    +0.410 HD
ATOM     23  C   LIG    1        0.945  -0.950  -4.366  0.00  0.00    +0.520 C 
ATOM     24  O   LIG    1        1.683  -1.876  -4.630  0.00  0.00    -0.510 OA
BRANCH  21  29
ATOM     25  C   LIG    1       -0.838  -4.276  -6.243  0.00  0.00    -0.070 A 
ATOM     26  C   LIG    1       -1.653  -4.000  -7.335  0.00  0.00    -0.020 A 
ATOM     27  C   LIG    1       -2.006  -2.696  -7.622  0.00  0.00    +0.050 A 
ATOM     28  C   LIG    1       -1.557  -1.663  -6.822  0.00  0.00    -0.020 A 
ATOM     29  C   LIG    1       -0.738  -1.931  -5.732  0.00  0.00    +0.160 A 
ATOM     30  C   LIG    1       -0.380  -3.239  -5.441  0.00  0.00    +0.040 A 
BRANCH  25  32
ATOM     31  C   LIG    1       -1.217  -6.884  -7.184  0.00  0.00    +0.130 C 
ATOM     32  S   LIG    1       -0.387  -5.940  -5.877  0.00  0.00    -0.110 S 
ENDBRANCH  25  32
ENDBRANCH  21  29
ENDBRANCH  20  23
ENDBRANCH  19  20
ENDBRANCH   1  19
TORSDOF 8
