REMARK  Name = ZINCvU0000000CK0.0
REMARK                            x       y       z     vdW  Elec       q    Type
REMARK                         _______ _______ _______ _____ _____    ______ ____
ROOT
ATOM      1  O   LIG    1        1.556  -0.548  -1.225  0.00  0.00    -0.510 OA
ATOM      2  C   LIG    1        2.463  -0.157  -0.516  0.00  0.00    +0.560 C 
ATOM      3  N   LIG    1        2.321   0.980   0.194  0.00  0.00    -0.670 N 
ATOM      4  H   LIG    1        3.070   1.332   0.700  0.00  0.00    +0.410 HD
ENDROOT
BRANCH   3   5
ATOM      5  C   LIG    1        1.093   1.653   0.201  0.00  0.00    +0.140 A 
ATOM      6  C   LIG    1       -0.094   0.928   0.121  0.00  0.00    +0.060 A 
ATOM      7  C   LIG    1       -1.310   1.578   0.121  0.00  0.00    +0.040 A 
ATOM      8  C   LIG    1       -1.355   2.962   0.212  0.00  0.00    +0.050 A 
ATOM      9  N   LIG    1       -2.383   3.886   0.240  0.00  0.00    -0.590 N 
ATOM     10  H   LIG    1       -3.333   3.692   0.200  0.00  0.00    +0.420 HD
ATOM     11  C   LIG    1       -1.811   5.125   0.333  0.00  0.00    +0.330 A 
ATOM     12  N   LIG    1       -0.506   5.011   0.363  0.00  0.00    -0.470 NA
ATOM     13  C   LIG    1       -0.161   3.702   0.292  0.00  0.00    +0.070 A 
ATOM     14  C   LIG    1        1.066   3.032   0.285  0.00  0.00    +0.050 A 
BRANCH  11  15
ATOM     15  C   LIG    1       -2.554   6.403   0.391  0.00  0.00    -0.000 A 
ATOM     16  C   LIG    1       -1.863   7.611   0.485  0.00  0.00    +0.070 A 
ATOM     17  C   LIG    1       -2.561   8.801   0.539  0.00  0.00    +0.050 A 
ATOM     18  C   LIG    1       -3.943   8.798   0.499  0.00  0.00    +0.000 A 
ATOM     19  C   LIG    1       -4.636   7.602   0.405  0.00  0.00    +0.100 A 
ATOM     20  F   LIG    1       -5.987   7.606   0.366  0.00  0.00    -0.130 F 
ATOM     21  C   LIG    1       -3.948   6.405   0.345  0.00  0.00    -0.010 A 
ENDBRANCH  11  15
ENDBRANCH   3   5
BRANCH   2  22
ATOM     22  C   LIG    1        3.719  -0.928  -0.432  0.00  0.00    -0.120 A 
ATOM     23  C   LIG    1        4.764  -0.477   0.378  0.00  0.00    +0.060 A 
ATOM     24  C   LIG    1        5.932  -1.201   0.459  0.00  0.00    +0.040 A 
ATOM     25  C   LIG    1        6.077  -2.374  -0.275  0.00  0.00    +0.150 A 
ATOM     26  C   LIG    1        5.040  -2.823  -1.087  0.00  0.00    +0.060 A 
ATOM     27  C   LIG    1        3.867  -2.107  -1.167  0.00  0.00    +0.110 A 
BRANCH  25  28
ATOM     28  N   LIG    1        7.265  -3.103  -0.196  0.00  0.00    -0.420 N 
ATOM     29  C   LIG    1        8.505  -2.695  -0.666  0.00  0.00    +0.190 A 
ATOM     30  C   LIG    1        9.379  -3.661  -0.404  0.00  0.00    +0.200 A 
ATOM     31  N   LIG    1        8.701  -4.688   0.234  0.00  0.00    -0.570 N 
ATOM     32  H   LIG    1        9.089  -5.522   0.542  0.00  0.00    +0.450 HD
ATOM     33  C   LIG    1        7.410  -4.324   0.356  0.00  0.00    +0.470 A 
ATOM     34  S   LIG    1        6.168  -5.252   1.084  0.00  0.00    -0.600 S 
ENDBRANCH  25  28
ENDBRANCH   2  22
TORSDOF 4
