REMARK  Name = ZINCvU0000000CK0.1
REMARK                            x       y       z     vdW  Elec       q    Type
REMARK                         _______ _______ _______ _____ _____    ______ ____
ROOT
ATOM      1  O   LIG    1        3.055   2.195  -1.240  0.00  0.00    -0.510 OA
ATOM      2  C   LIG    1        2.147   1.521  -0.792  0.00  0.00    +0.560 C 
ATOM      3  N   LIG    1        1.064   2.120  -0.259  0.00  0.00    -0.660 N 
ATOM      4  H   LIG    1        0.308   1.586   0.031  0.00  0.00    +0.410 HD
ENDROOT
BRANCH   3   5
ATOM      5  C   LIG    1        1.029   3.512  -0.124  0.00  0.00    +0.160 A 
ATOM      6  C   LIG    1       -0.180   4.192  -0.255  0.00  0.00    +0.000 A 
ATOM      7  C   LIG    1       -0.232   5.550  -0.126  0.00  0.00    +0.100 A 
ATOM      8  C   LIG    1        0.936   6.272   0.141  0.00  0.00    +0.040 A 
ATOM      9  N   LIG    1        1.194   7.591   0.317  0.00  0.00    -0.470 NA
ATOM     10  C   LIG    1        2.473   7.763   0.545  0.00  0.00    +0.320 A 
ATOM     11  N   LIG    1        3.114   6.553   0.528  0.00  0.00    -0.590 N 
ATOM     12  H   LIG    1        4.062   6.402   0.670  0.00  0.00    +0.420 HD
ATOM     13  C   LIG    1        2.159   5.588   0.273  0.00  0.00    +0.080 A 
ATOM     14  C   LIG    1        2.197   4.208   0.145  0.00  0.00    +0.020 A 
BRANCH  10  15
ATOM     15  C   LIG    1        3.126   9.069   0.785  0.00  0.00    +0.000 A 
ATOM     16  C   LIG    1        2.370  10.241   0.780  0.00  0.00    +0.070 A 
ATOM     17  C   LIG    1        2.983  11.457   1.005  0.00  0.00    +0.050 A 
ATOM     18  C   LIG    1        4.346  11.515   1.236  0.00  0.00    +0.000 A 
ATOM     19  C   LIG    1        5.103  10.355   1.243  0.00  0.00    +0.100 A 
ATOM     20  F   LIG    1        6.434  10.419   1.470  0.00  0.00    -0.130 F 
ATOM     21  C   LIG    1        4.499   9.132   1.024  0.00  0.00    -0.010 A 
ENDBRANCH  10  15
ENDBRANCH   3   5
BRANCH   2  22
ATOM     22  C   LIG    1        2.233   0.049  -0.828  0.00  0.00    -0.120 A 
ATOM     23  C   LIG    1        1.195  -0.727  -0.305  0.00  0.00    +0.070 A 
ATOM     24  C   LIG    1        1.276  -2.100  -0.345  0.00  0.00    +0.040 A 
ATOM     25  C   LIG    1        2.395  -2.717  -0.896  0.00  0.00    +0.150 A 
ATOM     26  C   LIG    1        3.433  -1.948  -1.413  0.00  0.00    +0.060 A 
ATOM     27  C   LIG    1        3.356  -0.574  -1.381  0.00  0.00    +0.110 A 
BRANCH  25  28
ATOM     28  N   LIG    1        2.476  -4.110  -0.931  0.00  0.00    -0.420 N 
ATOM     29  C   LIG    1        2.597  -4.948   0.168  0.00  0.00    +0.190 A 
ATOM     30  C   LIG    1        2.643  -6.199  -0.275  0.00  0.00    +0.200 A 
ATOM     31  N   LIG    1        2.552  -6.166  -1.658  0.00  0.00    -0.570 N 
ATOM     32  H   LIG    1        2.560  -6.935  -2.249  0.00  0.00    +0.450 HD
ATOM     33  C   LIG    1        2.444  -4.878  -2.038  0.00  0.00    +0.470 A 
ATOM     34  S   LIG    1        2.297  -4.314  -3.648  0.00  0.00    -0.600 S 
ENDBRANCH  25  28
ENDBRANCH   2  22
TORSDOF 4
