REMARK  Name = ZINCAx0000000eD2.0
REMARK                            x       y       z     vdW  Elec       q    Type
REMARK                         _______ _______ _______ _____ _____    ______ ____
ROOT
ATOM      1  C   LIG    1       -3.246  15.005   0.037  0.00  0.00    +0.500 C 
ATOM      2  N   LIG    1       -2.399  14.078  -0.452  0.00  0.00    -0.610 N 
ATOM      3  C   LIG    1       -2.622  13.485  -1.778  0.00  0.00    +0.270 C 
ATOM      4  C   LIG    1       -2.637  11.960  -1.638  0.00  0.00    +0.020 C 
ATOM      5  C   LIG    1       -1.346  11.499  -0.955  0.00  0.00    +0.000 C 
ATOM      6  C   LIG    1       -1.352   9.973  -0.845  0.00  0.00    +0.020 C 
ATOM      7  C   LIG    1       -0.069   9.504  -0.157  0.00  0.00    +0.240 C 
ATOM      8  C   LIG    1        0.009  10.113   1.244  0.00  0.00    +0.000 C 
ATOM      9  C   LIG    1        0.019  11.639   1.135  0.00  0.00    +0.030 C 
ATOM     10  C   LIG    1       -1.262  12.112   0.445  0.00  0.00    -0.020 C 
ATOM     11  C   LIG    1       -1.234  13.640   0.329  0.00  0.00    +0.280 C 
ATOM     12  O   LIG    1       -3.050  15.487   1.133  0.00  0.00    -0.520 OA
ENDROOT
BRANCH   1  19
ATOM     13  C   LIG    1       -9.085  13.647   2.756  0.00  0.00    +0.100 C 
ATOM     14  C   LIG    1       -8.039  14.453   2.030  0.00  0.00    -0.110 A 
ATOM     15  C   LIG    1       -7.760  15.747   2.428  0.00  0.00    +0.050 A 
ATOM     16  C   LIG    1       -6.806  16.490   1.764  0.00  0.00    +0.000 A 
ATOM     17  C   LIG    1       -6.115  15.943   0.686  0.00  0.00    +0.110 A 
ATOM     18  O   LIG    1       -5.153  16.493  -0.105  0.00  0.00    -0.270 OA
ATOM     19  C   LIG    1       -4.435  15.444  -0.777  0.00  0.00    +0.200 C 
ATOM     20  C   LIG    1       -5.486  14.312  -0.866  0.00  0.00    +0.110 C 
ATOM     21  C   LIG    1       -6.398  14.638   0.301  0.00  0.00    -0.170 A 
ATOM     22  C   LIG    1       -7.354  13.900   0.962  0.00  0.00    +0.050 A 
ENDBRANCH   1  19
BRANCH   7  23
ATOM     23  N   LIG    1       -0.076   8.042  -0.055  0.00  0.00    -0.720 N 
ATOM     24  H   LIG    1       -0.918   7.560  -0.051  0.00  0.00    +0.410 HD
ATOM     25  C   LIG    1        1.087   7.367   0.032  0.00  0.00    +0.590 C 
ATOM     26  O   LIG    1        2.138   7.975   0.119  0.00  0.00    -0.550 OA
BRANCH  25  27
ATOM     27  C   LIG    1        1.087   5.900   0.022  0.00  0.00    -0.370 A 
ATOM     28  C   LIG    1        2.291   5.183  -0.010  0.00  0.00    +0.460 A 
ATOM     29  N   LIG    1        2.269   3.866  -0.020  0.00  0.00    -0.540 NA
ATOM     30  C   LIG    1        1.121   3.183   0.003  0.00  0.00    +0.400 A 
ATOM     31  C   LIG    1        1.157   1.779  -0.007  0.00  0.00    +0.030 A 
ATOM     32  C   LIG    1       -0.012   1.076   0.015  0.00  0.00    +0.140 A 
ATOM     33  C   LIG    1       -1.231   1.764   0.043  0.00  0.00    +0.010 A 
ATOM     34  C   LIG    1       -1.245   3.117   0.057  0.00  0.00    +0.290 A 
ATOM     35  N   LIG    1       -0.084   3.826   0.035  0.00  0.00    -0.420 N 
ATOM     36  C   LIG    1       -0.130   5.176   0.045  0.00  0.00    +0.530 A 
ATOM     37  O   LIG    1       -1.199   5.760   0.074  0.00  0.00    -0.520 OA
ENDBRANCH  25  27
ENDBRANCH   7  23
TORSDOF 3
