REMARK  Name = ZINCrH00000No547.0
REMARK                            x       y       z     vdW  Elec       q    Type
REMARK                         _______ _______ _______ _____ _____    ______ ____
ROOT
ATOM      1  C   LIG    1       -8.292   2.782  -2.636  0.00  0.00    +0.110 A 
ATOM      2  C   LIG    1       -6.976   2.372  -2.573  0.00  0.00    -0.010 A 
ATOM      3  C   LIG    1       -6.264   2.495  -1.373  0.00  0.00    -0.080 A 
ATOM      4  C   LIG    1       -6.889   3.044  -0.247  0.00  0.00    +0.050 A 
ATOM      5  C   LIG    1       -8.201   3.457  -0.321  0.00  0.00    -0.040 A 
ATOM      6  C   LIG    1       -8.908   3.329  -1.509  0.00  0.00    +0.120 A 
ENDROOT
BRANCH   3   7
ATOM      7  C   LIG    1       -4.865   2.055  -1.298  0.00  0.00    +0.150 C 
ATOM      8  C   LIG    1       -4.178   2.180  -0.139  0.00  0.00    -0.120 C 
BRANCH   8   9
ATOM      9  C   LIG    1       -2.828   1.755  -0.067  0.00  0.00    +0.420 C 
ATOM     10  O   LIG    1       -2.286   1.277  -1.047  0.00  0.00    -0.460 OA
BRANCH   9  11
ATOM     11  C   LIG    1       -2.076   1.892   1.200  0.00  0.00    -0.170 A 
ATOM     12  C   LIG    1       -2.727   2.319   2.359  0.00  0.00    +0.060 A 
ATOM     13  C   LIG    1       -2.019   2.450   3.535  0.00  0.00    -0.010 A 
ATOM     14  C   LIG    1       -0.668   2.154   3.570  0.00  0.00    +0.040 A 
ATOM     15  C   LIG    1       -0.018   1.723   2.427  0.00  0.00    -0.010 A 
ATOM     16  C   LIG    1       -0.714   1.588   1.244  0.00  0.00    -0.030 A 
ATOM     17  C   LIG    1       -0.005   1.119  -0.000  0.00  0.00    +0.110 C 
ENDBRANCH   9  11
ENDBRANCH   8   9
ENDBRANCH   3   7
BRANCH   1  18
ATOM     18  O   LIG    1       -8.988   2.659  -3.798  0.00  0.00    -0.300 OA
BRANCH  18  20
ATOM     19  C   LIG    1       -9.233   2.034  -6.119  0.00  0.00    +0.070 C 
ATOM     20  C   LIG    1       -8.296   2.091  -4.912  0.00  0.00    +0.170 C 
ENDBRANCH  18  20
ENDBRANCH   1  18
BRANCH   6  21
ATOM     21  O   LIG    1      -10.201   3.737  -1.575  0.00  0.00    -0.270 OA
BRANCH  21  22
ATOM     22  C   LIG    1      -10.769   4.287  -0.385  0.00  0.00    +0.230 C 
BRANCH  22  23
ATOM     23  C   LIG    1      -12.200   4.681  -0.647  0.00  0.00    +0.510 C 
ATOM     24  N   LIG    1      -12.941   5.226   0.338  0.00  0.00    -0.620 N 
ATOM     25  C   LIG    1      -12.354   5.436   1.664  0.00  0.00    +0.280 C 
ATOM     26  C   LIG    1      -14.331   5.609   0.083  0.00  0.00    +0.300 C 
ATOM     27  O   LIG    1      -12.685   4.507  -1.745  0.00  0.00    -0.510 OA
ENDBRANCH  22  23
ENDBRANCH  21  22
ENDBRANCH   6  21
TORSDOF 8
