REMARK  Name = ZINCpe000000UydC.0
REMARK                            x       y       z     vdW  Elec       q    Type
REMARK                         _______ _______ _______ _____ _____    ______ ____
ROOT
ATOM      1  C   LIG    1       -0.126  -0.409   2.520  0.00  0.00    +0.520 C 
ATOM      2  N   LIG    1        0.517  -1.074   3.501  0.00  0.00    -0.600 N 
ATOM      3  O   LIG    1       -0.790  -1.019   1.709  0.00  0.00    -0.510 OA
ENDROOT
BRANCH   2   4
ATOM      4  C   LIG    1        0.502  -2.538   3.525  0.00  0.00    +0.270 C 
ATOM      5  C   LIG    1       -0.946  -3.050   3.612  0.00  0.00    +0.060 C 
ATOM      6  C   LIG    1       -0.958  -4.558   3.294  0.00  0.00    -0.310 C 
ATOM      7  S   LIG    1        0.477  -4.824   2.192  0.00  0.00    +2.390 S 
ATOM      8  O   LIG    1        0.016  -5.154   0.889  0.00  0.00    -0.930 OA
ATOM      9  O   LIG    1        1.421  -5.663   2.842  0.00  0.00    -0.930 OA
ATOM     10  C   LIG    1        1.092  -3.097   2.204  0.00  0.00    -0.320 C 
ENDBRANCH   2   4
BRANCH   2  11
ATOM     11  C   LIG    1        1.230  -0.331   4.543  0.00  0.00    +0.230 C 
ATOM     12  C   LIG    1        2.734  -0.669   4.498  0.00  0.00    +0.010 C 
ATOM     13  C   LIG    1        3.163  -0.694   5.986  0.00  0.00    +0.020 C 
ATOM     14  C   LIG    1        1.941  -1.340   6.684  0.00  0.00    +0.010 C 
ATOM     15  C   LIG    1        0.725  -0.757   5.933  0.00  0.00    +0.020 C 
ENDBRANCH   2  11
BRANCH   1  16
ATOM     16  C   LIG    1       -0.019   1.091   2.431  0.00  0.00    +0.210 C 
BRANCH  16  18
ATOM     17  C   LIG    1        0.028   1.086   0.011  0.00  0.00    +0.210 C 
ATOM     18  N   LIG    1       -0.683   1.558   1.207  0.00  0.00    -0.520 NA
BRANCH  18  19
ATOM     19  C   LIG    1       -0.809   3.021   1.201  0.00  0.00    +0.300 C 
BRANCH  19  20
ATOM     20  C   LIG    1       -1.702   3.444   0.063  0.00  0.00    +0.210 A 
ATOM     21  N   LIG    1       -1.307   3.733  -1.147  0.00  0.00    -0.490 NA
ATOM     22  C   LIG    1       -2.372   4.065  -1.892  0.00  0.00    +0.140 A 
ATOM     23  C   LIG    1       -3.467   3.986  -1.112  0.00  0.00    +0.120 A 
ATOM     24  N   LIG    1       -3.042   3.593   0.128  0.00  0.00    -0.450 N 
ATOM     25  C   LIG    1       -3.885   3.373   1.306  0.00  0.00    +0.330 C 
ENDBRANCH  19  20
ENDBRANCH  18  19
ENDBRANCH  16  18
ENDBRANCH   1  16
TORSDOF 6
