REMARK  Name = ZINCpe000000WvFX.0
REMARK                            x       y       z     vdW  Elec       q    Type
REMARK                         _______ _______ _______ _____ _____    ______ ____
ROOT
ATOM      1  C   LIG    1       -1.330   1.944   0.019  0.00  0.00    +0.100 C 
ENDROOT
BRANCH   1   2
ATOM      2  C   LIG    1       -0.014   1.209   0.009  0.00  0.00    +0.520 C 
ATOM      3  N   LIG    1        1.143   1.898   0.001  0.00  0.00    -0.620 N 
ATOM      4  C   LIG    1        1.269   3.369   0.002  0.00  0.00    +0.250 C 
ATOM      5  C   LIG    1        2.676   3.649   0.602  0.00  0.00    +0.060 C 
ATOM      6  C   LIG    1        3.484   2.472   0.037  0.00  0.00    -0.090 C 
ATOM      7  C   LIG    1        4.712   2.158   0.893  0.00  0.00    +0.290 C 
ATOM      8  N   LIG    1        5.751   1.746  -0.064  0.00  0.00    -0.730 N 
ATOM      9  H   LIG    1        6.568   1.283   0.180  0.00  0.00    +0.410 HD
ATOM     10  C   LIG    1        5.424   2.095  -1.322  0.00  0.00    +0.520 C 
ATOM     11  O   LIG    1        6.105   1.881  -2.303  0.00  0.00    -0.530 OA
ATOM     12  C   LIG    1        4.078   2.794  -1.336  0.00  0.00    +0.080 C 
ATOM     13  C   LIG    1        2.495   1.309  -0.015  0.00  0.00    +0.280 C 
ATOM     14  O   LIG    1        0.002  -0.004   0.002  0.00  0.00    -0.500 OA
ENDBRANCH   1   2
BRANCH   1  24
ATOM     15  C   LIG    1       -6.340   2.676  -0.292  0.00  0.00    +0.170 A 
ATOM     16  C   LIG    1       -5.635   2.991   0.861  0.00  0.00    -0.090 A 
ATOM     17  C   LIG    1       -4.368   2.473   1.055  0.00  0.00    +0.110 A 
ATOM     18  C   LIG    1       -3.809   1.646   0.106  0.00  0.00    -0.180 A 
ATOM     19  C   LIG    1       -4.503   1.321  -1.054  0.00  0.00    +0.190 A 
ATOM     20  N   LIG    1       -3.734   0.475  -1.855  0.00  0.00    -0.670 N 
ATOM     21  H   LIG    1       -4.027   0.127  -2.711  0.00  0.00    +0.410 HD
ATOM     22  C   LIG    1       -2.538   0.198  -1.302  0.00  0.00    +0.530 C 
ATOM     23  O   LIG    1       -1.670  -0.507  -1.773  0.00  0.00    -0.460 OA
ATOM     24  C   LIG    1       -2.479   0.934   0.019  0.00  0.00    +0.070 C 
ATOM     25  C   LIG    1       -5.779   1.844  -1.247  0.00  0.00    -0.040 A 
BRANCH  15  27
ATOM     26  C   LIG    1       -8.104   4.035   0.539  0.00  0.00    +0.250 C 
ATOM     27  O   LIG    1       -7.585   3.184  -0.485  0.00  0.00    -0.310 OA
ENDBRANCH  15  27
ENDBRANCH   1  24
TORSDOF 3
