REMARK  Name = ZINCqH0000031z9S.0
REMARK                            x       y       z     vdW  Elec       q    Type
REMARK                         _______ _______ _______ _____ _____    ______ ____
ROOT
ATOM      1  C   LIG    1        1.359   5.428  -1.582  0.00  0.00    +0.570 C 
ATOM      2  N   LIG    1        1.347   4.101  -1.348  0.00  0.00    -0.720 N 
ATOM      3  H   LIG    1        1.482   3.478  -2.079  0.00  0.00    +0.400 HD
ATOM      4  O   LIG    1        1.190   6.209  -0.666  0.00  0.00    -0.540 OA
ENDROOT
BRANCH   1   8
ATOM      5  C   LIG    1        1.984   6.878  -5.528  0.00  0.00    +0.130 A 
ATOM      6  C   LIG    1        1.972   5.511  -5.285  0.00  0.00    -0.040 A 
ATOM      7  C   LIG    1        1.770   5.038  -4.006  0.00  0.00    +0.050 A 
ATOM      8  C   LIG    1        1.576   5.933  -2.952  0.00  0.00    -0.140 A 
ATOM      9  C   LIG    1        1.583   7.309  -3.198  0.00  0.00    +0.040 A 
ATOM     10  C   LIG    1        1.792   7.777  -4.480  0.00  0.00    +0.090 A 
BRANCH  10  11
ATOM     11  O   LIG    1        1.804   9.116  -4.722  0.00  0.00    -0.300 OA
ATOM     12  C   LIG    1        1.601   9.979  -3.602  0.00  0.00    +0.240 C 
ENDBRANCH  10  11
BRANCH   5  13
ATOM     13  O   LIG    1        2.183   7.339  -6.790  0.00  0.00    -0.290 OA
BRANCH  13  14
ATOM     14  C   LIG    1        2.373   6.362  -7.815  0.00  0.00    +0.220 C 
BRANCH  14  16
ATOM     15  C   LIG    1        3.533   6.662  -9.943  0.00  0.00    +0.040 C 
ATOM     16  C   LIG    1        2.578   7.056  -9.138  0.00  0.00    -0.040 C 
ENDBRANCH  14  16
ENDBRANCH  13  14
ENDBRANCH   5  13
ENDBRANCH   1   8
BRANCH   2  17
ATOM     17  C   LIG    1        1.131   3.599   0.012  0.00  0.00    +0.330 C 
BRANCH  17  18
ATOM     18  C   LIG    1        1.164   2.092   0.002  0.00  0.00    -0.120 A 
ATOM     19  C   LIG    1       -0.017   1.380   0.010  0.00  0.00    +0.090 A 
ATOM     20  C   LIG    1        0.002  -0.004   0.002  0.00  0.00    -0.070 A 
ATOM     21  C   LIG    1        1.213  -0.674  -0.010  0.00  0.00    +0.090 A 
ATOM     22  C   LIG    1        2.393   0.036  -0.015  0.00  0.00    -0.170 A 
ATOM     23  C   LIG    1        3.845  -0.401  -0.017  0.00  0.00    +0.090 C 
ATOM     24  C   LIG    1        4.572   0.903   0.387  0.00  0.00    +0.240 C 
ATOM     25  O   LIG    1        3.653   1.924  -0.036  0.00  0.00    -0.290 OA
ATOM     26 CL   LIG    1       -1.487  -0.896   0.006  0.00  0.00    -0.060 Cl
ATOM     27  C   LIG    1        2.387   1.425  -0.014  0.00  0.00    +0.130 A 
ENDBRANCH  17  18
ENDBRANCH   2  17
TORSDOF 7
