REMARK  Name = ZINCrD00000l827J.0
REMARK                            x       y       z     vdW  Elec       q    Type
REMARK                         _______ _______ _______ _____ _____    ______ ____
ROOT
ATOM      1  N   LIG    1        1.932  -2.089  -2.264  0.00  0.00    -0.660 N 
ATOM      2  H   LIG    1        2.733  -2.217  -1.732  0.00  0.00    +0.410 HD
ATOM      3  C   LIG    1        0.939  -1.301  -1.808  0.00  0.00    +0.510 C 
ATOM      4  O   LIG    1       -0.094  -1.202  -2.436  0.00  0.00    -0.500 OA
ENDROOT
BRANCH   1  10
ATOM      5  N   LIG    1        1.380  -4.463  -7.182  0.00  0.00    -0.390 N 
ATOM      6  N   LIG    1        0.638  -3.481  -7.847  0.00  0.00    -0.230 NA
ATOM      7  C   LIG    1        0.410  -2.477  -7.050  0.00  0.00    +0.280 A 
ATOM      8  C   LIG    1        1.028  -2.781  -5.764  0.00  0.00    -0.210 A 
ATOM      9  C   LIG    1        1.121  -2.106  -4.542  0.00  0.00    +0.150 A 
ATOM     10  C   LIG    1        1.809  -2.722  -3.509  0.00  0.00    +0.050 A 
ATOM     11  C   LIG    1        2.381  -3.975  -3.720  0.00  0.00    +0.330 A 
ATOM     12  N   LIG    1        2.275  -4.592  -4.876  0.00  0.00    -0.480 NA
ATOM     13  C   LIG    1        1.629  -4.049  -5.900  0.00  0.00    +0.300 A 
BRANCH   5  15
ATOM     14  C   LIG    1        0.601  -6.540  -8.211  0.00  0.00    +0.050 C 
ATOM     15  C   LIG    1        1.821  -5.732  -7.765  0.00  0.00    +0.270 C 
ATOM     16  C   LIG    1        2.718  -5.455  -8.973  0.00  0.00    +0.050 C 
ENDBRANCH   5  15
ENDBRANCH   1  10
BRANCH   3  17
ATOM     17  C   LIG    1        1.111  -0.543  -0.516  0.00  0.00    +0.240 C 
ATOM     18  C   LIG    1        1.932   0.740  -0.767  0.00  0.00    +0.070 C 
ATOM     19  C   LIG    1        1.240   1.780   0.154  0.00  0.00    +0.060 C 
ATOM     20  C   LIG    1       -0.243   1.345   0.055  0.00  0.00    +0.250 C 
ATOM     21  N   LIG    1       -0.202  -0.127  -0.002  0.00  0.00    -0.600 N 
ATOM     22  C   LIG    1       -1.202  -0.956   0.360  0.00  0.00    +0.610 C 
ATOM     23  O   LIG    1       -1.076  -2.158   0.221  0.00  0.00    -0.520 OA
BRANCH  22  24
ATOM     24  C   LIG    1       -2.441  -0.408   0.919  0.00  0.00    -0.270 A 
ATOM     25  C   LIG    1       -3.541  -1.137   1.273  0.00  0.00    +0.100 A 
ATOM     26  C   LIG    1       -4.564  -0.369   1.776  0.00  0.00    -0.010 A 
ATOM     27  C   LIG    1       -4.316   0.945   1.825  0.00  0.00    -0.070 A 
ATOM     28  S   LIG    1       -2.753   1.293   1.236  0.00  0.00    +0.210 S 
ENDBRANCH  22  24
ENDBRANCH   3  17
TORSDOF 4
