REMARK  Name = ZINCvU0000000Hzu.0
REMARK                            x       y       z     vdW  Elec       q    Type
REMARK                         _______ _______ _______ _____ _____    ______ ____
ROOT
ATOM      1  O   LIG    1        2.042  -0.081  -1.290  0.00  0.00    -0.520 OA
ATOM      2  C   LIG    1        2.318   0.933  -0.685  0.00  0.00    +0.540 C 
ATOM      3  N   LIG    1        1.362   1.593  -0.002  0.00  0.00    -0.710 N 
ATOM      4  H   LIG    1        1.583   2.404   0.482  0.00  0.00    +0.400 HD
ENDROOT
BRANCH   3   5
ATOM      5  C   LIG    1       -0.013   1.086   0.008  0.00  0.00    +0.300 C 
BRANCH   5   6
ATOM      6  C   LIG    1       -0.742   1.585  -1.213  0.00  0.00    -0.100 A 
ATOM      7  C   LIG    1       -0.551   2.883  -1.649  0.00  0.00    +0.010 A 
ATOM      8  C   LIG    1       -1.217   3.340  -2.771  0.00  0.00    +0.000 A 
ATOM      9  C   LIG    1       -2.079   2.501  -3.453  0.00  0.00    +0.000 A 
ATOM     10  C   LIG    1       -2.273   1.205  -3.014  0.00  0.00    +0.000 A 
ATOM     11  C   LIG    1       -1.605   0.747  -1.893  0.00  0.00    +0.020 A 
ENDBRANCH   5   6
BRANCH   5  12
ATOM     12  C   LIG    1       -0.729   1.579   1.267  0.00  0.00    +0.090 C 
BRANCH  12  13
ATOM     13  C   LIG    1       -0.074   0.981   2.485  0.00  0.00    -0.090 A 
ATOM     14  C   LIG    1       -0.523  -0.226   2.989  0.00  0.00    +0.010 A 
ATOM     15  C   LIG    1        0.081  -0.777   4.103  0.00  0.00    +0.000 A 
ATOM     16  C   LIG    1        1.127  -0.118   4.720  0.00  0.00    +0.000 A 
ATOM     17  C   LIG    1        1.573   1.091   4.219  0.00  0.00    +0.000 A 
ATOM     18  C   LIG    1        0.973   1.640   3.102  0.00  0.00    +0.000 A 
ENDBRANCH  12  13
ENDBRANCH   5  12
ENDBRANCH   3   5
BRANCH   2  19
ATOM     19  C   LIG    1        3.732   1.454  -0.695  0.00  0.00    +0.090 C 
BRANCH  19  20
ATOM     20  S   LIG    1        4.773   0.357  -1.690  0.00  0.00    +0.160 S 
BRANCH  20  21
ATOM     21  C   LIG    1        6.322   1.181  -1.534  0.00  0.00    +0.120 A 
ATOM     22  N   LIG    1        6.551   2.285  -0.863  0.00  0.00    -0.290 NA
ATOM     23  N   LIG    1        7.795   2.598  -0.963  0.00  0.00    -0.260 NA
ATOM     24  C   LIG    1        8.408   1.711  -1.709  0.00  0.00    +0.210 A 
ATOM     25  O   LIG    1        7.489   0.795  -2.086  0.00  0.00    -0.200 OA
BRANCH  24  26
ATOM     26  C   LIG    1        9.841   1.713  -2.071  0.00  0.00    -0.040 A 
ATOM     27  C   LIG    1       10.362   0.696  -2.873  0.00  0.00    +0.090 A 
ATOM     28  C   LIG    1       11.699   0.705  -3.212  0.00  0.00    +0.000 A 
ATOM     29  C   LIG    1       12.527   1.715  -2.748  0.00  0.00    +0.130 A 
ATOM     30  C   LIG    1       12.016   2.725  -1.947  0.00  0.00    +0.000 A 
ATOM     31  F   LIG    1       13.837   1.716  -3.078  0.00  0.00    -0.130 F 
ATOM     32  C   LIG    1       10.679   2.728  -1.607  0.00  0.00    +0.110 A 
ENDBRANCH  24  26
ENDBRANCH  20  21
ENDBRANCH  19  20
ENDBRANCH   2  19
TORSDOF 8
