REMARK  Name = ZINCvU00000004o2.0
REMARK                            x       y       z     vdW  Elec       q    Type
REMARK                         _______ _______ _______ _____ _____    ______ ____
ROOT
ATOM      1  O   LIG    1       -0.448  -4.869   0.893  0.00  0.00    -0.450 OA
ATOM      2  C   LIG    1        0.061  -4.250  -0.020  0.00  0.00    +0.560 C 
ATOM      3  N   LIG    1        0.645  -4.910  -1.040  0.00  0.00    -0.630 N 
ATOM      4  H   LIG    1        1.051  -4.415  -1.769  0.00  0.00    +0.420 HD
ENDROOT
BRANCH   3   5
ATOM      5  C   LIG    1        0.664  -6.295  -1.047  0.00  0.00    +0.320 A 
ATOM      6  N   LIG    1        0.160  -7.045  -0.129  0.00  0.00    -0.460 NA
ATOM      7  C   LIG    1        0.254  -8.380  -0.280  0.00  0.00    +0.120 A 
ATOM      8  C   LIG    1        0.916  -8.747  -1.445  0.00  0.00    -0.180 A 
ATOM      9  C   LIG    1        1.106 -10.114  -1.754  0.00  0.00    -0.000 A 
ATOM     10  C   LIG    1        0.618 -11.104  -0.869  0.00  0.00    -0.040 A 
ATOM     11  C   LIG    1       -0.051 -10.709   0.307  0.00  0.00    +0.050 A 
ATOM     12  C   LIG    1        0.807 -12.460  -1.179  0.00  0.00    +0.030 A 
ATOM     13  C   LIG    1        1.458 -12.804  -2.325  0.00  0.00    +0.020 A 
ATOM     14  C   LIG    1        1.939 -11.830  -3.196  0.00  0.00    +0.030 A 
ATOM     15  C   LIG    1        1.772 -10.505  -2.926  0.00  0.00    +0.010 A 
ATOM     16  C   LIG    1       -0.224  -9.400   0.589  0.00  0.00    +0.070 A 
ATOM     17  S   LIG    1        1.387  -7.285  -2.308  0.00  0.00    +0.100 S 
ENDBRANCH   3   5
BRANCH   2  18
ATOM     18  C   LIG    1        0.040  -2.775  -0.013  0.00  0.00    -0.140 A 
ATOM     19  C   LIG    1        0.625  -2.061  -1.063  0.00  0.00    +0.120 A 
ATOM     20  C   LIG    1        0.605  -0.685  -1.052  0.00  0.00    -0.010 A 
ATOM     21  C   LIG    1        0.002  -0.004   0.002  0.00  0.00    +0.190 A 
ATOM     22  C   LIG    1       -0.577  -0.713   1.052  0.00  0.00    -0.030 A 
ATOM     23  C   LIG    1       -0.564  -2.088   1.045  0.00  0.00    +0.180 A 
BRANCH  21  24
ATOM     24  N   LIG    1       -0.017   1.386   0.010  0.00  0.00    -0.500 N 
ATOM     25  C   LIG    1       -0.805   1.908  -1.114  0.00  0.00    +0.180 C 
ATOM     26  C   LIG    1       -0.926   3.429  -0.992  0.00  0.00    +0.030 C 
ATOM     27  C   LIG    1        0.474   4.048  -0.995  0.00  0.00    +0.010 C 
ATOM     28  C   LIG    1        1.291   3.453   0.155  0.00  0.00    +0.030 C 
ATOM     29  C   LIG    1        1.347   1.931  -0.000  0.00  0.00    +0.180 C 
ENDBRANCH  21  24
BRANCH  22  30
ATOM     30  N   LIG    1       -1.211   0.015   2.174  0.00  0.00    +0.030 N 
ATOM     31  O   LIG    1       -1.226   1.233   2.179  0.00  0.00    -0.090 OA
ATOM     32  O   LIG    1       -1.718  -0.604   3.092  0.00  0.00    -0.190 OA
ENDBRANCH  22  30
ENDBRANCH   2  18
TORSDOF 4
