REMARK  Name = ZINCrH000004t5OR.0
REMARK                            x       y       z     vdW  Elec       q    Type
REMARK                         _______ _______ _______ _____ _____    ______ ____
ROOT
ATOM      1  N   LIG    1        0.932   5.369   0.998  0.00  0.00    -0.720 N 
ATOM      2  H   LIG    1        0.316   6.065   0.722  0.00  0.00    +0.400 HD
ATOM      3  C   LIG    1        1.304   5.272   2.290  0.00  0.00    +0.710 C 
ATOM      4  N   LIG    1        0.822   6.144   3.197  0.00  0.00    -0.740 N 
ATOM      5  H   LIG    1        0.206   6.841   2.921  0.00  0.00    +0.400 HD
ATOM      6  O   LIG    1        2.076   4.399   2.636  0.00  0.00    -0.590 OA
ENDROOT
BRANCH   1   7
ATOM      7  C   LIG    1        1.456   4.421   0.012  0.00  0.00    +0.410 C 
BRANCH   7   8
ATOM      8  C   LIG    1        1.422   5.050  -1.357  0.00  0.00    -0.110 A 
ATOM      9  C   LIG    1        0.339   5.821  -1.736  0.00  0.00    +0.080 A 
ATOM     10  C   LIG    1        0.309   6.403  -2.989  0.00  0.00    -0.010 A 
ATOM     11  C   LIG    1        1.360   6.205  -3.869  0.00  0.00    +0.110 A 
ATOM     12  C   LIG    1        2.442   5.429  -3.490  0.00  0.00    -0.010 A 
ATOM     13  F   LIG    1        1.329   6.769  -5.096  0.00  0.00    -0.140 F 
ATOM     14  C   LIG    1        2.472   4.852  -2.235  0.00  0.00    +0.060 A 
ENDBRANCH   7   8
BRANCH   7  20
ATOM     15  C   LIG    1        2.482   1.497  -0.013  0.00  0.00    +0.330 C 
ATOM     16  N   LIG    1        1.075   1.907   0.002  0.00  0.00    -0.450 N 
ATOM     17  C   LIG    1       -0.013   1.076   0.008  0.00  0.00    +0.130 A 
ATOM     18  C   LIG    1       -1.105   1.864   0.017  0.00  0.00    +0.140 A 
ATOM     19  N   LIG    1       -0.695   3.141   0.025  0.00  0.00    -0.470 NA
ATOM     20  C   LIG    1        0.610   3.174   0.013  0.00  0.00    +0.190 A 
ENDBRANCH   7  20
ENDBRANCH   1   7
BRANCH   4  21
ATOM     21  C   LIG    1        1.227   6.039   4.601  0.00  0.00    +0.320 C 
BRANCH  21  22
ATOM     22  C   LIG    1        0.541   7.140   5.413  0.00  0.00    +0.070 C 
BRANCH  22  23
ATOM     23  S   LIG    1        1.042   7.010   7.152  0.00  0.00    -0.090 S 
BRANCH  23  24
ATOM     24  C   LIG    1        0.168   8.335   7.916  0.00  0.00    -0.090 A 
ATOM     25  C   LIG    1       -0.652   9.159   7.155  0.00  0.00    -0.010 A 
ATOM     26  C   LIG    1       -1.340  10.194   7.759  0.00  0.00    +0.030 A 
ATOM     27  C   LIG    1       -1.205  10.416   9.117  0.00  0.00    +0.010 A 
ATOM     28  C   LIG    1       -0.386   9.601   9.877  0.00  0.00    +0.030 A 
ATOM     29  C   LIG    1        0.301   8.562   9.281  0.00  0.00    +0.030 A 
ENDBRANCH  23  24
ENDBRANCH  22  23
ENDBRANCH  21  22
ENDBRANCH   4  21
TORSDOF 7
