REMARK  Name = ZINCpk00000jAlLE.0
REMARK                            x       y       z     vdW  Elec       q    Type
REMARK                         _______ _______ _______ _____ _____    ______ ____
ROOT
ATOM      1  C   LIG    1        2.422   1.186  -0.015  0.00  0.00    +0.250 C 
ATOM      2  C   LIG    1        2.956   0.969   1.426  0.00  0.00    +0.030 C 
ATOM      3  C   LIG    1        4.482   0.872   1.218  0.00  0.00    +0.260 C 
ATOM      4  N   LIG    1        4.792   1.538  -0.056  0.00  0.00    -0.610 N 
ATOM      5  C   LIG    1        6.018   1.651  -0.605  0.00  0.00    +0.510 C 
ATOM      6  O   LIG    1        6.157   2.224  -1.664  0.00  0.00    -0.530 OA
ATOM      7  C   LIG    1        3.541   2.062  -0.632  0.00  0.00    +0.260 C 
ENDROOT
BRANCH   1   9
ATOM      8  C   LIG    1       -0.014   1.212   0.009  0.00  0.00    +0.600 C 
ATOM      9  N   LIG    1        1.143   1.901   0.001  0.00  0.00    -0.720 N 
ATOM     10  H   LIG    1        1.130   2.871   0.007  0.00  0.00    +0.400 HD
ATOM     11  O   LIG    1        0.002  -0.004   0.002  0.00  0.00    -0.550 OA
BRANCH   8  14
ATOM     12  N   LIG    1       -3.453   2.363   0.031  0.00  0.00    -0.360 N 
ATOM     13  C   LIG    1       -2.559   1.362   0.016  0.00  0.00    +0.320 A 
ATOM     14  C   LIG    1       -1.301   1.932   0.019  0.00  0.00    -0.300 A 
ATOM     15  C   LIG    1       -1.478   3.333   0.027  0.00  0.00    +0.270 A 
ATOM     16  N   LIG    1       -2.759   3.578   0.034  0.00  0.00    -0.290 NA
BRANCH  12  17
ATOM     17  C   LIG    1       -4.910   2.209   0.036  0.00  0.00    +0.320 C 
BRANCH  17  19
ATOM     18  C   LIG    1       -7.021   2.812   1.229  0.00  0.00    +0.030 C 
ATOM     19  C   LIG    1       -5.499   2.973   1.224  0.00  0.00    +0.010 C 
ENDBRANCH  17  19
ENDBRANCH  12  17
ENDBRANCH   8  14
ENDBRANCH   1   9
BRANCH   5  20
ATOM     20  C   LIG    1        7.215   1.064   0.097  0.00  0.00    +0.290 C 
BRANCH  20  21
ATOM     21  C   LIG    1        7.437   1.787   1.401  0.00  0.00    -0.140 A 
ATOM     22  C   LIG    1        8.046   2.972   1.469  0.00  0.00    -0.030 A 
ATOM     23  S   LIG    1        8.122   3.500   3.145  0.00  0.00    +0.130 S 
ATOM     24  C   LIG    1        7.298   2.039   3.674  0.00  0.00    -0.040 A 
ATOM     25  C   LIG    1        7.019   1.275   2.617  0.00  0.00    +0.020 A 
ENDBRANCH  20  21
BRANCH  20  26
ATOM     26  O   LIG    1        8.371   1.208  -0.731  0.00  0.00    -0.530 OA
ATOM     27  H   LIG    1        8.588   2.126  -0.947  0.00  0.00    +0.380 HD
ENDBRANCH  20  26
ENDBRANCH   5  20
TORSDOF 7
