REMARK  Name = ZINCpe000000VkTB.0
REMARK                            x       y       z     vdW  Elec       q    Type
REMARK                         _______ _______ _______ _____ _____    ______ ____
ROOT
ATOM      1  C   LIG    1       -3.613   2.026  -0.431  0.00  0.00    +0.010 C 
ATOM      2  C   LIG    1       -4.595   2.063   0.763  0.00  0.00    +0.210 C 
ATOM      3  N   LIG    1       -4.309   0.819   1.523  0.00  0.00    -0.490 NA
ATOM      4  C   LIG    1       -2.829   0.692   1.471  0.00  0.00    +0.190 C 
ATOM      5  C   LIG    1       -2.452   1.124   0.037  0.00  0.00    +0.280 C 
ENDROOT
BRANCH   5   6
ATOM      6  N   LIG    1       -1.196   1.877   0.047  0.00  0.00    -0.710 N 
ATOM      7  H   LIG    1       -0.943   2.389   0.831  0.00  0.00    +0.410 HD
ATOM      8  C   LIG    1       -0.390   1.858  -1.034  0.00  0.00    +0.580 C 
ATOM      9  O   LIG    1       -0.707   1.216  -2.016  0.00  0.00    -0.510 OA
BRANCH   8  10
ATOM     10  C   LIG    1        0.877   2.624  -1.026  0.00  0.00    +0.020 A 
ATOM     11  C   LIG    1        1.712   2.606  -2.142  0.00  0.00    +0.290 A 
ATOM     12  N   LIG    1        2.839   3.295  -2.133  0.00  0.00    -0.440 NA
ATOM     13  C   LIG    1        3.180   3.992  -1.064  0.00  0.00    +0.260 A 
ATOM     14  C   LIG    1        2.354   4.008   0.052  0.00  0.00    +0.230 A 
ATOM     15  N   LIG    1        1.226   3.328   0.048  0.00  0.00    -0.410 NA
ENDBRANCH   8  10
ENDBRANCH   5   6
BRANCH   1  16
ATOM     16  C   LIG    1       -3.109   3.412  -0.738  0.00  0.00    +0.480 C 
ATOM     17  O   LIG    1       -2.987   4.221   0.150  0.00  0.00    -0.500 OA
BRANCH  16  19
ATOM     18  C   LIG    1       -2.315   5.100  -2.222  0.00  0.00    +0.270 C 
ATOM     19  O   LIG    1       -2.795   3.747  -1.999  0.00  0.00    -0.350 OA
ENDBRANCH  16  19
ENDBRANCH   1  16
BRANCH   3  20
ATOM     20  C   LIG    1       -4.779   0.929   2.910  0.00  0.00    +0.220 C 
BRANCH  20  21
ATOM     21  C   LIG    1       -6.239   1.301   2.918  0.00  0.00    -0.090 A 
ATOM     22  C   LIG    1       -6.614   2.631   2.935  0.00  0.00    +0.010 A 
ATOM     23  C   LIG    1       -7.954   2.972   2.936  0.00  0.00    +0.000 A 
ATOM     24  C   LIG    1       -8.919   1.982   2.932  0.00  0.00    +0.000 A 
ATOM     25  C   LIG    1       -8.544   0.651   2.921  0.00  0.00    +0.000 A 
ATOM     26  C   LIG    1       -7.204   0.311   2.913  0.00  0.00    +0.020 A 
ENDBRANCH  20  21
ENDBRANCH   3  20
TORSDOF 6
