REMARK  Name = ZINCb80000002CDp.0
REMARK                            x       y       z     vdW  Elec       q    Type
REMARK                         _______ _______ _______ _____ _____    ______ ____
ROOT
ATOM      1  C   LIG    1        0.002  -0.004   0.002  0.00  0.00    -0.260 A 
ATOM      2  C   LIG    1        0.023  -0.710   1.194  0.00  0.00    +0.080 A 
ATOM      3  C   LIG    1        0.041  -2.095   1.142  0.00  0.00    +0.010 A 
ATOM      4  CA  LIG    1        0.038  -2.726  -0.100  0.00  0.00    +0.130 A 
ATOM      5  N   LIG    1        0.018  -2.012  -1.220  0.00  0.00    -0.440 NA
ATOM      6  C   LIG    1       -0.006  -0.698  -1.199  0.00  0.00    +0.270 A 
ENDROOT
BRANCH   4   7
ATOM      7  C   LIG    1        0.058  -4.204  -0.173  0.00  0.00    +0.520 C 
ATOM      8  OXT LIG    1        0.056  -4.762  -1.260  0.00  0.00    -0.640 OA
ATOM      9  O   LIG    1        0.077  -4.866   0.854  0.00  0.00    -0.660 OA
ENDBRANCH   4   7
BRANCH   1  10
ATOM     10  C   LIG    1       -0.018   1.503   0.010  0.00  0.00    +0.340 C 
BRANCH  10  11
ATOM     11  N   LIG    1        1.360   2.011  -0.000  0.00  0.00    -0.640 N 
ATOM     12  H   LIG    1        1.848   1.677   0.817  0.00  0.00    +0.430 HD
ATOM     13  H   LIG    1        1.346   3.020   0.005  0.00  0.00    +0.430 HD
ATOM     14  H   LIG    1        1.832   1.686  -0.830  0.00  0.00    +0.430 HD
ENDBRANCH  10  11
ENDBRANCH   1  10
TORSDOF 3
