REMARK  Name = ZINCrH000004r7QT.0
REMARK                            x       y       z     vdW  Elec       q    Type
REMARK                         _______ _______ _______ _____ _____    ______ ____
ROOT
ATOM      1  C   LIG    1       -5.945   3.034  -2.836  0.00  0.00    +0.530 C 
ATOM      2  N   LIG    1       -5.814   3.122  -1.497  0.00  0.00    -0.600 N 
ATOM      3  C   LIG    1       -6.711   2.363  -0.622  0.00  0.00    +0.290 C 
ATOM      4  O   LIG    1       -5.202   3.662  -3.560  0.00  0.00    -0.530 OA
ENDROOT
BRANCH   1   5
ATOM      5  C   LIG    1       -7.014   2.156  -3.432  0.00  0.00    +0.080 C 
BRANCH   5   6
ATOM      6  C   LIG    1       -6.947   2.235  -4.959  0.00  0.00    +0.220 C 
BRANCH   6   7
ATOM      7  O   LIG    1       -7.961   1.403  -5.524  0.00  0.00    -0.310 OA
BRANCH   7  13
ATOM      8  C   LIG    1       -6.280   2.866  -9.867  0.00  0.00    +0.090 C 
ATOM      9  C   LIG    1       -7.237   2.058  -9.029  0.00  0.00    -0.050 A 
ATOM     10  C   LIG    1       -8.196   1.272  -9.641  0.00  0.00    -0.030 A 
ATOM     11  C   LIG    1       -9.076   0.529  -8.875  0.00  0.00    +0.050 A 
ATOM     12  C   LIG    1       -8.996   0.567  -7.497  0.00  0.00    -0.120 A 
ATOM     13  C   LIG    1       -8.038   1.359  -6.880  0.00  0.00    +0.130 A 
ATOM     14  C   LIG    1       -9.951  -0.248  -6.663  0.00  0.00    +0.100 C 
ATOM     15  C   LIG    1       -7.157   2.103  -7.651  0.00  0.00    -0.070 A 
ENDBRANCH   7  13
ENDBRANCH   6   7
ENDBRANCH   5   6
ENDBRANCH   1   5
BRANCH   2  16
ATOM     16  C   LIG    1       -4.774   3.976  -0.917  0.00  0.00    +0.330 C 
BRANCH  16  17
ATOM     17  C   LIG    1       -3.510   3.175  -0.735  0.00  0.00    +0.500 C 
ATOM     18  N   LIG    1       -2.413   3.758  -0.214  0.00  0.00    -0.680 N 
ATOM     19  H   LIG    1       -2.456   4.671   0.111  0.00  0.00    +0.410 HD
ATOM     20  O   LIG    1       -3.481   2.007  -1.058  0.00  0.00    -0.510 OA
BRANCH  18  21
ATOM     21  C   LIG    1       -1.211   3.046  -0.140  0.00  0.00    +0.130 A 
ATOM     22  C   LIG    1       -0.565   2.649  -1.304  0.00  0.00    -0.070 A 
ATOM     23  C   LIG    1        0.620   1.942  -1.228  0.00  0.00    +0.010 A 
ATOM     24  C   LIG    1        1.167   1.639   0.005  0.00  0.00    +0.020 A 
ATOM     25  C   LIG    1        0.529   2.037   1.166  0.00  0.00    +0.010 A 
ATOM     26  C   LIG    1       -1.158   2.985  -2.648  0.00  0.00    +0.100 C 
ATOM     27  C   LIG    1       -0.658   2.740   1.096  0.00  0.00    -0.090 A 
ATOM     28  C   LIG    1       -1.353   3.174   2.361  0.00  0.00    +0.090 C 
ENDBRANCH  18  21
ENDBRANCH  16  17
ENDBRANCH   2  16
TORSDOF 7
