REMARK  Name = ZINCpe00000VVGGD.0
REMARK                            x       y       z     vdW  Elec       q    Type
REMARK                         _______ _______ _______ _____ _____    ______ ____
ROOT
ATOM      1  C   LIG    1        1.103   3.519   0.010  0.00  0.00    +0.340 C 
ENDROOT
BRANCH   1  11
ATOM      2  C   LIG    1        4.470   6.345   1.119  0.00  0.00    +0.060 C 
ATOM      3  C   LIG    1        4.532   4.816   1.129  0.00  0.00    +0.230 C 
ATOM      4  O   LIG    1        5.206   4.360  -0.047  0.00  0.00    -0.300 OA
ATOM      5  C   LIG    1        4.519   4.444  -1.218  0.00  0.00    +0.080 A 
ATOM      6  C   LIG    1        5.179   4.693  -2.408  0.00  0.00    +0.030 A 
ATOM      7  C   LIG    1        4.463   4.777  -3.588  0.00  0.00    +0.020 A 
ATOM      8  C   LIG    1        3.090   4.614  -3.584  0.00  0.00    +0.020 A 
ATOM      9  C   LIG    1        2.423   4.364  -2.398  0.00  0.00    +0.000 A 
ATOM     10  C   LIG    1        3.134   4.279  -1.213  0.00  0.00    +0.110 A 
ATOM     11  N   LIG    1        2.478   4.026   0.000  0.00  0.00    -0.530 N 
ATOM     12  C   LIG    1        3.130   4.262   1.159  0.00  0.00    +0.500 C 
ATOM     13  O   LIG    1        2.592   4.027   2.220  0.00  0.00    -0.510 OA
ENDBRANCH   1  11
BRANCH   1  14
ATOM     14  C   LIG    1        1.124   2.012   0.002  0.00  0.00    +0.480 C 
ATOM     15  O   LIG    1        2.185   1.418  -0.011  0.00  0.00    -0.530 OA
BRANCH  14  16
ATOM     16  N   LIG    1       -0.016   1.333   0.009  0.00  0.00    -0.660 NA
ATOM     17  C   LIG    1        0.002  -0.004   0.002  0.00  0.00    +0.550 C 
ATOM     18  N   LIG    1        1.128  -0.793  -0.019  0.00  0.00    -0.350 NA
ATOM     19  N   LIG    1        0.678  -2.121  -0.017  0.00  0.00    -0.260 N 
ATOM     20  C   LIG    1        1.325  -3.305  -0.030  0.00  0.00    +0.390 C 
ATOM     21  C   LIG    1        0.599  -4.458  -0.030  0.00  0.00    -0.010 C 
ATOM     22  C   LIG    1       -0.796  -4.382  -0.016  0.00  0.00    +0.420 C 
ATOM     23  N   LIG    1       -1.395  -3.209  -0.003  0.00  0.00    -0.470 NA
ATOM     24  C   LIG    1       -0.686  -2.077  -0.003  0.00  0.00    +0.480 C 
ATOM     25  N   LIG    1       -1.065  -0.795   0.008  0.00  0.00    -0.550 N 
ATOM     26  H   LIG    1       -1.985  -0.487   0.019  0.00  0.00    +0.460 HD
ENDBRANCH  14  16
ENDBRANCH   1  14
TORSDOF 3
