REMARK  Name = ZINCrg000000sxGp.0
REMARK                            x       y       z     vdW  Elec       q    Type
REMARK                         _______ _______ _______ _____ _____    ______ ____
ROOT
ATOM      1  C   LIG    1       -6.141  -0.563  -5.172  0.00  0.00    +0.130 C 
ATOM      2  C   LIG    1       -4.939  -0.955  -4.309  0.00  0.00    +0.040 C 
ATOM      3  C   LIG    1       -3.662  -0.375  -4.927  0.00  0.00    +0.280 C 
ATOM      4  N   LIG    1       -3.835   1.074  -5.098  0.00  0.00    -0.630 N 
ATOM      5  C   LIG    1       -5.011   1.563  -5.830  0.00  0.00    +0.300 C 
ATOM      6  C   LIG    1       -2.934   1.938  -4.589  0.00  0.00    +0.710 C 
ATOM      7  N   LIG    1       -1.810   1.475  -4.007  0.00  0.00    -0.740 N 
ATOM      8  H   LIG    1       -1.683   0.520  -3.890  0.00  0.00    +0.390 HD
ATOM      9  O   LIG    1       -3.136   3.135  -4.654  0.00  0.00    -0.580 OA
ATOM     10  C   LIG    1       -6.270   0.962  -5.207  0.00  0.00    +0.040 C 
ENDROOT
BRANCH   7  11
ATOM     11  C   LIG    1       -0.781   2.413  -3.552  0.00  0.00    +0.270 C 
ATOM     12  C   LIG    1        0.159   2.750  -4.716  0.00  0.00    +0.020 C 
ATOM     13  C   LIG    1        1.106   3.865  -4.265  0.00  0.00    +0.090 C 
ATOM     14  C   LIG    1        1.707   3.517  -2.933  0.00  0.00    +0.520 C 
ATOM     15  N   LIG    1        1.202   2.591  -2.117  0.00  0.00    -0.710 N 
ATOM     16  H   LIG    1        1.636   2.455  -1.261  0.00  0.00    +0.400 HD
ATOM     17  O   LIG    1        2.704   4.110  -2.581  0.00  0.00    -0.550 OA
ATOM     18  C   LIG    1        0.038   1.772  -2.431  0.00  0.00    +0.230 C 
BRANCH  18  19
ATOM     19  C   LIG    1       -0.835   1.633  -1.183  0.00  0.00    +0.160 C 
ATOM     20  C   LIG    1       -0.000   1.077  -0.002  0.00  0.00    +0.010 C 
ATOM     21  C   LIG    1       -0.808   1.615   1.211  0.00  0.00    +0.020 C 
ATOM     22  C   LIG    1       -1.322   2.973   0.685  0.00  0.00    +0.190 C 
ATOM     23  O   LIG    1       -1.289   2.924  -0.746  0.00  0.00    -0.370 OA
ENDBRANCH  18  19
ENDBRANCH   7  11
BRANCH   1  28
ATOM     24  C   LIG    1      -10.361  -3.168  -4.483  0.00  0.00    +0.200 C 
ATOM     25  C   LIG    1       -9.179  -2.255  -4.282  0.00  0.00    +0.170 A 
ATOM     26  N   LIG    1       -8.911  -1.568  -3.212  0.00  0.00    -0.380 NA
ATOM     27  O   LIG    1       -7.890  -0.932  -3.366  0.00  0.00    +0.080 OA
ATOM     28  C   LIG    1       -7.394  -1.159  -4.587  0.00  0.00    +0.190 A 
ATOM     29  N   LIG    1       -8.211  -1.997  -5.179  0.00  0.00    -0.480 NA
ENDBRANCH   1  28
TORSDOF 3
