REMARK  Name = ZINCtV000002uLYt.0
REMARK                            x       y       z     vdW  Elec       q    Type
REMARK                         _______ _______ _______ _____ _____    ______ ____
ROOT
ATOM      1  N   LIG    1        0.688  -0.476  -1.203  0.00  0.00    -0.510 N 
ATOM      2  C   LIG    1        2.019  -0.682  -1.181  0.00  0.00    +0.560 A 
ATOM      3  C   LIG    1        2.664  -1.143  -2.368  0.00  0.00    -0.230 A 
ATOM      4  C   LIG    1        1.883  -1.358  -3.496  0.00  0.00    +0.090 A 
ATOM      5  S   LIG    1        2.896  -1.919  -4.817  0.00  0.00    +0.190 S 
ATOM      6  C   LIG    1        4.348  -1.853  -3.831  0.00  0.00    -0.200 A 
ATOM      7  C   LIG    1        5.736  -2.225  -4.324  0.00  0.00    +0.120 C 
ATOM      8  C   LIG    1        6.772  -1.658  -3.351  0.00  0.00    +0.020 C 
ATOM      9  C   LIG    1        6.384  -2.054  -1.923  0.00  0.00    +0.020 C 
ATOM     10  C   LIG    1        5.133  -1.277  -1.510  0.00  0.00    +0.110 C 
ATOM     11  N   LIG    1        0.554  -1.130  -3.442  0.00  0.00    -0.510 NA
ATOM     12  C   LIG    1        4.075  -1.436  -2.594  0.00  0.00    -0.030 A 
ATOM     13  O   LIG    1        2.661  -0.479  -0.165  0.00  0.00    -0.510 OA
ATOM     14  C   LIG    1       -0.025  -0.712  -2.343  0.00  0.00    +0.360 A 
ENDROOT
BRANCH   1  15
ATOM     15  C   LIG    1        0.002  -0.004   0.002  0.00  0.00    +0.300 C 
BRANCH  15  16
ATOM     16  C   LIG    1       -0.019   1.526   0.010  0.00  0.00    +0.000 C 
BRANCH  16  17
ATOM     17  C   LIG    1       -0.735   2.019   1.269  0.00  0.00    +0.020 C 
BRANCH  17  19
ATOM     18  C   LIG    1       -1.472   4.042   2.536  0.00  0.00    +0.010 C 
ATOM     19  C   LIG    1       -0.756   3.549   1.278  0.00  0.00    +0.000 C 
ENDBRANCH  17  19
ENDBRANCH  16  17
ENDBRANCH  15  16
ENDBRANCH   1  15
BRANCH  14  20
ATOM     20  S   LIG    1       -1.766  -0.441  -2.339  0.00  0.00    +0.080 S 
BRANCH  20  21
ATOM     21  C   LIG    1       -2.160  -0.898  -4.045  0.00  0.00    +0.100 C 
BRANCH  21  22
ATOM     22  C   LIG    1       -3.640  -0.739  -4.280  0.00  0.00    +0.450 C 
ATOM     23  O   LIG    1       -4.359  -0.354  -3.380  0.00  0.00    -0.430 OA
BRANCH  22  24
ATOM     24  C   LIG    1       -4.190  -1.038  -5.544  0.00  0.00    -0.310 A 
ATOM     25  C   LIG    1       -5.517  -0.934  -5.880  0.00  0.00    +0.150 A 
ATOM     26  C   LIG    1       -5.776  -1.287  -7.179  0.00  0.00    +0.010 A 
ATOM     27  C   LIG    1       -4.703  -1.669  -7.890  0.00  0.00    -0.150 A 
ATOM     28 CL   LIG    1       -4.752  -2.166  -9.553  0.00  0.00    +0.000 Cl
ATOM     29  S   LIG    1       -3.285  -1.595  -6.945  0.00  0.00    +0.290 S 
ENDBRANCH  22  24
ENDBRANCH  21  22
ENDBRANCH  20  21
ENDBRANCH  14  20
TORSDOF 8
