REMARK  Name = ZINCrH000009myCN.0
REMARK                            x       y       z     vdW  Elec       q    Type
REMARK                         _______ _______ _______ _____ _____    ______ ____
ROOT
ATOM      1  C   LIG    1       -3.963   5.399   0.002  0.00  0.00    +0.240 A 
ATOM      2  N   LIG    1       -4.642   4.299  -0.195  0.00  0.00    -0.300 NA
ATOM      3  N   LIG    1       -3.744   3.229  -0.044  0.00  0.00    -0.370 N 
ATOM      4  C   LIG    1       -2.544   3.781   0.252  0.00  0.00    +0.330 A 
ATOM      5  N   LIG    1       -2.698   5.091   0.272  0.00  0.00    -0.500 NA
ENDROOT
BRANCH   4   6
ATOM      6  C   LIG    1       -1.287   3.049   0.502  0.00  0.00    -0.120 A 
ATOM      7  C   LIG    1       -1.202   2.142   1.539  0.00  0.00    +0.170 A 
ATOM      8  C   LIG    1        0.017   1.454   1.755  0.00  0.00    -0.150 A 
ATOM      9  C   LIG    1        0.130   0.527   2.802  0.00  0.00    +0.140 A 
ATOM     10  C   LIG    1        1.307  -0.132   3.003  0.00  0.00    -0.030 A 
ATOM     11  C   LIG    1        2.400   0.106   2.177  0.00  0.00    +0.170 A 
ATOM     12  C   LIG    1        2.312   1.014   1.140  0.00  0.00    -0.060 A 
ATOM     13  F   LIG    1        3.558  -0.555   2.391  0.00  0.00    -0.120 F 
ATOM     14  C   LIG    1        1.121   1.698   0.916  0.00  0.00    +0.230 A 
ATOM     15  N   LIG    1        1.029   2.605  -0.119  0.00  0.00    -0.620 N 
ATOM     16  H   LIG    1        1.799   2.762  -0.688  0.00  0.00    +0.420 HD
ATOM     17  C   LIG    1       -0.113   3.280  -0.346  0.00  0.00    +0.550 A 
ATOM     18  O   LIG    1       -0.174   4.081  -1.262  0.00  0.00    -0.500 OA
ENDBRANCH   4   6
BRANCH   3  19
ATOM     19  C   LIG    1       -4.047   1.802  -0.178  0.00  0.00    +0.240 C 
ATOM     20  C   LIG    1       -4.754   1.523  -1.527  0.00  0.00    +0.030 C 
ATOM     21  C   LIG    1       -5.835   0.487  -1.116  0.00  0.00    +0.220 C 
ATOM     22  O   LIG    1       -6.254   0.936   0.191  0.00  0.00    -0.360 OA
ATOM     23  C   LIG    1       -5.072   1.366   0.886  0.00  0.00    +0.210 C 
ENDBRANCH   3  19
BRANCH   1  24
ATOM     24  C   LIG    1       -4.526   6.795  -0.065  0.00  0.00    +0.100 C 
BRANCH  24  26
ATOM     25  C   LIG    1       -5.020   8.857   1.257  0.00  0.00    +0.030 C 
ATOM     26  C   LIG    1       -4.339   7.487   1.286  0.00  0.00    +0.020 C 
ENDBRANCH  24  26
BRANCH  24  27
ATOM     27  C   LIG    1       -3.794   7.588  -1.150  0.00  0.00    +0.030 C 
ATOM     28  C   LIG    1       -4.083   6.969  -2.518  0.00  0.00    +0.010 C 
ENDBRANCH  24  27
ENDBRANCH   1  24
TORSDOF 5
