REMARK  Name = ZINCrD000000fn0u.0
REMARK                            x       y       z     vdW  Elec       q    Type
REMARK                         _______ _______ _______ _____ _____    ______ ____
ROOT
ATOM      1  N   LIG    1        2.481  -2.887  -0.186  0.00  0.00    -0.600 N 
ATOM      2  C   LIG    1        1.242  -2.359  -0.248  0.00  0.00    +0.560 C 
ATOM      3  O   LIG    1        0.271  -3.060  -0.040  0.00  0.00    -0.500 OA
ENDROOT
BRANCH   2   4
ATOM      4  C   LIG    1        1.065  -0.929  -0.571  0.00  0.00    -0.120 A 
ATOM      5  C   LIG    1        1.748   0.044   0.163  0.00  0.00    +0.060 A 
ATOM      6  C   LIG    1        1.580   1.377  -0.140  0.00  0.00    +0.030 A 
ATOM      7  C   LIG    1        0.732   1.754  -1.176  0.00  0.00    +0.130 A 
ATOM      8  C   LIG    1        0.051   0.789  -1.908  0.00  0.00    +0.030 A 
ATOM      9  C   LIG    1        0.213  -0.546  -1.610  0.00  0.00    +0.080 A 
BRANCH   7  10
ATOM     10  N   LIG    1        0.565   3.108  -1.481  0.00  0.00    -0.530 N 
ATOM     11  C   LIG    1        0.104   3.999  -0.594  0.00  0.00    +0.520 C 
ATOM     12  C   LIG    1        0.049   5.365  -1.243  0.00  0.00    +0.110 C 
ATOM     13  C   LIG    1        0.553   5.104  -2.677  0.00  0.00    +0.110 C 
ATOM     14  O   LIG    1       -0.215   3.752   0.549  0.00  0.00    -0.470 OA
ATOM     15  C   LIG    1        0.846   3.620  -2.686  0.00  0.00    +0.520 C 
ATOM     16  O   LIG    1        1.268   2.993  -3.634  0.00  0.00    -0.470 OA
ENDBRANCH   7  10
ENDBRANCH   2   4
BRANCH   1  17
ATOM     17  C   LIG    1        3.654  -2.021  -0.323  0.00  0.00    +0.320 C 
BRANCH  17  19
ATOM     18  C   LIG    1        5.429  -1.900   1.350  0.00  0.00    +0.040 C 
ATOM     19  C   LIG    1        4.177  -1.663   1.045  0.00  0.00    -0.080 C 
ENDBRANCH  17  19
ENDBRANCH   1  17
BRANCH   1  20
ATOM     20  C   LIG    1        2.654  -4.327   0.019  0.00  0.00    +0.350 C 
BRANCH  20  21
ATOM     21  C   LIG    1        2.698  -5.023  -1.317  0.00  0.00    -0.150 A 
ATOM     22  C   LIG    1        3.901  -5.481  -1.817  0.00  0.00    +0.050 A 
ATOM     23  C   LIG    1        3.942  -6.120  -3.043  0.00  0.00    -0.010 A 
ATOM     24  C   LIG    1        2.780  -6.300  -3.769  0.00  0.00    +0.050 A 
ATOM     25  C   LIG    1        1.575  -5.842  -3.270  0.00  0.00    -0.030 A 
ATOM     26  C   LIG    1        1.532  -5.208  -2.040  0.00  0.00    +0.120 A 
ATOM     27  F   LIG    1        0.354  -4.766  -1.548  0.00  0.00    -0.120 F 
ENDBRANCH  20  21
ENDBRANCH   1  20
TORSDOF 6
