REMARK  Name = ZINCrg00000SjSGd.0
REMARK                            x       y       z     vdW  Elec       q    Type
REMARK                         _______ _______ _______ _____ _____    ______ ____
ROOT
ATOM      1  N   LIG    1       -0.956   2.410   6.862  0.00  0.00    -0.390 N 
ATOM      2  C   LIG    1       -0.905   1.282   6.127  0.00  0.00    +0.290 A 
ATOM      3  N   LIG    1       -1.741   0.400   6.614  0.00  0.00    -0.490 NA
ATOM      4  C   LIG    1       -2.372   0.911   7.674  0.00  0.00    +0.320 A 
ATOM      5  N   LIG    1       -3.333   0.427   8.546  0.00  0.00    -0.510 N 
ATOM      6  C   LIG    1       -3.857  -0.931   8.376  0.00  0.00    +0.340 C 
ATOM      7  C   LIG    1       -3.788   1.202   9.549  0.00  0.00    +0.710 A 
ATOM      8  O   LIG    1       -4.632   0.759  10.304  0.00  0.00    -0.530 OA
ATOM      9  N   LIG    1       -3.332   2.452   9.736  0.00  0.00    -0.550 N 
ATOM     10  C   LIG    1       -3.860   3.254  10.843  0.00  0.00    +0.350 C 
ATOM     11  C   LIG    1       -2.396   2.980   8.921  0.00  0.00    +0.590 A 
ATOM     12  O   LIG    1       -1.990   4.114   9.101  0.00  0.00    -0.510 OA
ATOM     13  C   LIG    1       -1.891   2.202   7.856  0.00  0.00    -0.150 A 
ENDROOT
BRANCH   1  14
ATOM     14  C   LIG    1       -0.170   3.627   6.646  0.00  0.00    +0.310 C 
BRANCH  14  15
ATOM     15  C   LIG    1       -0.931   4.566   5.709  0.00  0.00    +0.020 C 
BRANCH  15  17
ATOM     16  C   LIG    1       -0.812   6.722   4.451  0.00  0.00    +0.020 C 
ATOM     17  C   LIG    1       -0.110   5.838   5.483  0.00  0.00    -0.020 C 
ATOM     18  C   LIG    1        0.021   6.601   6.803  0.00  0.00    +0.020 C 
ENDBRANCH  15  17
ENDBRANCH  14  15
ENDBRANCH   1  14
BRANCH   2  19
ATOM     19  C   LIG    1       -0.016   1.066   4.930  0.00  0.00    +0.310 C 
BRANCH  19  20
ATOM     20  N   LIG    1       -0.724   1.484   3.712  0.00  0.00    -0.530 NA
ATOM     21  C   LIG    1       -2.096   0.955   3.692  0.00  0.00    +0.160 C 
ATOM     22  C   LIG    1       -2.814   1.463   2.439  0.00  0.00    +0.150 C 
ATOM     23  O   LIG    1       -2.069   1.081   1.280  0.00  0.00    -0.380 OA
ATOM     24  C   LIG    1       -0.729   1.579   1.267  0.00  0.00    +0.160 C 
ATOM     25  C   LIG    1       -0.013   1.086   0.008  0.00  0.00    +0.050 C 
ATOM     26  C   LIG    1       -4.216   0.853   2.372  0.00  0.00    +0.060 C 
ATOM     27  C   LIG    1        0.011   1.073   2.508  0.00  0.00    +0.160 C 
ENDBRANCH  19  20
ENDBRANCH   2  19
TORSDOF 5
