REMARK  Name = ZINCnE000001TvM2.1
REMARK                            x       y       z     vdW  Elec       q    Type
REMARK                         _______ _______ _______ _____ _____    ______ ____
ROOT
ATOM      1  C   LIG    1        1.199  -2.169  -0.021  0.00  0.00    +0.330 C 
ENDROOT
BRANCH   1   2
ATOM      2  C   LIG    1        2.626  -2.652  -0.036  0.00  0.00    -0.080 A 
ATOM      3  C   LIG    1        3.484  -2.307   0.992  0.00  0.00    +0.050 A 
ATOM      4  C   LIG    1        4.792  -2.754   0.980  0.00  0.00    -0.010 A 
ATOM      5  C   LIG    1        5.245  -3.538  -0.065  0.00  0.00    +0.000 A 
ATOM      6  C   LIG    1        4.389  -3.878  -1.096  0.00  0.00    -0.010 A 
ATOM      7  C   LIG    1        3.079  -3.435  -1.081  0.00  0.00    +0.020 A 
ENDBRANCH   1   2
BRANCH   1   8
ATOM      8  N   LIG    1        0.526  -2.673   1.179  0.00  0.00    -0.340 N 
ATOM      9  C   LIG    1        0.552  -2.104   2.402  0.00  0.00    +0.240 A 
ATOM     10  C   LIG    1       -0.193  -2.872   3.231  0.00  0.00    -0.150 A 
ATOM     11  C   LIG    1       -0.684  -3.952   2.490  0.00  0.00    +0.220 A 
ATOM     12  N   LIG    1       -0.254  -3.834   1.260  0.00  0.00    -0.300 NA
ENDBRANCH   1   8
BRANCH   1  14
ATOM     13  O   LIG    1        2.220  -0.041  -0.018  0.00  0.00    -0.590 OA
ATOM     14  C   LIG    1        1.178  -0.662  -0.012  0.00  0.00    +0.440 C 
ATOM     15  N   LIG    1        0.002  -0.004   0.002  0.00  0.00    -0.640 NA
BRANCH  15  16
ATOM     16  C   LIG    1       -0.017   1.386   0.010  0.00  0.00    +0.340 A 
ATOM     17  N   LIG    1       -1.089   2.114   0.018  0.00  0.00    -0.550 NA
ATOM     18  C   LIG    1       -0.923   3.423   0.029  0.00  0.00    +0.130 A 
ATOM     19  C   LIG    1        0.351   3.820   0.019  0.00  0.00    -0.230 A 
ATOM     20  S   LIG    1        1.371   2.384   0.002  0.00  0.00    +0.030 S 
BRANCH  18  21
ATOM     21  C   LIG    1       -2.078   4.391   0.046  0.00  0.00    +0.040 C 
ATOM     22  C   LIG    1       -1.779   5.840   0.434  0.00  0.00    +0.000 C 
ATOM     23  C   LIG    1       -2.530   4.928   1.405  0.00  0.00    +0.010 C 
ENDBRANCH  18  21
ENDBRANCH  15  16
ENDBRANCH   1  14
TORSDOF 5
