REMARK  Name = ZINCtV00000L6kov.0
REMARK                            x       y       z     vdW  Elec       q    Type
REMARK                         _______ _______ _______ _____ _____    ______ ____
ROOT
ATOM      1  C   LIG    1       -0.009   5.832   0.148  0.00  0.00    +0.130 C 
ATOM      2  C   LIG    1        1.438   6.247   0.076  0.00  0.00    +0.040 A 
ATOM      3  C   LIG    1        2.503   5.412   0.012  0.00  0.00    -0.150 A 
ATOM      4  N   LIG    1        3.693   6.140  -0.038  0.00  0.00    -0.280 N 
ATOM      5  C   LIG    1        4.976   5.731  -0.116  0.00  0.00    +0.230 A 
ATOM      6  C   LIG    1        6.011   6.646  -0.163  0.00  0.00    +0.030 A 
ATOM      7  C   LIG    1        5.734   8.003  -0.136  0.00  0.00    +0.070 A 
ATOM      8  C   LIG    1        4.396   8.418  -0.061  0.00  0.00    +0.050 A 
ATOM      9  C   LIG    1        3.396   7.470  -0.017  0.00  0.00    +0.140 A 
ATOM     10  C   LIG    1        1.923   7.579   0.062  0.00  0.00    -0.370 A 
ENDROOT
BRANCH   3  11
ATOM     11  C   LIG    1        2.417   3.938   0.003  0.00  0.00    +0.480 C 
ATOM     12  O   LIG    1        2.342   3.327   1.051  0.00  0.00    -0.420 OA
BRANCH  11  13
ATOM     13  C   LIG    1        2.423   3.206  -1.279  0.00  0.00    -0.160 A 
ATOM     14  C   LIG    1        2.454   1.808  -1.289  0.00  0.00    +0.100 A 
ATOM     15  C   LIG    1        2.459   1.131  -2.490  0.00  0.00    +0.040 A 
ATOM     16  C   LIG    1        2.440   1.832  -3.684  0.00  0.00    -0.060 A 
ATOM     17  C   LIG    1        2.404   3.217  -3.681  0.00  0.00    +0.040 A 
ATOM     18 BR   LIG    1        2.455   0.894  -5.327  0.00  0.00    -0.030 Br
ATOM     19  C   LIG    1        2.398   3.907  -2.488  0.00  0.00    +0.080 A 
ENDBRANCH  11  13
ENDBRANCH   3  11
BRANCH  10  20
ATOM     20  S   LIG    1        0.996   9.017   0.124  0.00  0.00    +0.230 S 
BRANCH  20  21
ATOM     21  C   LIG    1        0.922   9.258   1.868  0.00  0.00    -0.070 A 
ATOM     22  C   LIG    1        1.547   8.355   2.726  0.00  0.00    +0.020 A 
ATOM     23  C   LIG    1        1.487   8.548   4.091  0.00  0.00    +0.100 A 
ATOM     24  C   LIG    1        0.807   9.637   4.609  0.00  0.00    +0.020 A 
ATOM     25  C   LIG    1        0.184  10.538   3.761  0.00  0.00    +0.130 A 
ATOM     26  C   LIG    1        0.243  10.357   2.395  0.00  0.00    -0.010 A 
BRANCH  26  27
ATOM     27  N   LIG    1       -0.418  11.323   1.490  0.00  0.00    -0.010 N 
ATOM     28  O   LIG    1       -0.365  11.146   0.185  0.00  0.00    -0.170 OA
ATOM     29  O   LIG    1       -1.058  12.360   1.988  0.00  0.00    -0.190 OA
ENDBRANCH  26  27
ENDBRANCH  20  21
ENDBRANCH  10  20
TORSDOF 5
