REMARK  Name = ZINCpe000000T8tu.1
REMARK                            x       y       z     vdW  Elec       q    Type
REMARK                         _______ _______ _______ _____ _____    ______ ____
ROOT
ATOM      1  C   LIG    1        1.323   7.463   3.333  0.00  0.00    +0.060 C 
ATOM      2  C   LIG    1        1.056   5.957   3.274  0.00  0.00    +0.090 C 
ATOM      3  C   LIG    1        0.583   5.577   1.867  0.00  0.00    +0.310 C 
ATOM      4  N   LIG    1        0.477   4.112   1.790  0.00  0.00    -0.610 N 
ATOM      5  C   LIG    1        1.630   3.307   2.222  0.00  0.00    +0.270 C 
ATOM      6  C   LIG    1        2.065   3.777   3.610  0.00  0.00    +0.170 C 
ATOM      7  C   LIG    1       -0.648   3.522   1.340  0.00  0.00    +0.480 C 
ATOM      8  O   LIG    1       -1.591   4.201   0.992  0.00  0.00    -0.540 OA
ATOM      9  C   LIG    1       -0.023   5.589   4.293  0.00  0.00    +0.000 C 
ATOM     10  N   LIG    1        2.293   5.228   3.584  0.00  0.00    -0.520 NA
ENDROOT
BRANCH   7  11
ATOM     11  C   LIG    1       -0.735   2.019   1.269  0.00  0.00    +0.190 C 
BRANCH  11  12
ATOM     12  N   LIG    1       -2.145   1.612   1.222  0.00  0.00    -0.820 NA
ATOM     13  H   LIG    1       -2.607   2.001   0.413  0.00  0.00    +0.350 HD
ATOM     14  H   LIG    1       -2.625   1.869   2.071  0.00  0.00    +0.350 HD
ENDBRANCH  11  12
BRANCH  11  15
ATOM     15  C   LIG    1       -0.019   1.526   0.010  0.00  0.00    +0.080 C 
BRANCH  15  16
ATOM     16  C   LIG    1        0.002  -0.004   0.002  0.00  0.00    -0.320 C 
BRANCH  16  17
ATOM     17  S   LIG    1        0.851  -0.589  -1.490  0.00  0.00    +2.420 S 
ATOM     18  O   LIG    1        2.215  -0.196  -1.419  0.00  0.00    -0.940 OA
ATOM     19  O   LIG    1        0.080  -0.218  -2.625  0.00  0.00    -0.940 OA
ATOM     20  C   LIG    1        0.758  -2.390  -1.293  0.00  0.00    -0.270 C 
ENDBRANCH  16  17
ENDBRANCH  15  16
ENDBRANCH  11  15
ENDBRANCH   7  11
BRANCH  10  21
ATOM     21  C   LIG    1        2.873   5.692   4.852  0.00  0.00    +0.230 C 
BRANCH  21  22
ATOM     22  C   LIG    1        3.991   4.767   5.261  0.00  0.00    -0.090 A 
ATOM     23  C   LIG    1        3.723   3.670   6.058  0.00  0.00    +0.000 A 
ATOM     24  C   LIG    1        4.747   2.819   6.429  0.00  0.00    +0.000 A 
ATOM     25  C   LIG    1        6.041   3.071   6.011  0.00  0.00    +0.000 A 
ATOM     26  C   LIG    1        6.309   4.171   5.219  0.00  0.00    +0.000 A 
ATOM     27  C   LIG    1        5.284   5.019   4.843  0.00  0.00    +0.020 A 
ENDBRANCH  21  22
ENDBRANCH  10  21
TORSDOF 7
