REMARK  Name = ZINCvU00000009yc.0
REMARK                            x       y       z     vdW  Elec       q    Type
REMARK                         _______ _______ _______ _____ _____    ______ ____
ROOT
ATOM      1  C   LIG    1       -4.859  -0.047  -1.234  0.00  0.00    +0.180 A 
ATOM      2  C   LIG    1       -5.398   1.077  -1.850  0.00  0.00    +0.050 A 
ATOM      3  C   LIG    1       -4.655   2.238  -1.935  0.00  0.00    +0.040 A 
ATOM      4  C   LIG    1       -3.377   2.284  -1.410  0.00  0.00    +0.100 A 
ATOM      5  C   LIG    1       -2.837   1.167  -0.797  0.00  0.00    -0.640 A 
ATOM      6  C   LIG    1       -3.572   0.002  -0.712  0.00  0.00    +0.070 A 
ENDROOT
BRANCH   5   7
ATOM      7  S   LIG    1       -1.208   1.231  -0.130  0.00  0.00    +2.690 S 
ATOM      8  O   LIG    1       -0.501   2.202  -0.890  0.00  0.00    -0.940 OA
ATOM      9  O   LIG    1       -0.776  -0.116   0.004  0.00  0.00    -0.950 OA
BRANCH   7  10
ATOM     10  N   LIG    1       -1.330   1.838   1.406  0.00  0.00    -1.060 N 
ATOM     11  H   LIG    1       -1.085   1.287   2.166  0.00  0.00    +0.430 HD
BRANCH  10  12
ATOM     12  C   LIG    1       -1.786   3.143   1.607  0.00  0.00    +0.140 A 
ATOM     13  C   LIG    1       -0.950   4.221   1.346  0.00  0.00    +0.050 A 
ATOM     14  C   LIG    1       -1.406   5.510   1.541  0.00  0.00    +0.060 A 
ATOM     15  C   LIG    1       -2.691   5.728   2.006  0.00  0.00    -0.080 A 
ATOM     16  C   LIG    1       -3.524   4.656   2.273  0.00  0.00    +0.060 A 
ATOM     17 BR   LIG    1       -3.309   7.494   2.279  0.00  0.00    -0.040 Br
ATOM     18  C   LIG    1       -3.076   3.365   2.075  0.00  0.00    +0.040 A 
ENDBRANCH  10  12
ENDBRANCH   7  10
ENDBRANCH   5   7
BRANCH   1  19
ATOM     19  N   LIG    1       -5.606  -1.221  -1.146  0.00  0.00    -0.560 N 
ATOM     20  H   LIG    1       -5.259  -1.980  -0.652  0.00  0.00    +0.410 HD
BRANCH  19  27
ATOM     21  N   LIG    1      -10.011  -5.392  -2.285  0.00  0.00    -0.570 NA
ATOM     22  H   LIG    1      -10.770  -5.157  -2.842  0.00  0.00    +0.370 HD
ATOM     23  C   LIG    1       -9.085  -4.496  -2.026  0.00  0.00    +0.370 C 
ATOM     24  N   LIG    1       -7.990  -4.672  -1.280  0.00  0.00    -0.450 NA
ATOM     25  C   LIG    1       -7.153  -3.696  -1.113  0.00  0.00    +0.290 C 
ATOM     26  C   LIG    1       -7.513  -2.440  -1.777  0.00  0.00    +0.010 C 
ATOM     27  N   LIG    1       -6.857  -1.304  -1.771  0.00  0.00    -0.110 NA
ATOM     28  S   LIG    1       -9.043  -2.818  -2.597  0.00  0.00    -0.060 S 
BRANCH  25  29
ATOM     29  C   LIG    1       -5.923  -3.838  -0.304  0.00  0.00    -0.090 A 
ATOM     30  C   LIG    1       -4.724  -4.215  -0.912  0.00  0.00    +0.040 A 
ATOM     31  C   LIG    1       -3.579  -4.341  -0.153  0.00  0.00    +0.030 A 
ATOM     32  C   LIG    1       -3.620  -4.106   1.210  0.00  0.00    +0.050 A 
ATOM     33  C   LIG    1       -4.806  -3.738   1.820  0.00  0.00    +0.020 A 
ATOM     34  C   LIG    1       -5.957  -3.603   1.071  0.00  0.00    +0.050 A 
ENDBRANCH  25  29
ENDBRANCH  19  27
ENDBRANCH   1  19
TORSDOF 6
