REMARK  Name = ZINCrD0000074HLs.0
REMARK                            x       y       z     vdW  Elec       q    Type
REMARK                         _______ _______ _______ _____ _____    ______ ____
ROOT
ATOM      1  C   LIG    1        2.988  -3.056   1.260  0.00  0.00    +0.250 C 
ATOM      2  C   LIG    1        2.790  -4.554   0.948  0.00  0.00    +0.050 C 
ATOM      3  C   LIG    1        2.199  -4.534  -0.487  0.00  0.00    +0.040 C 
ATOM      4  C   LIG    1        1.318  -3.258  -0.441  0.00  0.00    +0.250 C 
ATOM      5  N   LIG    1        2.086  -2.302   0.378  0.00  0.00    -0.620 N 
ATOM      6  C   LIG    1        1.974  -0.960   0.330  0.00  0.00    +0.730 C 
ATOM      7  N   LIG    1        1.105  -0.386  -0.526  0.00  0.00    -0.740 N 
ATOM      8  H   LIG    1        0.560  -0.940  -1.108  0.00  0.00    +0.390 HD
ATOM      9  O   LIG    1        2.656  -0.266   1.059  0.00  0.00    -0.570 OA
ENDROOT
BRANCH   7  10
ATOM     10  C   LIG    1        0.984   1.073  -0.579  0.00  0.00    +0.260 C 
ATOM     11  C   LIG    1        0.004   1.542   0.499  0.00  0.00    +0.000 C 
ATOM     12  C   LIG    1       -0.122   3.066   0.445  0.00  0.00    +0.010 C 
ATOM     13  C   LIG    1       -0.640   3.485  -0.933  0.00  0.00    +0.000 C 
ATOM     14  C   LIG    1        0.339   3.016  -2.011  0.00  0.00    +0.020 C 
ATOM     15  C   LIG    1        0.466   1.492  -1.956  0.00  0.00    +0.010 C 
ENDBRANCH   7  10
BRANCH   1  18
ATOM     16  N   LIG    1        3.347  -3.373   3.687  0.00  0.00    -0.670 N 
ATOM     17  H   LIG    1        4.026  -4.031   3.471  0.00  0.00    +0.420 HD
ATOM     18  C   LIG    1        2.642  -2.783   2.701  0.00  0.00    +0.500 C 
ATOM     19  O   LIG    1        1.730  -2.032   2.974  0.00  0.00    -0.480 OA
BRANCH  16  24
ATOM     20  C   LIG    1        2.337  -2.014   9.102  0.00  0.00    +0.130 C 
ATOM     21  C   LIG    1        2.606  -2.375   7.663  0.00  0.00    -0.030 A 
ATOM     22  C   LIG    1        2.976  -3.666   7.334  0.00  0.00    +0.050 A 
ATOM     23  C   LIG    1        3.223  -4.000   6.016  0.00  0.00    +0.060 A 
ATOM     24  C   LIG    1        3.098  -3.038   5.023  0.00  0.00    +0.150 A 
ATOM     25  C   LIG    1        2.731  -1.741   5.358  0.00  0.00    +0.110 A 
ATOM     26  C   LIG    1        2.481  -1.415   6.676  0.00  0.00    -0.030 A 
BRANCH  26  27
ATOM     27  N   LIG    1        2.085  -0.034   7.033  0.00  0.00    +0.030 N 
ATOM     28  O   LIG    1        1.986   0.287   8.204  0.00  0.00    -0.160 OA
ATOM     29  O   LIG    1        1.858   0.781   6.157  0.00  0.00    -0.160 OA
ENDBRANCH  26  27
ENDBRANCH  16  24
ENDBRANCH   1  18
TORSDOF 4
