REMARK  Name = ZINCtV00000vsn7W.0
REMARK                            x       y       z     vdW  Elec       q    Type
REMARK                         _______ _______ _______ _____ _____    ______ ____
ROOT
ATOM      1  C   LIG    1       -1.405   3.072   1.227  0.00  0.00    +0.250 C 
ATOM      2  C   LIG    1       -2.128   4.339   0.739  0.00  0.00    +0.020 C 
ATOM      3  C   LIG    1       -2.470   4.107  -0.748  0.00  0.00    +0.030 C 
ATOM      4  C   LIG    1       -1.441   3.046  -1.212  0.00  0.00    +0.050 C 
ATOM      5  C   LIG    1       -1.332   2.114   0.020  0.00  0.00    +0.030 C 
ENDROOT
BRANCH   5   6
ATOM      6  C   LIG    1       -0.017   1.378   0.010  0.00  0.00    -0.040 A 
ATOM      7  C   LIG    1        1.171   2.086   0.002  0.00  0.00    +0.020 A 
ATOM      8  C   LIG    1        2.377   1.411  -0.014  0.00  0.00    +0.080 A 
ATOM      9  C   LIG    1        2.396   0.029  -0.022  0.00  0.00    -0.180 A 
ATOM     10  C   LIG    1        1.208  -0.679  -0.014  0.00  0.00    +0.070 A 
ATOM     11  C   LIG    1        0.002  -0.004   0.002  0.00  0.00    +0.020 A 
BRANCH   9  12
ATOM     12  C   LIG    1        3.711  -0.707  -0.039  0.00  0.00    +0.510 C 
ATOM     13  F   LIG    1        3.567  -1.935   0.615  0.00  0.00    -0.180 F 
ATOM     14  F   LIG    1        4.683   0.058   0.615  0.00  0.00    -0.180 F 
ATOM     15  F   LIG    1        4.105  -0.927  -1.364  0.00  0.00    -0.180 F 
ENDBRANCH   9  12
ENDBRANCH   5   6
BRANCH   1  17
ATOM     16  C   LIG    1       -3.557   2.053   2.105  0.00  0.00    +0.320 C 
ATOM     17  N   LIG    1       -2.162   2.450   2.316  0.00  0.00    -0.550 N 
BRANCH  17  18
ATOM     18  C   LIG    1       -1.565   2.239   3.535  0.00  0.00    +0.430 A 
ATOM     19  N   LIG    1       -2.123   1.698   4.601  0.00  0.00    -0.530 NA
ATOM     20  C   LIG    1       -1.162   1.694   5.549  0.00  0.00    +0.230 A 
ATOM     21  N   LIG    1       -0.092   2.232   5.022  0.00  0.00    -0.360 NA
ATOM     22  O   LIG    1       -0.304   2.549   3.871  0.00  0.00    +0.040 OA
BRANCH  20  23
ATOM     23  C   LIG    1       -1.295   1.181   6.936  0.00  0.00    -0.010 A 
ATOM     24  C   LIG    1       -2.503   0.637   7.366  0.00  0.00    +0.080 A 
ATOM     25  C   LIG    1       -2.620   0.156   8.655  0.00  0.00    +0.020 A 
ATOM     26  C   LIG    1       -1.545   0.225   9.523  0.00  0.00    +0.050 A 
ATOM     27  C   LIG    1       -0.345   0.770   9.103  0.00  0.00    +0.030 A 
ATOM     28  C   LIG    1       -0.214   1.248   7.814  0.00  0.00    -0.010 A 
ATOM     29 CL   LIG    1        1.293   1.931   7.288  0.00  0.00    -0.040 Cl
ENDBRANCH  20  23
ENDBRANCH  17  18
ENDBRANCH   1  17
TORSDOF 5
