REMARK  Name = ZINCrD00000l5X6H.1
REMARK                            x       y       z     vdW  Elec       q    Type
REMARK                         _______ _______ _______ _____ _____    ______ ____
ROOT
ATOM      1  C   LIG    1       -0.575   0.877   2.369  0.00  0.00    +0.590 C 
ATOM      2  N   LIG    1       -0.698   1.558   1.213  0.00  0.00    -0.730 N 
ATOM      3  H   LIG    1       -1.241   2.362   1.179  0.00  0.00    +0.400 HD
ATOM      4  O   LIG    1        0.105  -0.131   2.412  0.00  0.00    -0.500 OA
ENDROOT
BRANCH   1  13
ATOM      5  C   LIG    1       -0.002  -1.782   7.361  0.00  0.00    +0.040 C 
ATOM      6  C   LIG    1       -0.494  -0.431   6.836  0.00  0.00    -0.060 C 
ATOM      7  C   LIG    1       -1.899  -0.155   7.378  0.00  0.00    +0.040 C 
ATOM      8  C   LIG    1       -2.288   1.302   7.100  0.00  0.00    +0.130 C 
ATOM      9  C   LIG    1       -2.041   1.585   5.639  0.00  0.00    +0.040 A 
ATOM     10  N   LIG    1       -2.491   2.561   4.906  0.00  0.00    -0.250 NA
ATOM     11  N   LIG    1       -2.056   2.463   3.697  0.00  0.00    -0.390 N 
ATOM     12  H   LIG    1       -2.261   3.081   2.978  0.00  0.00    +0.440 HD
ATOM     13  C   LIG    1       -1.264   1.351   3.580  0.00  0.00    -0.050 A 
ATOM     14  C   LIG    1       -1.240   0.774   4.825  0.00  0.00    -0.100 A 
ATOM     15  C   LIG    1        0.456   0.673   7.302  0.00  0.00    +0.030 C 
ATOM     16  C   LIG    1       -0.529  -0.462   5.302  0.00  0.00    +0.120 C 
ENDBRANCH   1  13
BRANCH   2  17
ATOM     17  C   LIG    1       -0.013   1.086   0.008  0.00  0.00    +0.410 C 
BRANCH  17  18
ATOM     18  C   LIG    1       -0.742   1.585  -1.213  0.00  0.00    -0.100 A 
ATOM     19  C   LIG    1       -1.257   2.868  -1.233  0.00  0.00    +0.040 A 
ATOM     20  C   LIG    1       -1.921   3.328  -2.354  0.00  0.00    -0.010 A 
ATOM     21  C   LIG    1       -2.080   2.501  -3.453  0.00  0.00    +0.110 A 
ATOM     22  C   LIG    1       -1.568   1.215  -3.429  0.00  0.00    -0.010 A 
ATOM     23  F   LIG    1       -2.733   2.948  -4.548  0.00  0.00    -0.140 F 
ATOM     24  C   LIG    1       -0.899   0.758  -2.309  0.00  0.00    +0.090 A 
ENDBRANCH  17  18
BRANCH  17  25
ATOM     25  C   LIG    1        1.401   1.607  -0.003  0.00  0.00    +0.200 A 
ATOM     26  N   LIG    1        2.262   1.451  -0.971  0.00  0.00    -0.470 NA
ATOM     27  C   LIG    1        3.416   2.048  -0.637  0.00  0.00    +0.150 A 
ATOM     28  C   LIG    1        3.267   2.589   0.587  0.00  0.00    +0.130 A 
ATOM     29  N   LIG    1        1.988   2.310   0.990  0.00  0.00    -0.560 N 
ATOM     30  H   LIG    1        1.581   2.568   1.831  0.00  0.00    +0.410 HD
ENDBRANCH  17  25
ENDBRANCH   2  17
TORSDOF 4
