REMARK  Name = ZINCrD00000l5X6H.0
REMARK                            x       y       z     vdW  Elec       q    Type
REMARK                         _______ _______ _______ _____ _____    ______ ____
ROOT
ATOM      1  C   LIG    1        0.988   1.253  -3.072  0.00  0.00    +0.600 C 
ATOM      2  N   LIG    1        1.254   1.387  -4.386  0.00  0.00    -0.720 N 
ATOM      3  H   LIG    1        0.583   1.756  -4.982  0.00  0.00    +0.410 HD
ATOM      4  O   LIG    1        1.829   0.791  -2.325  0.00  0.00    -0.510 OA
ENDROOT
BRANCH   1  11
ATOM      5  C   LIG    1       -0.176   0.882   2.497  0.00  0.00    +0.040 C 
ATOM      6  C   LIG    1       -0.743   1.587   1.262  0.00  0.00    -0.070 C 
ATOM      7  C   LIG    1       -2.239   1.279   1.139  0.00  0.00    +0.040 C 
ATOM      8  C   LIG    1       -2.862   2.174   0.060  0.00  0.00    +0.120 C 
ATOM      9  C   LIG    1       -2.016   2.076  -1.184  0.00  0.00    +0.020 A 
ATOM     10  C   LIG    1       -0.751   1.589  -1.201  0.00  0.00    -0.130 A 
ATOM     11  C   LIG    1       -0.326   1.666  -2.538  0.00  0.00    -0.020 A 
ATOM     12  N   LIG    1       -1.331   2.182  -3.226  0.00  0.00    -0.260 NA
ATOM     13  N   LIG    1       -2.325   2.426  -2.443  0.00  0.00    -0.370 N 
ATOM     14  H   LIG    1       -3.172   2.808  -2.723  0.00  0.00    +0.450 HD
ATOM     15  C   LIG    1       -0.542   3.097   1.399  0.00  0.00    +0.040 C 
ATOM     16  C   LIG    1       -0.013   1.086   0.008  0.00  0.00    +0.130 C 
ENDBRANCH   1  11
BRANCH   2  17
ATOM     17  C   LIG    1        2.557   0.977  -4.915  0.00  0.00    +0.410 C 
BRANCH  17  18
ATOM     18  C   LIG    1        2.422   0.641  -6.378  0.00  0.00    -0.100 A 
ATOM     19  C   LIG    1        1.617   1.415  -7.193  0.00  0.00    +0.050 A 
ATOM     20  C   LIG    1        1.496   1.110  -8.536  0.00  0.00    -0.010 A 
ATOM     21  C   LIG    1        2.173   0.023  -9.062  0.00  0.00    +0.110 A 
ATOM     22  C   LIG    1        2.975  -0.754  -8.244  0.00  0.00    -0.010 A 
ATOM     23  F   LIG    1        2.052  -0.278 -10.374  0.00  0.00    -0.140 F 
ATOM     24  C   LIG    1        3.098  -0.445  -6.903  0.00  0.00    +0.090 A 
ENDBRANCH  17  18
BRANCH  17  25
ATOM     25  C   LIG    1        3.544   2.103  -4.748  0.00  0.00    +0.200 A 
ATOM     26  N   LIG    1        4.773   2.109  -5.188  0.00  0.00    -0.470 NA
ATOM     27  C   LIG    1        5.354   3.272  -4.859  0.00  0.00    +0.150 A 
ATOM     28  C   LIG    1        4.454   4.012  -4.184  0.00  0.00    +0.130 A 
ATOM     29  N   LIG    1        3.306   3.271  -4.112  0.00  0.00    -0.560 N 
ATOM     30  H   LIG    1        2.476   3.535  -3.686  0.00  0.00    +0.420 HD
ENDBRANCH  17  25
ENDBRANCH   2  17
TORSDOF 4
