REMARK  Name = ZINCpk00000e9J8n.0
REMARK                            x       y       z     vdW  Elec       q    Type
REMARK                         _______ _______ _______ _____ _____    ______ ____
ROOT
ATOM      1  C   LIG    1       -0.846   1.651  -6.010  0.00  0.00    +0.510 C 
ATOM      2  O   LIG    1       -1.846   2.338  -6.045  0.00  0.00    -0.490 OA
ENDROOT
BRANCH   1   6
ATOM      3  C   LIG    1        0.989   0.387  -9.625  0.00  0.00    -0.650 A 
ATOM      4  C   LIG    1       -0.151   1.170  -9.669  0.00  0.00    +0.120 A 
ATOM      5  C   LIG    1       -0.752   1.584  -8.498  0.00  0.00    +0.080 A 
ATOM      6  C   LIG    1       -0.207   1.211  -7.268  0.00  0.00    -0.070 A 
ATOM      7  C   LIG    1        0.946   0.425  -7.231  0.00  0.00    +0.070 A 
ATOM      8  C   LIG    1        1.534   0.014  -8.410  0.00  0.00    +0.120 A 
BRANCH   3   9
ATOM      9  S   LIG    1        1.750  -0.137 -11.126  0.00  0.00    +2.690 S 
ATOM     10  O   LIG    1        0.738  -0.103 -12.122  0.00  0.00    -0.950 OA
ATOM     11  O   LIG    1        2.493  -1.307 -10.811  0.00  0.00    -0.950 OA
BRANCH   9  13
ATOM     12  C   LIG    1        4.238   0.922 -11.063  0.00  0.00    +0.300 C 
ATOM     13  N   LIG    1        2.858   1.021 -11.544  0.00  0.00    -1.000 NA
ATOM     14  C   LIG    1        2.457   2.144 -12.394  0.00  0.00    +0.300 C 
ENDBRANCH   9  13
ENDBRANCH   3   9
ENDBRANCH   1   6
BRANCH   1  15
ATOM     15  O   LIG    1       -0.317   1.289  -4.825  0.00  0.00    -0.320 OA
BRANCH  15  16
ATOM     16  C   LIG    1       -0.997   1.758  -3.630  0.00  0.00    +0.270 C 
BRANCH  16  17
ATOM     17  C   LIG    1       -0.268   1.258  -2.409  0.00  0.00    +0.520 C 
ATOM     18  N   LIG    1       -0.721   1.571  -1.179  0.00  0.00    -0.720 N 
ATOM     19  H   LIG    1       -1.516   2.118  -1.079  0.00  0.00    +0.410 HD
ATOM     20  O   LIG    1        0.726   0.575  -2.534  0.00  0.00    -0.510 OA
BRANCH  18  21
ATOM     21  C   LIG    1       -0.013   1.086   0.008  0.00  0.00    +0.370 C 
BRANCH  21  22
ATOM     22  C   LIG    1       -0.718   1.572   1.248  0.00  0.00    -0.220 A 
ATOM     23  C   LIG    1       -1.695   0.921   1.882  0.00  0.00    +0.030 A 
ATOM     24  C   LIG    1       -2.192   1.564   3.002  0.00  0.00    +0.000 A 
ATOM     25  C   LIG    1       -1.619   2.736   3.279  0.00  0.00    -0.030 A 
ATOM     26  S   LIG    1       -0.374   3.080   2.085  0.00  0.00    +0.120 S 
ENDBRANCH  21  22
ENDBRANCH  18  21
ENDBRANCH  16  17
ENDBRANCH  15  16
ENDBRANCH   1  15
TORSDOF 8
