REMARK  Name = ZINCrD000000fUKW.0
REMARK                            x       y       z     vdW  Elec       q    Type
REMARK                         _______ _______ _______ _____ _____    ______ ____
ROOT
ATOM      1  S   LIG    1        2.662   4.053  -0.005  0.00  0.00    +2.690 S 
ATOM      2  O   LIG    1        1.307   3.636   0.094  0.00  0.00    -0.940 OA
ATOM      3  O   LIG    1        3.752   3.268   0.458  0.00  0.00    -0.950 OA
ENDROOT
BRANCH   1   4
ATOM      4  C   LIG    1        2.770   5.598   0.834  0.00  0.00    -0.710 A 
ATOM      5  C   LIG    1        1.621   6.318   1.104  0.00  0.00    +0.160 A 
ATOM      6  C   LIG    1        1.701   7.530   1.762  0.00  0.00    -0.020 A 
ATOM      7  C   LIG    1        2.938   8.027   2.147  0.00  0.00    +0.230 A 
ATOM      8  N   LIG    1        3.027   9.251   2.817  0.00  0.00    -0.670 N 
ATOM      9  H   LIG    1        2.241   9.626   3.244  0.00  0.00    +0.420 HD
ATOM     10  C   LIG    1        4.197   9.915   2.870  0.00  0.00    +0.520 C 
ATOM     11  C   LIG    1        5.426   9.363   2.201  0.00  0.00    +0.080 C 
ATOM     12  C   LIG    1        5.433   7.837   2.301  0.00  0.00    +0.110 C 
ATOM     13  O   LIG    1        4.260  10.971   3.464  0.00  0.00    -0.520 OA
ATOM     14  C   LIG    1        4.090   7.299   1.879  0.00  0.00    -0.140 A 
ATOM     15  C   LIG    1        4.004   6.089   1.221  0.00  0.00    +0.160 A 
ENDBRANCH   1   4
BRANCH   1  16
ATOM     16  N   LIG    1        2.945   4.346  -1.610  0.00  0.00    -1.100 NA
ATOM     17  H   LIG    1        3.695   3.922  -2.056  0.00  0.00    +0.430 HD
BRANCH  16  21
ATOM     18  C   LIG    1        0.083   5.701  -4.470  0.00  0.00    +0.000 C 
ATOM     19  C   LIG    1        1.532   6.171  -4.617  0.00  0.00    +0.030 C 
ATOM     20  C   LIG    1        2.454   5.232  -3.836  0.00  0.00    +0.070 C 
ATOM     21  C   LIG    1        2.062   5.245  -2.357  0.00  0.00    +0.290 C 
ATOM     22  C   LIG    1        0.613   4.775  -2.211  0.00  0.00    +0.050 C 
ATOM     23  C   LIG    1       -0.309   5.713  -2.991  0.00  0.00    +0.030 C 
BRANCH  18  25
ATOM     24  C   LIG    1       -0.446   6.628  -6.729  0.00  0.00    +0.020 C 
ATOM     25  C   LIG    1       -0.839   6.640  -5.250  0.00  0.00    -0.060 C 
ATOM     26  C   LIG    1       -0.705   8.061  -4.699  0.00  0.00    +0.020 C 
ATOM     27  C   LIG    1       -2.288   6.170  -5.103  0.00  0.00    +0.020 C 
ENDBRANCH  18  25
BRANCH  21  28
ATOM     28  C   LIG    1        2.190   6.612  -1.827  0.00  0.00    +0.180 C 
ATOM     29  N   LIG    1        2.290   7.667  -1.418  0.00  0.00    -0.380 NA
ENDBRANCH  21  28
ENDBRANCH  16  21
ENDBRANCH   1  16
TORSDOF 5
