REMARK  Name = ZINCnE00000eSprs.0
REMARK                            x       y       z     vdW  Elec       q    Type
REMARK                         _______ _______ _______ _____ _____    ______ ____
ROOT
ATOM      1  C   LIG    1        2.475   1.062  -0.018  0.00  0.00    -0.010 A 
ATOM      2  C   LIG    1        3.360   1.156   1.079  0.00  0.00    -0.080 A 
ATOM      3  C   LIG    1        3.305   1.842   2.310  0.00  0.00    -0.030 A 
ATOM      4  CA  LIG    1        4.453   1.568   2.990  0.00  0.00    +0.050 A 
ATOM      5  N   LIG    1        5.239   0.725   2.225  0.00  0.00    -0.570 N 
ATOM      6  H   LIG    1        6.109   0.378   2.478  0.00  0.00    +0.420 HD
ATOM      7  C   LIG    1        4.583   0.460   1.046  0.00  0.00    +0.080 A 
ATOM      8  C   LIG    1        4.906  -0.312  -0.067  0.00  0.00    -0.010 A 
ATOM      9  C   LIG    1        4.033  -0.394  -1.131  0.00  0.00    +0.000 A 
ATOM     10  C   LIG    1        2.823   0.281  -1.111  0.00  0.00    -0.020 A 
ENDROOT
BRANCH   1  15
ATOM     11  C   LIG    1       -1.222   1.750   0.017  0.00  0.00    +0.100 A 
ATOM     12  C   LIG    1       -1.237   3.139   0.034  0.00  0.00    +0.030 A 
ATOM     13  C   LIG    1       -0.054   3.846   0.031  0.00  0.00    -0.140 A 
ATOM     14  C   LIG    1        1.168   3.191   0.011  0.00  0.00    +0.100 A 
ATOM     15  C   LIG    1        1.184   1.787   0.000  0.00  0.00    -0.010 A 
ATOM     16  O   LIG    1        2.203   4.076  -0.004  0.00  0.00    -0.290 OA
ATOM     17  C   LIG    1        1.735   5.359   0.444  0.00  0.00    +0.230 C 
ATOM     18  C   LIG    1        0.239   5.335   0.051  0.00  0.00    +0.070 C 
ATOM     19  C   LIG    1       -0.013   1.076   0.008  0.00  0.00    -0.020 A 
BRANCH  11  21
ATOM     20  C   LIG    1       -2.297  -0.371   0.004  0.00  0.00    +0.240 C 
ATOM     21  O   LIG    1       -2.390   1.055   0.016  0.00  0.00    -0.320 OA
ENDBRANCH  11  21
ENDBRANCH   1  15
BRANCH   4  22
ATOM     22  C   LIG    1        4.800   2.082   4.317  0.00  0.00    +0.540 C 
ATOM     23  OXT LIG    1        4.026   2.825   4.907  0.00  0.00    -0.670 OA
ATOM     24  O   LIG    1        5.864   1.769   4.837  0.00  0.00    -0.690 OA
ENDBRANCH   4  22
TORSDOF 3
