REMARK  Name = ZINCpe00000RaK9A.0
REMARK                            x       y       z     vdW  Elec       q    Type
REMARK                         _______ _______ _______ _____ _____    ______ ____
ROOT
ATOM      1  C   LIG    1       -2.095   1.024  -1.286  0.00  0.00    +0.270 C 
ATOM      2  C   LIG    1       -2.873   1.560  -0.079  0.00  0.00    +0.300 C 
ATOM      3  N   LIG    1       -2.149   1.183   1.145  0.00  0.00    -0.610 N 
ATOM      4  C   LIG    1       -0.710   1.487   1.221  0.00  0.00    +0.260 C 
ATOM      5  C   LIG    1       -0.038   0.955  -0.050  0.00  0.00    +0.240 C 
ATOM      6  C   LIG    1       -2.784   0.577   2.168  0.00  0.00    +0.610 C 
ATOM      7  O   LIG    1       -3.986   0.394   2.116  0.00  0.00    -0.500 OA
ATOM      8  O   LIG    1       -0.734   1.452  -1.196  0.00  0.00    -0.380 OA
ENDROOT
BRANCH   1  12
ATOM      9  C   LIG    1       -2.997   2.517  -4.473  0.00  0.00    +0.190 A 
ATOM     10  N   LIG    1       -4.127   2.012  -4.059  0.00  0.00    -0.280 NA
ATOM     11  N   LIG    1       -3.954   1.441  -2.920  0.00  0.00    -0.270 NA
ATOM     12  C   LIG    1       -2.707   1.556  -2.556  0.00  0.00    +0.180 A 
ATOM     13  N   LIG    1       -2.064   2.247  -3.529  0.00  0.00    -0.560 N 
ATOM     14  H   LIG    1       -1.127   2.495  -3.546  0.00  0.00    +0.430 HD
BRANCH   9  16
ATOM     15  C   LIG    1       -3.242   2.411  -6.939  0.00  0.00    +0.050 C 
ATOM     16  C   LIG    1       -2.773   3.268  -5.761  0.00  0.00    +0.140 C 
ENDBRANCH   9  16
ENDBRANCH   1  12
BRANCH   6  17
ATOM     17  C   LIG    1       -2.026   0.138   3.345  0.00  0.00    -0.070 A 
ATOM     18  C   LIG    1       -2.515  -0.599   4.385  0.00  0.00    +0.060 A 
ATOM     19  C   LIG    1       -1.451  -0.788   5.281  0.00  0.00    -0.030 A 
ATOM     20  C   LIG    1       -0.373  -0.166   4.755  0.00  0.00    -0.010 A 
ATOM     21  O   LIG    1       -0.722   0.386   3.586  0.00  0.00    -0.150 OA
BRANCH  20  22
ATOM     22  C   LIG    1        0.998  -0.108   5.378  0.00  0.00    +0.400 C 
BRANCH  22  23
ATOM     23  N   LIG    1        1.791  -1.252   4.920  0.00  0.00    -0.730 N 
ATOM     24  H   LIG    1        1.404  -1.896   4.307  0.00  0.00    +0.410 HD
ATOM     25  C   LIG    1        3.058  -1.409   5.350  0.00  0.00    +0.510 C 
ATOM     26  O   LIG    1        3.543  -0.603   6.117  0.00  0.00    -0.540 OA
ATOM     27  C   LIG    1        3.874  -2.585   4.879  0.00  0.00    +0.110 C 
ENDBRANCH  22  23
ENDBRANCH  20  22
ENDBRANCH   6  17
TORSDOF 5
