REMARK  Name = ZINCpe00000RaK9A.1
REMARK                            x       y       z     vdW  Elec       q    Type
REMARK                         _______ _______ _______ _____ _____    ______ ____
ROOT
ATOM      1  C   LIG    1        1.393   4.330  -0.011  0.00  0.00    +0.280 C 
ATOM      2  C   LIG    1        2.042   4.532  -1.385  0.00  0.00    +0.290 C 
ATOM      3  N   LIG    1        2.980   5.662  -1.293  0.00  0.00    -0.610 N 
ATOM      4  C   LIG    1        3.964   5.657  -0.198  0.00  0.00    +0.260 C 
ATOM      5  C   LIG    1        3.221   5.400   1.118  0.00  0.00    +0.230 C 
ATOM      6  C   LIG    1        2.940   6.672  -2.185  0.00  0.00    +0.610 C 
ATOM      7  O   LIG    1        2.163   6.626  -3.121  0.00  0.00    -0.510 OA
ATOM      8  O   LIG    1        2.416   4.227   0.982  0.00  0.00    -0.360 OA
ENDROOT
BRANCH   1  11
ATOM      9  C   LIG    1       -1.145   1.756  -0.074  0.00  0.00    +0.290 A 
ATOM     10  N   LIG    1       -0.757   3.005  -0.076  0.00  0.00    -0.530 NA
ATOM     11  C   LIG    1        0.573   3.065  -0.022  0.00  0.00    +0.230 A 
ATOM     12  N   LIG    1        1.052   1.850   0.018  0.00  0.00    -0.280 NA
ATOM     13  N   LIG    1       -0.050   0.979  -0.011  0.00  0.00    -0.480 N 
ATOM     14  H   LIG    1       -0.025   0.009   0.007  0.00  0.00    +0.440 HD
BRANCH   9  16
ATOM     15  C   LIG    1       -3.079   1.015   1.290  0.00  0.00    +0.050 C 
ATOM     16  C   LIG    1       -2.571   1.272  -0.131  0.00  0.00    +0.150 C 
ENDBRANCH   9  16
ENDBRANCH   1  11
BRANCH   6  17
ATOM     17  C   LIG    1        3.833   7.825  -2.029  0.00  0.00    -0.070 A 
ATOM     18  C   LIG    1        3.805   8.968  -2.775  0.00  0.00    +0.060 A 
ATOM     19  C   LIG    1        4.825   9.796  -2.282  0.00  0.00    -0.030 A 
ATOM     20  C   LIG    1        5.429   9.127  -1.276  0.00  0.00    -0.010 A 
ATOM     21  O   LIG    1        4.828   7.940  -1.126  0.00  0.00    -0.150 OA
BRANCH  20  22
ATOM     22  C   LIG    1        6.588   9.634  -0.456  0.00  0.00    +0.400 C 
BRANCH  22  23
ATOM     23  N   LIG    1        6.080  10.358   0.712  0.00  0.00    -0.730 N 
ATOM     24  H   LIG    1        5.124  10.446   0.850  0.00  0.00    +0.410 HD
ATOM     25  C   LIG    1        6.941  10.904   1.593  0.00  0.00    +0.510 C 
ATOM     26  O   LIG    1        8.137  10.795   1.420  0.00  0.00    -0.540 OA
ATOM     27  C   LIG    1        6.419  11.649   2.794  0.00  0.00    +0.110 C 
ENDBRANCH  22  23
ENDBRANCH  20  22
ENDBRANCH   6  17
TORSDOF 5
