REMARK  Name = ZINCnE000001E8dN.0
REMARK                            x       y       z     vdW  Elec       q    Type
REMARK                         _______ _______ _______ _____ _____    ______ ____
ROOT
ATOM      1  C   LIG    1        1.875   5.918   3.241  0.00  0.00    -0.100 A 
ATOM      2  C   LIG    1        2.108   7.257   3.543  0.00  0.00    +0.090 A 
ATOM      3  C   LIG    1        2.252   8.178   2.525  0.00  0.00    -0.120 A 
ATOM      4  C   LIG    1        2.171   7.776   1.204  0.00  0.00    +0.050 A 
ATOM      5  C   LIG    1        1.946   6.449   0.891  0.00  0.00    -0.170 A 
ATOM      6  C   LIG    1        1.799   5.512   1.904  0.00  0.00    +0.310 A 
ENDROOT
BRANCH   1   9
ATOM      7  C   LIG    1        1.583   4.091   6.326  0.00  0.00    +0.260 A 
ATOM      8  N   LIG    1        1.766   5.191   5.644  0.00  0.00    -0.540 NA
ATOM      9  C   LIG    1        1.714   4.925   4.332  0.00  0.00    +0.290 A 
ATOM     10  N   LIG    1        1.490   3.639   4.171  0.00  0.00    -0.240 NA
ATOM     11  N   LIG    1        1.407   3.080   5.457  0.00  0.00    -0.500 N 
ATOM     12  H   LIG    1        1.249   2.148   5.675  0.00  0.00    +0.430 HD
BRANCH   7  14
ATOM     13  C   LIG    1        0.129   4.053   8.335  0.00  0.00    +0.040 C 
ATOM     14  C   LIG    1        1.571   3.976   7.828  0.00  0.00    +0.090 C 
ATOM     15  C   LIG    1        2.186   2.637   8.242  0.00  0.00    +0.030 C 
ENDBRANCH   7  14
ENDBRANCH   1   9
BRANCH   6  16
ATOM     16  N   LIG    1        1.572   4.172   1.591  0.00  0.00    -1.050 NA
BRANCH  16  17
ATOM     17  S   LIG    1        1.476   3.696   0.007  0.00  0.00    +2.620 S 
ATOM     18  O   LIG    1        0.305   4.301  -0.523  0.00  0.00    -1.020 OA
ATOM     19  O   LIG    1        2.770   3.889  -0.548  0.00  0.00    -1.020 OA
BRANCH  17  20
ATOM     20  C   LIG    1        1.185   1.958   0.001  0.00  0.00    -0.700 A 
ATOM     21  C   LIG    1       -0.017   1.380   0.010  0.00  0.00    +0.120 A 
ATOM     22  C   LIG    1        0.002  -0.004   0.002  0.00  0.00    -0.020 A 
ATOM     23  C   LIG    1        1.219  -0.550  -0.013  0.00  0.00    -0.050 A 
ATOM     24  S   LIG    1        2.435   0.721  -0.017  0.00  0.00    +0.200 S 
ENDBRANCH  17  20
ENDBRANCH  16  17
ENDBRANCH   6  16
TORSDOF 5
