REMARK  Name = ZINCkj00000y7Kfv.0
REMARK                            x       y       z     vdW  Elec       q    Type
REMARK                         _______ _______ _______ _____ _____    ______ ____
ROOT
ATOM      1  C   LIG    1        2.249   5.366  -0.394  0.00  0.00    +0.180 C 
ATOM      2  C   LIG    1        2.475   3.906   0.001  0.00  0.00    +0.150 C 
ATOM      3  C   LIG    1        1.159   3.170   0.007  0.00  0.00    -0.090 A 
ATOM      4  C   LIG    1        1.173   1.784   0.000  0.00  0.00    +0.040 A 
ATOM      5  C   LIG    1       -0.013   1.076   0.008  0.00  0.00    +0.050 A 
ATOM      6  C   LIG    1       -1.218   1.752   0.017  0.00  0.00    +0.040 A 
ATOM      7  C   LIG    1       -1.232   3.133   0.030  0.00  0.00    +0.050 A 
ATOM      8  C   LIG    1       -0.043   3.846   0.020  0.00  0.00    -0.140 A 
ATOM      9  C   LIG    1       -0.105   5.351   0.023  0.00  0.00    +0.340 C 
ATOM     10  N   LIG    1        1.177   5.919   0.448  0.00  0.00    -0.490 N 
ATOM     11  H   LIG    1        1.153   6.923   0.348  0.00  0.00    +0.440 HD
ATOM     12  H   LIG    1        1.349   5.680   1.413  0.00  0.00    +0.440 HD
ENDROOT
BRANCH   1  15
ATOM     13  N   LIG    1        4.642   5.808  -0.839  0.00  0.00    -0.690 N 
ATOM     14  H   LIG    1        4.634   5.056  -1.451  0.00  0.00    +0.410 HD
ATOM     15  C   LIG    1        3.517   6.151  -0.179  0.00  0.00    +0.510 C 
ATOM     16  O   LIG    1        3.526   7.091   0.587  0.00  0.00    -0.520 OA
BRANCH  13  20
ATOM     17  C   LIG    1        8.098   5.786  -1.369  0.00  0.00    +0.160 C 
ATOM     18  C   LIG    1        7.684   5.028  -0.083  0.00  0.00    +0.010 C 
ATOM     19  C   LIG    1        6.659   5.990   0.566  0.00  0.00    +0.030 C 
ATOM     20  C   LIG    1        5.875   6.570  -0.630  0.00  0.00    +0.250 C 
ATOM     21  C   LIG    1        6.790   6.440  -1.860  0.00  0.00    +0.050 C 
BRANCH  17  23
ATOM     22  C   LIG    1       10.022   4.742  -2.346  0.00  0.00    +0.210 C 
ATOM     23  O   LIG    1        8.599   4.873  -2.348  0.00  0.00    -0.380 OA
ENDBRANCH  17  23
ENDBRANCH  13  20
ENDBRANCH   1  15
TORSDOF 3
