REMARK  Name = ZINCrH000004oAmT.0
REMARK                            x       y       z     vdW  Elec       q    Type
REMARK                         _______ _______ _______ _____ _____    ______ ____
ROOT
ATOM      1  C   LIG    1       -1.238   9.358  -4.815  0.00  0.00    -0.010 C 
ATOM      2  C   LIG    1       -1.331   9.993  -3.425  0.00  0.00    +0.050 C 
ATOM      3  C   LIG    1       -0.150   9.521  -2.572  0.00  0.00    +0.280 C 
ATOM      4  N   LIG    1       -0.130   8.052  -2.564  0.00  0.00    -0.620 N 
ATOM      5  C   LIG    1       -0.125   7.338  -3.848  0.00  0.00    +0.280 C 
ATOM      6  C   LIG    1       -0.111   7.372  -1.401  0.00  0.00    +0.520 C 
ATOM      7  O   LIG    1       -0.110   7.972  -0.347  0.00  0.00    -0.540 OA
ATOM      8  C   LIG    1       -1.312   7.835  -4.688  0.00  0.00    +0.030 C 
ENDROOT
BRANCH   1  11
ATOM      9  N   LIG    1       -2.502   9.419  -6.940  0.00  0.00    -0.730 N 
ATOM     10  H   LIG    1       -1.855   8.795  -7.306  0.00  0.00    +0.400 HD
ATOM     11  C   LIG    1       -2.380   9.847  -5.668  0.00  0.00    +0.520 C 
ATOM     12  O   LIG    1       -3.188  10.627  -5.210  0.00  0.00    -0.530 OA
BRANCH   9  18
ATOM     13  C   LIG    1       -5.359   8.337 -10.827  0.00  0.00    +0.020 C 
ATOM     14  C   LIG    1       -5.065   9.364  -9.732  0.00  0.00    -0.010 C 
ATOM     15  C   LIG    1       -4.686  10.700 -10.373  0.00  0.00    +0.010 C 
ATOM     16  C   LIG    1       -4.392  11.727  -9.278  0.00  0.00    +0.010 C 
ATOM     17  C   LIG    1       -3.233  11.230  -8.411  0.00  0.00    +0.010 C 
ATOM     18  C   LIG    1       -3.612   9.894  -7.770  0.00  0.00    +0.240 C 
ATOM     19  C   LIG    1       -3.906   8.867  -8.865  0.00  0.00    -0.010 C 
ATOM     20  C   LIG    1       -2.662   8.680  -9.736  0.00  0.00    +0.020 C 
ENDBRANCH   9  18
ENDBRANCH   1  11
BRANCH   6  21
ATOM     21  C   LIG    1       -0.090   5.865  -1.409  0.00  0.00    +0.060 C 
BRANCH  21  22
ATOM     22  C   LIG    1       -0.070   5.347   0.031  0.00  0.00    +0.090 C 
BRANCH  22  23
ATOM     23  C   LIG    1       -0.050   3.840   0.022  0.00  0.00    -0.080 A 
ATOM     24  C   LIG    1        1.156   3.165   0.008  0.00  0.00    +0.000 A 
ATOM     25  C   LIG    1        1.175   1.783   0.000  0.00  0.00    +0.000 A 
ATOM     26  C   LIG    1       -0.013   1.076   0.008  0.00  0.00    +0.000 A 
ATOM     27  C   LIG    1       -1.219   1.751   0.017  0.00  0.00    +0.000 A 
ATOM     28  C   LIG    1       -1.238   3.133   0.029  0.00  0.00    +0.000 A 
ENDBRANCH  22  23
ENDBRANCH  21  22
ENDBRANCH   6  21
TORSDOF 5
