REMARK  Name = ZINCrH000004rrh2.0
REMARK                            x       y       z     vdW  Elec       q    Type
REMARK                         _______ _______ _______ _____ _____    ______ ____
ROOT
ATOM      1  C   LIG    1        0.616  10.247   0.627  0.00  0.00    -0.650 A 
ATOM      2  C   LIG    1        1.861   9.647   0.705  0.00  0.00    +0.130 A 
ATOM      3  C   LIG    1        1.970   8.272   0.686  0.00  0.00    +0.070 A 
ATOM      4  C   LIG    1        0.821   7.485   0.589  0.00  0.00    -0.080 A 
ATOM      5  C   LIG    1       -0.432   8.097   0.506  0.00  0.00    +0.030 A 
ATOM      6  C   LIG    1       -0.527   9.473   0.531  0.00  0.00    +0.130 A 
ENDROOT
BRANCH   4   7
ATOM      7  C   LIG    1        0.930   6.011   0.569  0.00  0.00    +0.550 C 
ATOM      8  N   LIG    1       -0.182   5.255   0.475  0.00  0.00    -0.660 N 
ATOM      9  H   LIG    1       -1.046   5.676   0.347  0.00  0.00    +0.420 HD
ATOM     10  O   LIG    1        2.022   5.482   0.637  0.00  0.00    -0.450 OA
BRANCH   8  11
ATOM     11  C   LIG    1       -0.089   3.867   0.562  0.00  0.00    +0.360 A 
ATOM     12  C   LIG    1       -1.248   3.099   0.576  0.00  0.00    -0.070 A 
ATOM     13  C   LIG    1       -1.141   1.722   0.662  0.00  0.00    +0.090 A 
ATOM     14  C   LIG    1        0.125   1.159   0.733  0.00  0.00    -0.060 A 
ATOM     15  C   LIG    1        1.233   1.983   0.720  0.00  0.00    +0.290 A 
ATOM     16  N   LIG    1        1.101   3.292   0.631  0.00  0.00    -0.480 NA
ENDBRANCH   8  11
ENDBRANCH   4   7
BRANCH   1  17
ATOM     17  S   LIG    1        0.486  12.004   0.651  0.00  0.00    +2.690 S 
ATOM     18  O   LIG    1        1.709  12.489   1.187  0.00  0.00    -0.950 OA
ATOM     19  O   LIG    1       -0.783  12.305   1.214  0.00  0.00    -0.940 OA
BRANCH  17  20
ATOM     20  N   LIG    1        0.431  12.513  -0.924  0.00  0.00    -1.060 N 
ATOM     21  H   LIG    1        1.142  13.069  -1.279  0.00  0.00    +0.430 HD
BRANCH  20  26
ATOM     22  C   LIG    1       -3.913  11.007  -4.243  0.00  0.00    +0.090 C 
ATOM     23  C   LIG    1       -2.759  11.406  -3.360  0.00  0.00    -0.070 A 
ATOM     24  C   LIG    1       -1.526  10.800  -3.520  0.00  0.00    +0.020 A 
ATOM     25  C   LIG    1       -0.465  11.168  -2.717  0.00  0.00    +0.020 A 
ATOM     26  C   LIG    1       -0.639  12.141  -1.741  0.00  0.00    +0.110 A 
ATOM     27  C   LIG    1       -1.879  12.748  -1.583  0.00  0.00    +0.040 A 
ATOM     28  C   LIG    1       -2.934  12.379  -2.393  0.00  0.00    -0.080 A 
ATOM     29  C   LIG    1       -4.280  13.036  -2.222  0.00  0.00    +0.090 C 
ENDBRANCH  20  26
ENDBRANCH  17  20
ENDBRANCH   1  17
TORSDOF 5
