REMARK  Name = ZINCbu0000001gKt.0
REMARK                            x       y       z     vdW  Elec       q    Type
REMARK                         _______ _______ _______ _____ _____    ______ ____
ROOT
ATOM      1  C   LIG    1       -0.013   1.086   0.008  0.00  0.00    -0.020 C 
ATOM      2  C   LIG    1       -0.939   1.683   1.080  0.00  0.00    +0.030 C 
ATOM      3  C   LIG    1       -1.349   2.730   0.028  0.00  0.00    -0.040 C 
ATOM      4  C   LIG    1       -0.959   1.695  -1.040  0.00  0.00    +0.050 C 
ENDROOT
BRANCH   1   5
ATOM      5  C   LIG    1        1.389   1.699  -0.002  0.00  0.00    +0.040 C 
BRANCH   5   7
ATOM      6  C   LIG    1        2.361  -0.512   0.637  0.00  0.00    +0.030 C 
ATOM      7  C   LIG    1        2.272   0.969   1.012  0.00  0.00    -0.070 C 
ATOM      8  C   LIG    1        1.666   1.107   2.409  0.00  0.00    +0.020 C 
ATOM      9  C   LIG    1        3.674   1.582   1.001  0.00  0.00    +0.020 C 
ENDBRANCH   5   7
ENDBRANCH   1   5
BRANCH   3  10
ATOM     10  C   LIG    1       -2.841   3.065   0.042  0.00  0.00    +0.260 C 
BRANCH  10  11
ATOM     11  N   LIG    1       -3.093   4.143   1.008  0.00  0.00    -0.640 N 
ATOM     12  H   LIG    1       -2.567   4.962   0.742  0.00  0.00    +0.430 HD
ATOM     13  H   LIG    1       -2.807   3.843   1.928  0.00  0.00    +0.440 HD
ATOM     14  H   LIG    1       -4.077   4.364   1.016  0.00  0.00    +0.440 HD
ENDBRANCH  10  11
ENDBRANCH   3  10
TORSDOF 4
