REMARK  Name = ZINCue00000002GE.2
REMARK                            x       y       z     vdW  Elec       q    Type
REMARK                         _______ _______ _______ _____ _____    ______ ____
ROOT
ATOM      1  N   LIG    1       -4.615  -1.286  -3.974  0.00  0.00    -0.660 NA
ATOM      2  C   LIG    1       -5.948  -1.356  -3.786  0.00  0.00    +0.440 C 
ATOM      3  O   LIG    1       -6.554  -0.388  -3.377  0.00  0.00    -0.600 OA
ENDROOT
BRANCH   1   7
ATOM      4  C   LIG    1       -2.177   1.256  -3.536  0.00  0.00    +0.110 A 
ATOM      5  C   LIG    1       -3.091   2.131  -3.109  0.00  0.00    -0.230 A 
ATOM      6  S   LIG    1       -4.660   1.330  -3.120  0.00  0.00    +0.040 S 
ATOM      7  C   LIG    1       -3.935  -0.106  -3.699  0.00  0.00    +0.350 A 
ATOM      8  N   LIG    1       -2.659   0.069  -3.850  0.00  0.00    -0.540 NA
BRANCH   4   9
ATOM      9  C   LIG    1       -0.715   1.600  -3.657  0.00  0.00    +0.270 C 
BRANCH   9  13
ATOM     10  C   LIG    1       -0.731   1.580   1.266  0.00  0.00    +0.050 C 
ATOM     11  C   LIG    1       -0.013   1.086   0.008  0.00  0.00    +0.160 C 
ATOM     12  C   LIG    1       -0.748   1.594  -1.235  0.00  0.00    +0.160 C 
ATOM     13  N   LIG    1       -0.011   1.180  -2.438  0.00  0.00    -0.530 NA
ATOM     14  C   LIG    1        1.361   1.706  -2.414  0.00  0.00    +0.140 C 
ATOM     15  C   LIG    1        2.076   1.197  -1.159  0.00  0.00    +0.160 C 
ATOM     16  C   LIG    1        3.478   1.804  -1.087  0.00  0.00    +0.050 C 
ATOM     17  O   LIG    1        1.329   1.582  -0.002  0.00  0.00    -0.380 OA
ENDBRANCH   9  13
ENDBRANCH   4   9
ENDBRANCH   1   7
BRANCH   2  18
ATOM     18  C   LIG    1       -6.685  -2.635  -4.085  0.00  0.00    +0.330 C 
BRANCH  18  19
ATOM     19  N   LIG    1       -8.111  -2.455  -3.801  0.00  0.00    -0.550 N 
ATOM     20  C   LIG    1       -8.649  -2.715  -2.604  0.00  0.00    +0.540 C 
ATOM     21  C   LIG    1      -10.131  -2.422  -2.642  0.00  0.00    -0.010 C 
ATOM     22  C   LIG    1      -10.409  -1.095  -1.832  0.00  0.00    +0.220 C 
ATOM     23  C   LIG    1       -9.190  -0.166  -2.109  0.00  0.00    +0.030 C 
ATOM     24  C   LIG    1       -9.426   0.283  -3.573  0.00  0.00    +0.030 C 
ATOM     25  C   LIG    1      -10.751  -0.448  -3.948  0.00  0.00    +0.220 C 
ATOM     26  O   LIG    1      -11.443  -0.466  -2.657  0.00  0.00    -0.360 OA
ATOM     27  C   LIG    1      -10.363  -1.947  -4.109  0.00  0.00    -0.010 C 
ATOM     28  O   LIG    1       -8.040  -3.119  -1.636  0.00  0.00    -0.480 OA
ATOM     29  C   LIG    1       -8.982  -2.023  -4.719  0.00  0.00    +0.540 C 
ATOM     30  O   LIG    1       -8.707  -1.736  -5.865  0.00  0.00    -0.480 OA
ENDBRANCH  18  19
ENDBRANCH   2  18
TORSDOF 5
