REMARK  Name = ZINCpk00000y6xXK.0
REMARK                            x       y       z     vdW  Elec       q    Type
REMARK                         _______ _______ _______ _____ _____    ______ ____
ROOT
ATOM      1  C   LIG    1       -2.473   1.091   4.369  0.00  0.00    +0.640 C 
ATOM      2  N   LIG    1       -2.590  -0.232   4.599  0.00  0.00    -0.640 N 
ATOM      3  C   LIG    1       -2.194  -1.467   3.906  0.00  0.00    +0.290 C 
ATOM      4  C   LIG    1       -2.151  -2.157   5.279  0.00  0.00    +0.250 C 
ATOM      5  C   LIG    1       -3.175  -1.076   5.652  0.00  0.00    +0.290 C 
ATOM      6  O   LIG    1       -2.930   1.890   5.165  0.00  0.00    -0.510 OA
ENDROOT
BRANCH   1  11
ATOM      7  C   LIG    1       -0.013   1.086   0.008  0.00  0.00    +0.180 C 
ATOM      8  C   LIG    1       -0.718   1.572   1.248  0.00  0.00    +0.030 A 
ATOM      9  C   LIG    1       -0.916   2.865   1.585  0.00  0.00    -0.060 A 
ATOM     10  C   LIG    1       -1.610   2.873   2.805  0.00  0.00    -0.080 A 
ATOM     11  C   LIG    1       -1.796   1.567   3.159  0.00  0.00    -0.090 A 
ATOM     12  C   LIG    1       -2.058   4.087   3.577  0.00  0.00    +0.140 C 
ATOM     13  O   LIG    1       -1.247   0.793   2.200  0.00  0.00    -0.160 OA
ENDBRANCH   1  11
BRANCH   4  14
ATOM     14  N   LIG    1       -2.688  -3.520   5.284  0.00  0.00    -0.610 N 
ATOM     15  C   LIG    1       -2.186  -4.605   6.135  0.00  0.00    +0.300 C 
ATOM     16  C   LIG    1       -2.727  -5.907   5.505  0.00  0.00    +0.140 C 
ATOM     17  C   LIG    1       -3.988  -5.401   4.769  0.00  0.00    +0.090 C 
ATOM     18  C   LIG    1       -3.709  -3.936   4.514  0.00  0.00    +0.520 C 
ATOM     19  O   LIG    1       -4.315  -3.240   3.728  0.00  0.00    -0.510 OA
BRANCH  16  20
ATOM     20  C   LIG    1       -1.732  -6.491   4.535  0.00  0.00    +0.180 A 
ATOM     21  N   LIG    1       -1.171  -7.674   4.608  0.00  0.00    -0.470 NA
ATOM     22  C   LIG    1       -0.363  -7.758   3.536  0.00  0.00    +0.170 A 
ATOM     23  N   LIG    1       -0.472  -6.642   2.878  0.00  0.00    -0.380 NA
ATOM     24  C   LIG    1        0.509  -8.930   3.166  0.00  0.00    +0.200 C 
ATOM     25  O   LIG    1       -1.258  -5.903   3.432  0.00  0.00    +0.090 OA
ENDBRANCH  16  20
ENDBRANCH   4  14
TORSDOF 3
