REMARK  Name = ZINCqH00000015qM.0
REMARK                            x       y       z     vdW  Elec       q    Type
REMARK                         _______ _______ _______ _____ _____    ______ ____
ROOT
ATOM      1  C   LIG    1        0.349   4.210   2.306  0.00  0.00    +0.240 A 
ATOM      2  C   LIG    1        0.587   4.665   3.597  0.00  0.00    -0.050 A 
ATOM      3  C   LIG    1        1.868   5.008   3.982  0.00  0.00    +0.080 A 
ATOM      4  C   LIG    1        2.916   4.894   3.085  0.00  0.00    -0.090 A 
ATOM      5  C   LIG    1        2.683   4.435   1.800  0.00  0.00    +0.080 A 
ATOM      6 CL   LIG    1        4.525   5.326   3.572  0.00  0.00    -0.070 Cl
ATOM      7  C   LIG    1        1.403   4.091   1.409  0.00  0.00    -0.170 A 
ENDROOT
BRANCH   1   8
ATOM      8  N   LIG    1       -0.947   3.868   1.912  0.00  0.00    -0.740 N 
ATOM      9  H   LIG    1       -1.111   3.547   1.011  0.00  0.00    +0.400 HD
BRANCH   8  10
ATOM     10  C   LIG    1       -2.058   3.995   2.859  0.00  0.00    +0.420 C 
BRANCH  10  14
ATOM     11  N   LIG    1       -5.139   3.598   1.106  0.00  0.00    -0.120 N 
ATOM     12  N   LIG    1       -4.949   2.386   1.497  0.00  0.00    -0.060 NA
ATOM     13  N   LIG    1       -3.848   2.334   2.167  0.00  0.00    -0.270 NA
ATOM     14  C   LIG    1       -3.339   3.566   2.190  0.00  0.00    +0.140 A 
ATOM     15  N   LIG    1       -4.167   4.334   1.526  0.00  0.00    -0.290 NA
BRANCH  11  17
ATOM     16  C   LIG    1       -7.216   2.893   0.025  0.00  0.00    +0.100 C 
ATOM     17  C   LIG    1       -6.280   4.068   0.316  0.00  0.00    +0.180 C 
ATOM     18  C   LIG    1       -5.779   4.660  -1.002  0.00  0.00    +0.080 C 
ATOM     19  C   LIG    1       -7.037   5.141   1.102  0.00  0.00    +0.080 C 
ENDBRANCH  11  17
ENDBRANCH  10  14
ENDBRANCH   8  10
ENDBRANCH   1   8
BRANCH   7  20
ATOM     20  C   LIG    1        1.151   3.592   0.010  0.00  0.00    +0.310 C 
BRANCH  20  21
ATOM     21  C   LIG    1        1.171   2.086   0.002  0.00  0.00    -0.110 A 
ATOM     22  C   LIG    1       -0.017   1.378   0.010  0.00  0.00    +0.000 A 
ATOM     23  C   LIG    1        0.002  -0.004   0.002  0.00  0.00    +0.010 A 
ATOM     24  C   LIG    1        1.208  -0.679  -0.013  0.00  0.00    +0.000 A 
ATOM     25  C   LIG    1        2.396   0.029  -0.021  0.00  0.00    +0.020 A 
ATOM     26  C   LIG    1        2.377   1.411  -0.015  0.00  0.00    +0.010 A 
ENDBRANCH  20  21
BRANCH  20  27
ATOM     27  O   LIG    1        2.168   4.087  -0.863  0.00  0.00    -0.540 OA
ATOM     28  H   LIG    1        3.063   3.813  -0.620  0.00  0.00    +0.380 HD
ENDBRANCH  20  27
ENDBRANCH   7  20
TORSDOF 7
