REMARK  Name = ZINCkj000005iWgU.0
REMARK                            x       y       z     vdW  Elec       q    Type
REMARK                         _______ _______ _______ _____ _____    ______ ____
ROOT
ATOM      1  C   LIG    1       -1.674  -4.604   1.500  0.00  0.00    -0.010 C 
ATOM      2  C   LIG    1       -2.724  -4.039   0.538  0.00  0.00    +0.070 C 
ATOM      3  C   LIG    1       -2.716  -2.511   0.623  0.00  0.00    +0.260 C 
ATOM      4  N   LIG    1       -1.389  -2.003   0.255  0.00  0.00    -0.380 N 
ATOM      5  C   LIG    1       -0.388  -2.483   1.216  0.00  0.00    +0.250 C 
ATOM      6  H   LIG    1       -1.149  -2.331  -0.669  0.00  0.00    +0.420 HD
ATOM      7  C   LIG    1       -0.306  -4.010   1.153  0.00  0.00    +0.060 C 
ENDROOT
BRANCH   1   8
ATOM      8  C   LIG    1       -1.620  -6.127   1.362  0.00  0.00    +0.270 C 
BRANCH   8  10
ATOM      9  C   LIG    1       -0.497  -8.006   2.431  0.00  0.00    +0.530 C 
ATOM     10  N   LIG    1       -0.704  -6.676   2.364  0.00  0.00    -0.740 N 
ATOM     11  H   LIG    1       -0.246  -6.082   2.980  0.00  0.00    +0.400 HD
ATOM     12  O   LIG    1       -1.070  -8.748   1.662  0.00  0.00    -0.530 OA
BRANCH   9  13
ATOM     13  C   LIG    1        0.445  -8.571   3.462  0.00  0.00    +0.020 C 
ATOM     14  C   LIG    1        1.844  -7.990   3.247  0.00  0.00    +0.050 C 
BRANCH  13  15
ATOM     15  C   LIG    1        0.499 -10.094   3.325  0.00  0.00    +0.110 C 
BRANCH  15  17
ATOM     16  C   LIG    1        1.460 -12.569   4.329  0.00  0.00    +0.150 C 
ATOM     17  S   LIG    1        1.516 -10.786   4.657  0.00  0.00    -0.260 S 
ENDBRANCH  15  17
ENDBRANCH  13  15
ENDBRANCH   9  13
ENDBRANCH   8  10
ENDBRANCH   1   8
BRANCH   4  18
ATOM     18  C   LIG    1       -1.409  -0.535   0.263  0.00  0.00    +0.260 C 
BRANCH  18  19
ATOM     19  C   LIG    1        0.002  -0.004   0.002  0.00  0.00    +0.180 C 
BRANCH  19  20
ATOM     20  N   LIG    1       -0.018   1.465   0.010  0.00  0.00    -0.540 NA
ATOM     21  C   LIG    1       -0.802   1.987  -1.117  0.00  0.00    +0.200 C 
ATOM     22  C   LIG    1        1.346   2.010   0.000  0.00  0.00    +0.220 C 
ENDBRANCH  19  20
ENDBRANCH  18  19
ENDBRANCH   4  18
TORSDOF 8
