REMARK  Name = ZINCkj000005iWgU.1
REMARK                            x       y       z     vdW  Elec       q    Type
REMARK                         _______ _______ _______ _____ _____    ______ ____
ROOT
ATOM      1  C   LIG    1        2.424   0.737  -0.017  0.00  0.00    -0.020 C 
ATOM      2  C   LIG    1        2.444  -0.060   1.290  0.00  0.00    +0.040 C 
ATOM      3  C   LIG    1        3.658  -0.993   1.293  0.00  0.00    +0.160 C 
ATOM      4  N   LIG    1        4.887  -0.200   1.163  0.00  0.00    -0.530 NA
ATOM      5  C   LIG    1        4.911   0.537  -0.106  0.00  0.00    +0.180 C 
ATOM      6  C   LIG    1        3.735   1.516  -0.151  0.00  0.00    +0.050 C 
ENDROOT
BRANCH   1   7
ATOM      7  C   LIG    1        1.248   1.716  -0.001  0.00  0.00    +0.260 C 
BRANCH   7   9
ATOM      8  C   LIG    1       -1.187   1.624   0.017  0.00  0.00    +0.520 C 
ATOM      9  N   LIG    1       -0.011   0.966   0.007  0.00  0.00    -0.730 N 
ATOM     10  H   LIG    1        0.002  -0.004   0.002  0.00  0.00    +0.400 HD
ATOM     11  O   LIG    1       -1.204   2.837   0.023  0.00  0.00    -0.530 OA
BRANCH   8  12
ATOM     12  C   LIG    1       -2.482   0.853   0.018  0.00  0.00    +0.020 C 
ATOM     13  C   LIG    1       -2.557  -0.021  -1.235  0.00  0.00    +0.050 C 
BRANCH  12  14
ATOM     14  C   LIG    1       -3.658   1.831   0.029  0.00  0.00    +0.110 C 
BRANCH  14  16
ATOM     15  C   LIG    1       -6.468   2.216   0.176  0.00  0.00    +0.140 C 
ATOM     16  S   LIG    1       -5.212   0.907   0.181  0.00  0.00    -0.260 S 
ENDBRANCH  14  16
ENDBRANCH  12  14
ENDBRANCH   8  12
ENDBRANCH   7   9
ENDBRANCH   1   7
BRANCH   4  17
ATOM     17  C   LIG    1        6.078  -1.049   1.302  0.00  0.00    +0.190 C 
BRANCH  17  18
ATOM     18  C   LIG    1        5.902  -1.982   2.502  0.00  0.00    +0.250 C 
BRANCH  18  19
ATOM     19  N   LIG    1        7.093  -2.830   2.641  0.00  0.00    -0.390 N 
ATOM     20  C   LIG    1        6.877  -3.806   3.717  0.00  0.00    +0.320 C 
ATOM     21  C   LIG    1        8.256  -1.993   2.965  0.00  0.00    +0.320 C 
ATOM     22  H   LIG    1        7.262  -3.318   1.773  0.00  0.00    +0.430 HD
ENDBRANCH  18  19
ENDBRANCH  17  18
ENDBRANCH   4  17
TORSDOF 8
