REMARK  Name = ZINCpk00000y6xRi.0
REMARK                            x       y       z     vdW  Elec       q    Type
REMARK                         _______ _______ _______ _____ _____    ______ ____
ROOT
ATOM      1  N   LIG    1       -1.725  -3.134  -0.746  0.00  0.00    -0.500 NA
ATOM      2  C   LIG    1       -1.945  -2.199  -1.880  0.00  0.00    +0.170 C 
ATOM      3  C   LIG    1       -2.009  -0.803  -1.225  0.00  0.00    +0.060 C 
ATOM      4  C   LIG    1       -1.236  -0.947   0.102  0.00  0.00    +0.280 C 
ATOM      5  C   LIG    1       -0.770  -2.418   0.141  0.00  0.00    +0.200 C 
ENDROOT
BRANCH   4   6
ATOM      6  C   LIG    1       -0.047  -0.021   0.119  0.00  0.00    +0.160 A 
ATOM      7  N   LIG    1       -0.078   1.290   0.161  0.00  0.00    -0.420 NA
ATOM      8  C   LIG    1        1.208   1.683   0.161  0.00  0.00    +0.160 A 
ATOM      9  N   LIG    1        1.942   0.611   0.119  0.00  0.00    -0.380 NA
ATOM     10  C   LIG    1        1.706   3.104   0.201  0.00  0.00    +0.210 C 
ATOM     11  O   LIG    1        1.240  -0.378   0.095  0.00  0.00    +0.080 OA
ENDBRANCH   4   6
BRANCH   4  12
ATOM     12  N   LIG    1       -2.117  -0.662   1.238  0.00  0.00    -0.720 N 
ATOM     13  H   LIG    1       -2.309  -1.355   1.888  0.00  0.00    +0.410 HD
ATOM     14  C   LIG    1       -2.661   0.563   1.378  0.00  0.00    +0.500 C 
ATOM     15  O   LIG    1       -2.421   1.430   0.565  0.00  0.00    -0.490 OA
ATOM     16  C   LIG    1       -3.568   0.856   2.546  0.00  0.00    +0.090 C 
ENDBRANCH   4  12
BRANCH   1  17
ATOM     17  C   LIG    1       -1.156  -4.405  -1.215  0.00  0.00    +0.250 C 
BRANCH  17  21
ATOM     18  N   LIG    1       -3.919  -6.582  -2.179  0.00  0.00    -0.370 N 
ATOM     19  N   LIG    1       -3.503  -6.110  -3.430  0.00  0.00    -0.300 NA
ATOM     20  C   LIG    1       -2.494  -5.297  -3.246  0.00  0.00    +0.080 A 
ATOM     21  C   LIG    1       -2.235  -5.226  -1.873  0.00  0.00    -0.230 A 
ATOM     22  C   LIG    1       -1.741  -4.564  -4.326  0.00  0.00    +0.140 C 
ATOM     23  C   LIG    1       -3.122  -6.029  -1.240  0.00  0.00    +0.110 A 
ATOM     24  C   LIG    1       -3.206  -6.262   0.246  0.00  0.00    +0.140 C 
BRANCH  18  26
ATOM     25  C   LIG    1       -4.489  -8.950  -1.962  0.00  0.00    +0.040 C 
ATOM     26  C   LIG    1       -5.021  -7.516  -1.933  0.00  0.00    +0.310 C 
ENDBRANCH  18  26
ENDBRANCH  17  21
ENDBRANCH   1  17
TORSDOF 5
