REMARK  Name = ZINCrD000000CXmM.0
REMARK                            x       y       z     vdW  Elec       q    Type
REMARK                         _______ _______ _______ _____ _____    ______ ____
ROOT
ATOM      1  C   LIG    1        1.147   1.655   0.000  0.00  0.00    +0.530 C 
ATOM      2  N   LIG    1       -0.011   0.966   0.007  0.00  0.00    -0.640 N 
ATOM      3  H   LIG    1        0.002  -0.004   0.002  0.00  0.00    +0.410 HD
ATOM      4  O   LIG    1        1.130   2.868   0.007  0.00  0.00    -0.460 OA
ENDROOT
BRANCH   1   8
ATOM      5  O   LIG    1        5.622   1.734  -1.000  0.00  0.00    -0.430 OA
ATOM      6  C   LIG    1        4.787   1.316  -0.224  0.00  0.00    +0.530 C 
ATOM      7  O   LIG    1        3.553   1.877  -0.141  0.00  0.00    -0.330 OA
ATOM      8  C   LIG    1        2.462   0.920  -0.017  0.00  0.00    +0.210 C 
ATOM      9  C   LIG    1        2.624   0.136   1.286  0.00  0.00    +0.110 C 
ATOM     10  C   LIG    1        4.026  -0.403   1.401  0.00  0.00    -0.040 A 
ATOM     11  C   LIG    1        4.287  -1.472   2.234  0.00  0.00    +0.020 A 
ATOM     12  C   LIG    1        5.574  -1.965   2.350  0.00  0.00    +0.050 A 
ATOM     13  C   LIG    1        6.611  -1.393   1.635  0.00  0.00    +0.010 A 
ATOM     14  C   LIG    1        6.366  -0.325   0.796  0.00  0.00    +0.090 A 
ATOM     15  C   LIG    1        5.070   0.173   0.675  0.00  0.00    -0.170 A 
ENDBRANCH   1   8
BRANCH   2  16
ATOM     16  C   LIG    1       -1.228   1.647   0.017  0.00  0.00    +0.300 A 
ATOM     17  C   LIG    1       -1.394   2.998   0.025  0.00  0.00    -0.100 A 
ATOM     18  C   LIG    1       -2.767   3.260   0.032  0.00  0.00    +0.250 A 
ATOM     19  N   LIG    1       -3.404   2.118   0.029  0.00  0.00    -0.280 NA
ATOM     20  N   LIG    1       -2.458   1.085   0.014  0.00  0.00    -0.380 N 
BRANCH  20  21
ATOM     21  C   LIG    1       -2.750  -0.351   0.001  0.00  0.00    +0.380 C 
BRANCH  21  22
ATOM     22  C   LIG    1       -2.847  -0.857   1.417  0.00  0.00    -0.110 A 
ATOM     23  C   LIG    1       -1.720  -1.333   2.060  0.00  0.00    +0.020 A 
ATOM     24  C   LIG    1       -1.807  -1.792   3.361  0.00  0.00    +0.030 A 
ATOM     25  C   LIG    1       -3.023  -1.786   4.016  0.00  0.00    +0.040 A 
ATOM     26  C   LIG    1       -4.154  -1.315   3.371  0.00  0.00    -0.030 A 
ATOM     27 CL   LIG    1       -5.683  -1.308   4.194  0.00  0.00    -0.060 Cl
ATOM     28  C   LIG    1       -4.065  -0.851   2.072  0.00  0.00    +0.060 A 
ENDBRANCH  21  22
ENDBRANCH  20  21
ENDBRANCH   2  16
TORSDOF 4
