REMARK  Name = ZINCc70000002Civ.0
REMARK                            x       y       z     vdW  Elec       q    Type
REMARK                         _______ _______ _______ _____ _____    ______ ____
ROOT
ATOM      1  C   LIG    1        1.726  -1.863  -0.024  0.00  0.00    +0.120 C 
ATOM      2  C   LIG    1        1.779  -2.394   1.411  0.00  0.00    +0.060 C 
ATOM      3  C   LIG    1        2.304  -3.831   1.399  0.00  0.00    +0.260 C 
ATOM      4  N   LIG    1        3.650  -3.859   0.815  0.00  0.00    -0.510 N 
ATOM      5  C   LIG    1        3.596  -3.419  -0.584  0.00  0.00    +0.260 C 
ATOM      6  H   LIG    1        4.254  -3.242   1.337  0.00  0.00    +0.430 HD
ATOM      7  H   LIG    1        4.014  -4.799   0.857  0.00  0.00    +0.430 HD
ATOM      8  C   LIG    1        3.120  -1.966  -0.648  0.00  0.00    +0.080 C 
ENDROOT
BRANCH   1  14
ATOM      9  N   LIG    1       -1.076   2.109   0.019  0.00  0.00    -0.840 NA
ATOM     10  H   LIG    1       -0.978   3.074   0.024  0.00  0.00    +0.340 HD
ATOM     11  C   LIG    1       -0.016   1.344   0.009  0.00  0.00    +0.450 A 
ATOM     12  N   LIG    1        1.290   1.759  -0.001  0.00  0.00    -0.540 NA
ATOM     13  N   LIG    1        2.075   0.597  -0.015  0.00  0.00    -0.290 NA
ATOM     14  C   LIG    1        1.284  -0.422  -0.013  0.00  0.00    +0.050 A 
ATOM     15  O   LIG    1        0.002  -0.004   0.002  0.00  0.00    -0.300 OA
ENDBRANCH   1  14
TORSDOF 1
