REMARK  Name = ZINCrH000004tXGW.0
REMARK                            x       y       z     vdW  Elec       q    Type
REMARK                         _______ _______ _______ _____ _____    ______ ____
ROOT
ATOM      1  O   LIG    1        3.103   2.428  -3.404  0.00  0.00    -0.520 OA
ATOM      2  C   LIG    1        1.932   2.118  -3.460  0.00  0.00    +0.520 C 
ATOM      3  N   LIG    1        1.362   1.450  -2.437  0.00  0.00    -0.620 N 
ATOM      4  C   LIG    1        2.147   1.092  -1.247  0.00  0.00    +0.270 C 
ATOM      5  C   LIG    1        1.423   1.615  -0.003  0.00  0.00    +0.030 C 
ATOM      6  C   LIG    1       -0.013   1.086   0.008  0.00  0.00    +0.070 C 
ATOM      7  C   LIG    1       -0.754   1.593  -1.231  0.00  0.00    +0.020 C 
ATOM      8  C   LIG    1       -0.055   1.069  -2.490  0.00  0.00    +0.270 C 
ENDROOT
BRANCH   6   9
ATOM      9  C   LIG    1       -0.718   1.571   1.248  0.00  0.00    -0.160 A 
ATOM     10  C   LIG    1       -0.923   2.850   1.601  0.00  0.00    +0.230 A 
ATOM     11  N   LIG    1       -1.601   2.904   2.789  0.00  0.00    -0.600 N 
ATOM     12  H   LIG    1       -1.865   3.719   3.243  0.00  0.00    +0.420 HD
ATOM     13  C   LIG    1       -1.845   1.628   3.246  0.00  0.00    +0.090 A 
ATOM     14  C   LIG    1       -2.477   1.121   4.376  0.00  0.00    -0.010 A 
ATOM     15  C   LIG    1       -2.565  -0.242   4.557  0.00  0.00    +0.020 A 
ATOM     16  C   LIG    1       -2.028  -1.117   3.622  0.00  0.00    -0.030 A 
ATOM     17  C   LIG    1       -1.403  -0.640   2.505  0.00  0.00    +0.050 A 
ATOM     18  C   LIG    1       -1.303   0.738   2.301  0.00  0.00    -0.100 A 
ENDBRANCH   6   9
BRANCH   2  19
ATOM     19  C   LIG    1        1.114   2.479  -4.673  0.00  0.00    +0.160 C 
BRANCH  19  20
ATOM     20  C   LIG    1        1.981   3.215  -5.662  0.00  0.00    +0.070 A 
ATOM     21  C   LIG    1        2.173   2.867  -6.953  0.00  0.00    +0.090 A 
ATOM     22  N   LIG    1        3.020   3.792  -7.499  0.00  0.00    -0.360 N 
ATOM     23  C   LIG    1        3.547   3.937  -8.750  0.00  0.00    +0.210 A 
ATOM     24  C   LIG    1        4.382   4.960  -9.030  0.00  0.00    +0.010 A 
ATOM     25  C   LIG    1        4.719   5.892  -8.034  0.00  0.00    +0.040 A 
ATOM     26  C   LIG    1        4.201   5.759  -6.784  0.00  0.00    +0.070 A 
ATOM     27  C   LIG    1        3.331   4.686  -6.507  0.00  0.00    +0.220 A 
ATOM     28  N   LIG    1        2.691   4.316  -5.407  0.00  0.00    -0.460 NA
ENDBRANCH  19  20
ENDBRANCH   2  19
TORSDOF 3
