REMARK  Name = ZINCrD00000F5Lkn.0
REMARK                            x       y       z     vdW  Elec       q    Type
REMARK                         _______ _______ _______ _____ _____    ______ ____
ROOT
ATOM      1  C   LIG    1        0.812   5.780   1.254  0.00  0.00    +0.530 C 
ATOM      2  N   LIG    1        0.975   7.100   1.472  0.00  0.00    -0.720 N 
ATOM      3  H   LIG    1        0.618   7.744   0.840  0.00  0.00    +0.400 HD
ATOM      4  O   LIG    1        1.258   4.976   2.044  0.00  0.00    -0.520 OA
ENDROOT
BRANCH   2   5
ATOM      5  C   LIG    1        1.690   7.564   2.663  0.00  0.00    +0.250 C 
ATOM      6  C   LIG    1        2.321   8.956   2.500  0.00  0.00    +0.050 C 
ATOM      7  C   LIG    1        1.875   9.241   3.944  0.00  0.00    +0.080 C 
ATOM      8  C   LIG    1        0.774   8.190   3.728  0.00  0.00    +0.050 C 
BRANCH   7   9
ATOM      9  C   LIG    1        1.347  10.638   4.148  0.00  0.00    +0.190 A 
ATOM     10  N   LIG    1        0.321  11.176   3.544  0.00  0.00    -0.290 NA
ATOM     11  N   LIG    1        0.151  12.380   3.967  0.00  0.00    -0.290 NA
ATOM     12  C   LIG    1        1.056  12.660   4.860  0.00  0.00    +0.180 A 
ATOM     13  C   LIG    1        1.213  13.949   5.625  0.00  0.00    +0.150 C 
ATOM     14  C   LIG    1        2.684  14.374   5.593  0.00  0.00    +0.020 C 
ATOM     15  C   LIG    1        3.426  13.736   6.763  0.00  0.00    +0.010 C 
ATOM     16  C   LIG    1        2.846  12.357   7.077  0.00  0.00    +0.030 C 
ATOM     17  C   LIG    1        3.013  11.438   5.864  0.00  0.00    +0.290 C 
ATOM     18  N   LIG    1        1.842  11.567   4.996  0.00  0.00    -0.470 N 
ENDBRANCH   7   9
ENDBRANCH   2   5
BRANCH   1  20
ATOM     19  C   LIG    1        0.799   5.799  -1.226  0.00  0.00    +0.070 C 
ATOM     20  C   LIG    1        0.076   5.304   0.028  0.00  0.00    +0.050 C 
BRANCH  20  21
ATOM     21  C   LIG    1        0.034   3.798   0.021  0.00  0.00    +0.200 A 
ATOM     22  N   LIG    1        1.161   3.114   0.007  0.00  0.00    -0.470 NA
ATOM     23  C   LIG    1        1.172   1.793   0.001  0.00  0.00    +0.320 A 
ATOM     24  C   LIG    1       -0.013   1.076   0.008  0.00  0.00    -0.020 A 
ATOM     25  C   LIG    1       -1.217   1.761   0.017  0.00  0.00    +0.130 A 
ATOM     26  F   LIG    1        2.352   1.135  -0.014  0.00  0.00    -0.100 F 
ATOM     27  C   LIG    1       -1.187   3.149   0.029  0.00  0.00    -0.100 A 
ATOM     28 CL   LIG    1       -2.666   4.059   0.048  0.00  0.00    -0.040 Cl
ENDBRANCH  20  21
ENDBRANCH   1  20
TORSDOF 4
