REMARK  Name = ZINCkj000005ivrs.0
REMARK                            x       y       z     vdW  Elec       q    Type
REMARK                         _______ _______ _______ _____ _____    ______ ____
ROOT
ATOM      1  C   LIG    1       -4.314   6.576  -1.261  0.00  0.00    +0.520 C 
ATOM      2  N   LIG    1       -3.559   6.064  -0.269  0.00  0.00    -0.610 N 
ATOM      3  C   LIG    1       -3.960   6.251   1.127  0.00  0.00    +0.280 C 
ATOM      4  O   LIG    1       -3.982   6.422  -2.417  0.00  0.00    -0.530 OA
ENDROOT
BRANCH   2   5
ATOM      5  C   LIG    1       -2.337   5.321  -0.587  0.00  0.00    +0.250 C 
ATOM      6  C   LIG    1       -1.129   6.016   0.052  0.00  0.00    +0.010 C 
ATOM      7  C   LIG    1        0.143   5.367  -0.491  0.00  0.00    +0.080 C 
ATOM      8  C   LIG    1        0.075   3.869  -0.349  0.00  0.00    -0.080 A 
ATOM      9  C   LIG    1        1.263   3.156  -0.440  0.00  0.00    +0.000 A 
ATOM     10  C   LIG    1        1.267   1.781  -0.325  0.00  0.00    +0.010 A 
ATOM     11  C   LIG    1        0.078   1.107  -0.118  0.00  0.00    +0.000 A 
ATOM     12  C   LIG    1       -1.104   1.813  -0.033  0.00  0.00    +0.000 A 
ATOM     13  C   LIG    1       -1.109   3.197  -0.140  0.00  0.00    -0.080 A 
ATOM     14  C   LIG    1       -2.433   3.905  -0.022  0.00  0.00    +0.070 C 
ENDBRANCH   2   5
BRANCH   1  15
ATOM     15  C   LIG    1       -5.570   7.341  -0.934  0.00  0.00    +0.100 C 
BRANCH  15  16
ATOM     16  C   LIG    1       -6.234   7.810  -2.230  0.00  0.00    +0.170 C 
BRANCH  16  18
ATOM     17  C   LIG    1       -5.351   8.607  -4.311  0.00  0.00    +0.220 C 
ATOM     18  O   LIG    1       -5.382   8.748  -2.889  0.00  0.00    -0.370 OA
ENDBRANCH  16  18
BRANCH  16  19
ATOM     19  C   LIG    1       -7.572   8.477  -1.905  0.00  0.00    +0.270 C 
BRANCH  19  20
ATOM     20  N   LIG    1       -8.239   8.871  -3.154  0.00  0.00    -0.640 N 
ATOM     21  H   LIG    1       -7.702   9.594  -3.608  0.00  0.00    +0.440 HD
ATOM     22  H   LIG    1       -9.163   9.218  -2.947  0.00  0.00    +0.440 HD
ATOM     23  H   LIG    1       -8.309   8.071  -3.764  0.00  0.00    +0.430 HD
ENDBRANCH  19  20
ENDBRANCH  16  19
ENDBRANCH  15  16
ENDBRANCH   1  15
TORSDOF 6
