REMARK  Name = ZINCvU0000000EDZ.0
REMARK                            x       y       z     vdW  Elec       q    Type
REMARK                         _______ _______ _______ _____ _____    ______ ____
ROOT
ATOM      1  N   LIG    1       -4.182  -4.668   0.806  0.00  0.00    -0.600 N 
ATOM      2  C   LIG    1       -5.042  -5.089   1.755  0.00  0.00    +0.550 C 
ATOM      3  O   LIG    1       -6.017  -4.422   2.029  0.00  0.00    -0.510 OA
ATOM      4  C   LIG    1       -3.005  -5.473   0.475  0.00  0.00    +0.280 C 
ENDROOT
BRANCH   1   6
ATOM      5  C   LIG    1       -4.416  -3.646  -1.404  0.00  0.00    +0.050 C 
ATOM      6  C   LIG    1       -4.425  -3.403   0.107  0.00  0.00    +0.290 C 
BRANCH   6   7
ATOM      7  C   LIG    1       -3.344  -2.416   0.463  0.00  0.00    -0.100 A 
ATOM      8  C   LIG    1       -2.016  -2.746   0.264  0.00  0.00    +0.050 A 
ATOM      9  C   LIG    1       -1.022  -1.843   0.589  0.00  0.00    +0.030 A 
ATOM     10  C   LIG    1       -1.358  -0.604   1.117  0.00  0.00    +0.150 A 
ATOM     11  C   LIG    1       -2.692  -0.278   1.322  0.00  0.00    +0.000 A 
ATOM     12  C   LIG    1       -3.682  -1.183   0.989  0.00  0.00    +0.060 A 
BRANCH  10  13
ATOM     13  N   LIG    1       -0.352   0.315   1.449  0.00  0.00    -0.330 N 
ATOM     14  C   LIG    1       -0.522   1.547   1.966  0.00  0.00    +0.480 A 
ATOM     15  N   LIG    1        0.660   2.083   2.132  0.00  0.00    -0.540 NA
ATOM     16  C   LIG    1        1.604   1.230   1.735  0.00  0.00    +0.430 A 
ATOM     17  N   LIG    1        1.033   0.133   1.308  0.00  0.00    -0.310 NA
ENDBRANCH  10  13
ENDBRANCH   6   7
ENDBRANCH   1   6
BRANCH   2  18
ATOM     18  C   LIG    1       -4.792  -6.389   2.474  0.00  0.00    +0.050 C 
BRANCH  18  19
ATOM     19  C   LIG    1       -3.857  -6.151   3.632  0.00  0.00    -0.090 A 
ATOM     20  C   LIG    1       -4.212  -5.271   4.637  0.00  0.00    +0.040 A 
ATOM     21  C   LIG    1       -3.357  -5.056   5.701  0.00  0.00    +0.020 A 
ATOM     22  C   LIG    1       -2.142  -5.714   5.756  0.00  0.00    +0.010 A 
ATOM     23  C   LIG    1       -1.785  -6.590   4.748  0.00  0.00    +0.010 A 
ATOM     24  C   LIG    1       -2.643  -6.809   3.686  0.00  0.00    +0.010 A 
ENDBRANCH  18  19
BRANCH  18  25
ATOM     25  S   LIG    1       -6.364  -7.050   3.092  0.00  0.00    -0.030 S 
BRANCH  25  26
ATOM     26  C   LIG    1       -5.902  -8.614   3.759  0.00  0.00    -0.100 A 
ATOM     27  C   LIG    1       -4.578  -9.032   3.702  0.00  0.00    -0.010 A 
ATOM     28  C   LIG    1       -4.218 -10.256   4.230  0.00  0.00    +0.020 A 
ATOM     29  C   LIG    1       -5.176 -11.071   4.806  0.00  0.00    +0.000 A 
ATOM     30  C   LIG    1       -6.496 -10.661   4.860  0.00  0.00    +0.030 A 
ATOM     31  C   LIG    1       -6.862  -9.436   4.338  0.00  0.00    +0.030 A 
ENDBRANCH  25  26
ENDBRANCH  18  25
ENDBRANCH   2  18
TORSDOF 7
