REMARK  Name = ZINCqH0000000knJ.0
REMARK                            x       y       z     vdW  Elec       q    Type
REMARK                         _______ _______ _______ _____ _____    ______ ____
ROOT
ATOM      1  N   LIG    1       -2.930  -1.911  -0.145  0.00  0.00    -0.450 N 
ATOM      2  C   LIG    1       -2.067  -0.865  -0.308  0.00  0.00    +0.140 A 
ATOM      3  N   LIG    1       -0.863  -1.371  -0.446  0.00  0.00    -0.260 NA
ATOM      4  N   LIG    1       -0.912  -2.653  -0.372  0.00  0.00    -0.260 NA
ATOM      5  C   LIG    1       -2.153  -3.044  -0.191  0.00  0.00    +0.230 A 
ENDROOT
BRANCH   5   6
ATOM      6  C   LIG    1       -2.625  -4.439  -0.063  0.00  0.00    -0.000 A 
ATOM      7  C   LIG    1       -1.729  -5.453   0.276  0.00  0.00    +0.080 A 
ATOM      8  C   LIG    1       -2.176  -6.752   0.400  0.00  0.00    +0.050 A 
ATOM      9  C   LIG    1       -3.510  -7.052   0.178  0.00  0.00    -0.080 A 
ATOM     10  C   LIG    1       -4.403  -6.051  -0.163  0.00  0.00    +0.050 A 
ATOM     11 BR   LIG    1       -4.114  -8.837   0.342  0.00  0.00    -0.040 Br
ATOM     12  C   LIG    1       -3.968  -4.747  -0.285  0.00  0.00    +0.020 A 
ENDBRANCH   5   6
BRANCH   1  13
ATOM     13  C   LIG    1       -4.381  -1.840   0.042  0.00  0.00    +0.350 C 
BRANCH  13  15
ATOM     14  C   LIG    1       -6.003  -2.579  -1.627  0.00  0.00    +0.080 C 
ATOM     15  C   LIG    1       -5.056  -1.734  -1.301  0.00  0.00    -0.060 C 
ENDBRANCH  13  15
ENDBRANCH   1  13
BRANCH   2  16
ATOM     16  S   LIG    1       -2.491   0.845  -0.336  0.00  0.00    +0.200 S 
BRANCH  16  17
ATOM     17  C   LIG    1       -0.922   1.543  -0.732  0.00  0.00    +0.140 A 
ATOM     18  C   LIG    1       -0.280   2.383   0.158  0.00  0.00    +0.030 A 
ATOM     19  C   LIG    1        0.962   2.910  -0.188  0.00  0.00    +0.230 A 
ATOM     20  N   LIG    1        1.512   2.617  -1.348  0.00  0.00    -0.440 NA
ATOM     21  C   LIG    1        0.899   1.810  -2.222  0.00  0.00    +0.450 A 
ATOM     22  N   LIG    1        1.241   1.374  -3.429  0.00  0.00    -0.520 NA
ATOM     23  C   LIG    1        0.288   0.581  -3.905  0.00  0.00    +0.490 A 
ATOM     24  N   LIG    1       -0.683   0.485  -3.030  0.00  0.00    -0.320 NA
ATOM     25  C   LIG    1        1.680   3.823   0.772  0.00  0.00    +0.170 C 
ATOM     26  N   LIG    1       -0.320   1.269  -1.927  0.00  0.00    -0.300 N 
ENDBRANCH  16  17
ENDBRANCH   2  16
TORSDOF 5
