REMARK  Name = ZINCrH00000No50S.0
REMARK                            x       y       z     vdW  Elec       q    Type
REMARK                         _______ _______ _______ _____ _____    ______ ____
ROOT
ATOM      1  C   LIG    1       -2.406  -2.872   0.008  0.00  0.00    +0.150 C 
ATOM      2  C   LIG    1       -1.246  -2.179   0.002  0.00  0.00    -0.110 C 
ENDROOT
BRANCH   1   6
ATOM      3  C   LIG    1       -2.339  -7.116  -0.014  0.00  0.00    +0.130 A 
ATOM      4  C   LIG    1       -1.147  -6.403  -0.022  0.00  0.00    -0.040 A 
ATOM      5  C   LIG    1       -1.164  -5.025  -0.015  0.00  0.00    +0.060 A 
ATOM      6  C   LIG    1       -2.385  -4.341   0.000  0.00  0.00    -0.090 A 
ATOM      7  C   LIG    1       -3.586  -5.061   0.013  0.00  0.00    +0.000 A 
ATOM      8  C   LIG    1       -3.560  -6.441   0.001  0.00  0.00    +0.100 A 
BRANCH   8   9
ATOM      9  O   LIG    1       -4.724  -7.144   0.008  0.00  0.00    -0.300 OA
ATOM     10  C   LIG    1       -5.937  -6.388   0.024  0.00  0.00    +0.240 C 
ENDBRANCH   8   9
BRANCH   3  11
ATOM     11  O   LIG    1       -2.315  -8.473  -0.021  0.00  0.00    -0.300 OA
BRANCH  11  12
ATOM     12  C   LIG    1       -1.031  -9.100  -0.036  0.00  0.00    +0.180 C 
BRANCH  12  14
ATOM     13  C   LIG    1        0.169 -11.291  -0.058  0.00  0.00    +0.040 C 
ATOM     14  C   LIG    1       -1.206 -10.620  -0.042  0.00  0.00    +0.020 C 
ENDBRANCH  12  14
ENDBRANCH  11  12
ENDBRANCH   3  11
ENDBRANCH   1   6
BRANCH   2  15
ATOM     15  C   LIG    1       -1.266  -0.761   0.009  0.00  0.00    +0.430 C 
ATOM     16  O   LIG    1       -2.330  -0.168   0.022  0.00  0.00    -0.460 OA
BRANCH  15  17
ATOM     17  C   LIG    1        0.002  -0.004   0.002  0.00  0.00    -0.150 A 
ATOM     18  C   LIG    1        1.223  -0.684  -0.013  0.00  0.00    +0.080 A 
ATOM     19  C   LIG    1        2.407   0.022  -0.021  0.00  0.00    +0.030 A 
ATOM     20  C   LIG    1        2.390   1.409  -0.015  0.00  0.00    +0.110 A 
ATOM     21  O   LIG    1        3.552   2.113  -0.026  0.00  0.00    -0.300 OA
ATOM     22  C   LIG    1        3.538   3.366  -0.713  0.00  0.00    +0.300 C 
ATOM     23  C   LIG    1        2.313   4.150  -0.314  0.00  0.00    +0.490 C 
ATOM     24  N   LIG    1        1.176   3.497   0.011  0.00  0.00    -0.660 N 
ATOM     25  H   LIG    1        0.375   3.990   0.246  0.00  0.00    +0.420 HD
ATOM     26  O   LIG    1        2.349   5.362  -0.284  0.00  0.00    -0.500 OA
ATOM     27  C   LIG    1        1.173   2.094   0.002  0.00  0.00    +0.080 A 
ATOM     28  C   LIG    1       -0.017   1.394   0.010  0.00  0.00    +0.080 A 
ENDBRANCH  15  17
ENDBRANCH   2  15
TORSDOF 7
