REMARK  Name = ZINCvU00000005BK.0
REMARK                            x       y       z     vdW  Elec       q    Type
REMARK                         _______ _______ _______ _____ _____    ______ ____
ROOT
ATOM      1  C   LIG    1        6.093  -0.686  -0.274  0.00  0.00    +0.060 C 
ENDROOT
BRANCH   1   2
ATOM      2  C   LIG    1        6.545  -1.151   1.086  0.00  0.00    -0.090 A 
ATOM      3  C   LIG    1        6.782  -0.229   2.089  0.00  0.00    +0.040 A 
ATOM      4  C   LIG    1        7.192  -0.656   3.338  0.00  0.00    +0.000 A 
ATOM      5  C   LIG    1        7.374  -2.005   3.582  0.00  0.00    +0.010 A 
ATOM      6  C   LIG    1        7.142  -2.926   2.578  0.00  0.00    +0.010 A 
ATOM      7  C   LIG    1        6.728  -2.500   1.330  0.00  0.00    +0.060 A 
ENDBRANCH   1   2
BRANCH   1  10
ATOM      8  N   LIG    1        3.632  -0.643  -0.035  0.00  0.00    -0.650 N 
ATOM      9  H   LIG    1        3.651  -1.611   0.025  0.00  0.00    +0.420 HD
ATOM     10  C   LIG    1        4.784   0.048  -0.144  0.00  0.00    +0.550 C 
ATOM     11  O   LIG    1        4.766   1.261  -0.138  0.00  0.00    -0.500 OA
BRANCH   8  17
ATOM     12  C   LIG    1        1.279  -0.533  -0.597  0.00  0.00    +0.110 A 
ATOM     13  C   LIG    1        0.070   0.143  -0.567  0.00  0.00    -0.060 A 
ATOM     14  C   LIG    1       -0.015   1.381   0.044  0.00  0.00    +0.040 A 
ATOM     15  C   LIG    1        1.103   1.946   0.627  0.00  0.00    -0.010 A 
ATOM     16  C   LIG    1        2.313   1.278   0.602  0.00  0.00    +0.070 A 
ATOM     17  C   LIG    1        2.406   0.036  -0.009  0.00  0.00    +0.110 A 
BRANCH  12  18
ATOM     18  O   LIG    1        1.364  -1.750  -1.197  0.00  0.00    -0.320 OA
BRANCH  18  20
ATOM     19  C   LIG    1        0.458  -3.639  -2.401  0.00  0.00    +0.070 C 
ATOM     20  C   LIG    1        0.168  -2.273  -1.778  0.00  0.00    +0.180 C 
ENDBRANCH  18  20
ENDBRANCH  12  18
ENDBRANCH   8  17
ENDBRANCH   1  10
BRANCH   1  21
ATOM     21  S   LIG    1        7.339   0.423  -0.977  0.00  0.00    +0.090 S 
BRANCH  21  22
ATOM     22  C   LIG    1        8.684  -0.702  -1.155  0.00  0.00    +0.150 A 
ATOM     23  N   LIG    1        8.686  -1.974  -0.831  0.00  0.00    -0.280 NA
ATOM     24  N   LIG    1        9.831  -2.493  -1.099  0.00  0.00    -0.280 NA
ATOM     25  C   LIG    1       10.627  -1.589  -1.597  0.00  0.00    +0.390 A 
ATOM     26  N   LIG    1        9.926  -0.414  -1.651  0.00  0.00    -0.420 N 
BRANCH  26  27
ATOM     27  C   LIG    1       10.385   0.827  -2.118  0.00  0.00    +0.110 A 
ATOM     28  C   LIG    1        9.638   1.542  -3.044  0.00  0.00    +0.020 A 
ATOM     29  C   LIG    1       10.090   2.765  -3.498  0.00  0.00    +0.040 A 
ATOM     30  C   LIG    1       11.291   3.273  -3.038  0.00  0.00    +0.030 A 
ATOM     31  C   LIG    1       12.040   2.561  -2.120  0.00  0.00    +0.040 A 
ATOM     32  C   LIG    1       11.590   1.339  -1.658  0.00  0.00    +0.020 A 
ENDBRANCH  26  27
ENDBRANCH  21  22
ENDBRANCH   1  21
TORSDOF 8
