REMARK  Name = ZINCqH0000002aps.0
REMARK                            x       y       z     vdW  Elec       q    Type
REMARK                         _______ _______ _______ _____ _____    ______ ____
ROOT
ATOM      1  N   LIG    1       -2.849   6.830   4.141  0.00  0.00    -0.740 N 
ATOM      2  H   LIG    1       -3.363   7.104   4.916  0.00  0.00    +0.410 HD
ENDROOT
BRANCH   1   7
ATOM      3  C   LIG    1       -1.605   3.735   2.589  0.00  0.00    +0.190 A 
ATOM      4  C   LIG    1       -2.094   2.785   3.476  0.00  0.00    -0.040 A 
ATOM      5  C   LIG    1       -2.821   3.180   4.583  0.00  0.00    +0.080 A 
ATOM      6  C   LIG    1       -3.074   4.520   4.804  0.00  0.00    -0.170 A 
ATOM      7  C   LIG    1       -2.592   5.475   3.917  0.00  0.00    +0.240 A 
ATOM      8  C   LIG    1       -3.873   4.946   6.008  0.00  0.00    +0.090 C 
ATOM      9  C   LIG    1       -1.857   5.082   2.808  0.00  0.00    -0.100 A 
BRANCH   3  11
ATOM     10  C   LIG    1       -0.061   2.253   1.548  0.00  0.00    +0.510 C 
ATOM     11  N   LIG    1       -0.863   3.334   1.472  0.00  0.00    -0.680 N 
ATOM     12  H   LIG    1       -0.926   3.834   0.643  0.00  0.00    +0.410 HD
ATOM     13  O   LIG    1        0.092   1.685   2.609  0.00  0.00    -0.510 OA
BRANCH  10  15
ATOM     14  C   LIG    1        1.485   0.523   0.673  0.00  0.00    +0.040 C 
ATOM     15  C   LIG    1        0.645   1.751   0.315  0.00  0.00    +0.060 C 
ENDBRANCH  10  15
ENDBRANCH   3  11
ENDBRANCH   1   7
BRANCH   1  16
ATOM     16  C   LIG    1       -2.341   7.836   3.205  0.00  0.00    +0.290 C 
BRANCH  16  17
ATOM     17  C   LIG    1       -2.753   9.209   3.671  0.00  0.00    +0.510 C 
ATOM     18  N   LIG    1       -2.395  10.297   2.961  0.00  0.00    -0.720 N 
ATOM     19  H   LIG    1       -1.873  10.197   2.149  0.00  0.00    +0.400 HD
ATOM     20  O   LIG    1       -3.406   9.334   4.685  0.00  0.00    -0.530 OA
BRANCH  18  21
ATOM     21  C   LIG    1       -2.795  11.631   3.414  0.00  0.00    +0.290 C 
ATOM     22  C   LIG    1       -4.204  11.942   2.904  0.00  0.00    +0.040 C 
BRANCH  21  23
ATOM     23  C   LIG    1       -1.829  12.655   2.876  0.00  0.00    -0.110 A 
ATOM     24  C   LIG    1       -1.345  12.538   1.587  0.00  0.00    +0.040 A 
ATOM     25  C   LIG    1       -0.463  13.479   1.091  0.00  0.00    -0.010 A 
ATOM     26  C   LIG    1       -0.056  14.534   1.889  0.00  0.00    +0.100 A 
ATOM     27  C   LIG    1       -0.537  14.648   3.183  0.00  0.00    -0.010 A 
ATOM     28  F   LIG    1        0.810  15.452   1.407  0.00  0.00    -0.140 F 
ATOM     29  C   LIG    1       -1.423  13.708   3.675  0.00  0.00    +0.060 A 
ENDBRANCH  21  23
ENDBRANCH  18  21
ENDBRANCH  16  17
ENDBRANCH   1  16
TORSDOF 7
