REMARK  Name = ZINCqH0000000xc2.0
REMARK                            x       y       z     vdW  Elec       q    Type
REMARK                         _______ _______ _______ _____ _____    ______ ____
ROOT
ATOM      1  N   LIG    1       -2.421   1.040   0.020  0.00  0.00    -0.510 N 
ATOM      2  C   LIG    1       -2.555   0.243   1.247  0.00  0.00    +0.210 C 
ATOM      3  C   LIG    1       -3.912  -0.464   1.247  0.00  0.00    +0.220 C 
ATOM      4  N   LIG    1       -4.017  -1.317   0.055  0.00  0.00    -0.480 N 
ATOM      5  C   LIG    1       -3.883  -0.521  -1.172  0.00  0.00    +0.240 C 
ATOM      6  C   LIG    1       -2.526   0.186  -1.172  0.00  0.00    +0.200 C 
ENDROOT
BRANCH   1  10
ATOM      7  C   LIG    1        1.151   3.179   0.008  0.00  0.00    -0.140 A 
ATOM      8  C   LIG    1        1.170   1.778   0.000  0.00  0.00    +0.080 A 
ATOM      9  C   LIG    1       -0.013   1.076   0.008  0.00  0.00    +0.010 A 
ATOM     10  C   LIG    1       -1.228   1.754   0.017  0.00  0.00    +0.090 A 
ATOM     11  C   LIG    1       -1.253   3.149   0.030  0.00  0.00    +0.120 A 
ATOM     12  F   LIG    1       -2.435   3.803   0.044  0.00  0.00    -0.120 F 
ATOM     13  C   LIG    1       -0.074   3.859   0.023  0.00  0.00    +0.040 A 
BRANCH   7  15
ATOM     14  C   LIG    1        2.388   5.439   0.007  0.00  0.00    +0.080 C 
ATOM     15  C   LIG    1        2.411   3.932  -0.001  0.00  0.00    +0.400 C 
ATOM     16  O   LIG    1        3.470   3.341  -0.014  0.00  0.00    -0.450 OA
ENDBRANCH   7  15
ENDBRANCH   1  10
BRANCH   4  17
ATOM     17  C   LIG    1       -5.210  -2.032   0.058  0.00  0.00    +0.340 A 
ATOM     18  C   LIG    1       -5.519  -2.854   1.136  0.00  0.00    -0.040 A 
ATOM     19  C   LIG    1       -6.711  -3.556   1.127  0.00  0.00    +0.150 A 
ATOM     20  C   LIG    1       -7.552  -3.419   0.031  0.00  0.00    -0.270 A 
ATOM     21  C   LIG    1       -7.180  -2.589  -1.008  0.00  0.00    +0.360 A 
ATOM     22  N   LIG    1       -6.039  -1.928  -0.970  0.00  0.00    -0.520 NA
BRANCH  20  23
ATOM     23  C   LIG    1       -8.858  -4.169  -0.024  0.00  0.00    +0.520 C 
ATOM     24  F   LIG    1       -9.658  -3.792   1.060  0.00  0.00    -0.180 F 
ATOM     25  F   LIG    1       -8.609  -5.544   0.036  0.00  0.00    -0.170 F 
ATOM     26  F   LIG    1       -9.520  -3.866  -1.219  0.00  0.00    -0.180 F 
ENDBRANCH  20  23
ENDBRANCH   4  17
TORSDOF 4
