REMARK  Name = ZINCrH000004k6Zc.0
REMARK                            x       y       z     vdW  Elec       q    Type
REMARK                         _______ _______ _______ _____ _____    ______ ____
ROOT
ATOM      1  N   LIG    1        3.628  -0.666  -0.010  0.00  0.00    -0.670 N 
ATOM      2  H   LIG    1        3.639  -1.634   0.052  0.00  0.00    +0.410 HD
ATOM      3  C   LIG    1        4.786   0.015  -0.114  0.00  0.00    +0.520 C 
ATOM      4  O   LIG    1        4.779   1.228  -0.109  0.00  0.00    -0.510 OA
ENDROOT
BRANCH   1  12
ATOM      5  C   LIG    1       -0.947   3.551   0.044  0.00  0.00    +0.220 C 
ATOM      6  N   LIG    1       -1.207   2.106   0.111  0.00  0.00    -0.500 N 
ATOM      7  C   LIG    1       -2.185   1.702  -0.901  0.00  0.00    +0.200 C 
ATOM      8  C   LIG    1       -2.396   0.186  -0.803  0.00  0.00    +0.040 C 
ATOM      9  C   LIG    1       -1.105  -0.500  -1.254  0.00  0.00    +0.070 C 
ATOM     10  C   LIG    1        0.078   0.146  -0.576  0.00  0.00    -0.110 A 
ATOM     11  C   LIG    1        1.287  -0.531  -0.590  0.00  0.00    +0.000 A 
ATOM     12  C   LIG    1        2.408   0.023   0.007  0.00  0.00    +0.110 A 
ATOM     13  C   LIG    1        2.319   1.264   0.624  0.00  0.00    +0.050 A 
ATOM     14  C   LIG    1        1.116   1.937   0.640  0.00  0.00    -0.010 A 
ATOM     15  C   LIG    1       -0.016   1.380   0.043  0.00  0.00    +0.120 A 
ENDBRANCH   1  12
BRANCH   3  16
ATOM     16  C   LIG    1        6.091  -0.730  -0.237  0.00  0.00    -0.030 C 
ATOM     17  C   LIG    1        6.111  -1.509  -1.554  0.00  0.00    +0.080 C 
ATOM     18  C   LIG    1        6.234  -1.704   0.934  0.00  0.00    +0.070 C 
BRANCH  16  19
ATOM     19  C   LIG    1        7.234   0.252  -0.217  0.00  0.00    -0.060 A 
ATOM     20  C   LIG    1        7.380   1.162  -1.246  0.00  0.00    +0.050 A 
ATOM     21  C   LIG    1        8.424   2.067  -1.229  0.00  0.00    +0.030 A 
ATOM     22  C   LIG    1        9.336   2.056  -0.184  0.00  0.00    +0.050 A 
ATOM     23  O   LIG    1       10.365   2.947  -0.185  0.00  0.00    -0.310 OA
ATOM     24  C   LIG    1       11.038   3.154   1.062  0.00  0.00    +0.220 C 
ATOM     25  C   LIG    1       11.322   1.782   1.688  0.00  0.00    +0.220 C 
ATOM     26  O   LIG    1       10.071   1.113   1.888  0.00  0.00    -0.310 OA
ATOM     27  C   LIG    1        9.191   1.138   0.850  0.00  0.00    +0.050 A 
ATOM     28  C   LIG    1        8.138   0.236   0.829  0.00  0.00    +0.030 A 
ENDBRANCH  16  19
ENDBRANCH   3  16
TORSDOF 3
