REMARK  Name = ZINCvU00000007AW.0
REMARK                            x       y       z     vdW  Elec       q    Type
REMARK                         _______ _______ _______ _____ _____    ______ ____
ROOT
ATOM      1  C   LIG    1       -2.359   0.867  -0.223  0.00  0.00    +0.130 A 
ATOM      2  C   LIG    1       -2.372  -0.522  -0.236  0.00  0.00    +0.090 A 
ATOM      3  C   LIG    1       -3.574  -1.200  -0.283  0.00  0.00    +0.020 A 
ATOM      4  C   LIG    1       -4.764  -0.497  -0.329  0.00  0.00    +0.110 A 
ATOM      5  C   LIG    1       -4.755   0.886  -0.322  0.00  0.00    -0.660 A 
ATOM      6  C   LIG    1       -3.557   1.570  -0.269  0.00  0.00    +0.100 A 
ENDROOT
BRANCH   1   8
ATOM      7  C   LIG    1       -0.102   1.034   0.507  0.00  0.00    +0.610 C 
ATOM      8  N   LIG    1       -1.144   1.556  -0.170  0.00  0.00    -0.670 N 
ATOM      9  H   LIG    1       -1.050   2.411  -0.619  0.00  0.00    +0.410 HD
ATOM     10  O   LIG    1       -0.245   0.009   1.149  0.00  0.00    -0.500 OA
BRANCH   7  13
ATOM     11  C   LIG    1        2.392   0.035   1.957  0.00  0.00    +0.180 C 
ATOM     12  C   LIG    1        2.341   1.275   1.101  0.00  0.00    +0.180 A 
ATOM     13  C   LIG    1        1.203   1.694   0.465  0.00  0.00    -0.330 A 
ATOM     14  S   LIG    1        1.590   3.176  -0.407  0.00  0.00    +0.190 S 
ATOM     15  C   LIG    1        3.206   3.093   0.143  0.00  0.00    +0.140 A 
ATOM     16  N   LIG    1        3.378   2.043   0.898  0.00  0.00    -0.480 NA
BRANCH  15  17
ATOM     17  C   LIG    1        4.258   4.072  -0.189  0.00  0.00    -0.080 A 
ATOM     18  C   LIG    1        5.525   3.978   0.261  0.00  0.00    +0.000 A 
ATOM     19  S   LIG    1        6.474   5.271  -0.314  0.00  0.00    +0.200 S 
ATOM     20  C   LIG    1        5.123   5.967  -1.193  0.00  0.00    -0.050 A 
ATOM     21  C   LIG    1        4.035   5.221  -1.033  0.00  0.00    +0.030 A 
ENDBRANCH  15  17
ENDBRANCH   7  13
ENDBRANCH   1   8
BRANCH   5  22
ATOM     22  S   LIG    1       -6.274   1.776  -0.380  0.00  0.00    +2.690 S 
ATOM     23  O   LIG    1       -6.012   3.055   0.182  0.00  0.00    -0.940 OA
ATOM     24  O   LIG    1       -7.274   0.898   0.119  0.00  0.00    -0.940 OA
BRANCH  22  25
ATOM     25  N   LIG    1       -6.632   2.032  -1.977  0.00  0.00    -0.950 N 
ATOM     26  C   LIG    1       -7.479   1.080  -2.700  0.00  0.00    +0.320 C 
BRANCH  25  27
ATOM     27  C   LIG    1       -6.126   3.156  -2.635  0.00  0.00    +0.130 A 
ATOM     28  C   LIG    1       -6.481   4.430  -2.210  0.00  0.00    +0.030 A 
ATOM     29  C   LIG    1       -5.975   5.538  -2.860  0.00  0.00    +0.020 A 
ATOM     30  C   LIG    1       -5.125   5.381  -3.938  0.00  0.00    +0.020 A 
ATOM     31  C   LIG    1       -4.773   4.114  -4.367  0.00  0.00    +0.020 A 
ATOM     32  C   LIG    1       -5.271   3.001  -3.719  0.00  0.00    +0.010 A 
ENDBRANCH  25  27
ENDBRANCH  22  25
ENDBRANCH   5  22
TORSDOF 6
