REMARK  Name = ZINCrD000000Cr7s.0
REMARK                            x       y       z     vdW  Elec       q    Type
REMARK                         _______ _______ _______ _____ _____    ______ ____
ROOT
ATOM      1  O   LIG    1        1.106   0.071  -1.923  0.00  0.00    -0.510 OA
ATOM      2  C   LIG    1        0.601  -0.602  -1.047  0.00  0.00    +0.510 C 
ENDROOT
BRANCH   2   3
ATOM      3  C   LIG    1        0.659  -2.074  -1.122  0.00  0.00    -0.160 A 
ATOM      4  C   LIG    1        0.083  -2.850  -0.112  0.00  0.00    +0.110 A 
ATOM      5  C   LIG    1        0.135  -4.223  -0.188  0.00  0.00    -0.010 A 
ATOM      6  C   LIG    1        0.768  -4.839  -1.263  0.00  0.00    +0.200 A 
ATOM      7  C   LIG    1        1.347  -4.069  -2.268  0.00  0.00    -0.030 A 
ATOM      8  C   LIG    1        1.294  -2.696  -2.201  0.00  0.00    +0.120 A 
BRANCH   6   9
ATOM      9  N   LIG    1        0.823  -6.230  -1.334  0.00  0.00    -0.560 N 
ATOM     10  C   LIG    1        1.356  -6.981  -2.477  0.00  0.00    +0.270 C 
ATOM     11  C   LIG    1        0.824  -8.421  -2.309  0.00  0.00    +0.060 C 
ATOM     12  C   LIG    1        0.598  -8.497  -0.781  0.00  0.00    +0.070 C 
ATOM     13  C   LIG    1        0.401  -7.057  -0.362  0.00  0.00    +0.520 C 
ATOM     14  O   LIG    1       -0.071  -6.700   0.697  0.00  0.00    -0.500 OA
ENDBRANCH   6   9
ENDBRANCH   2   3
BRANCH   2  15
ATOM     15  O   LIG    1       -0.012  -0.004  -0.006  0.00  0.00    -0.350 OA
BRANCH  15  16
ATOM     16  C   LIG    1       -0.031   1.448   0.002  0.00  0.00    +0.310 C 
BRANCH  16  17
ATOM     17  C   LIG    1       -0.754   1.933   1.232  0.00  0.00    -0.240 A 
ATOM     18  C   LIG    1       -0.191   2.199   2.434  0.00  0.00    +0.270 A 
ATOM     19  N   LIG    1       -1.173   2.609   3.267  0.00  0.00    -0.320 N 
ATOM     20  N   LIG    1       -2.378   2.595   2.552  0.00  0.00    -0.290 NA
ATOM     21  C   LIG    1       -2.125   2.195   1.332  0.00  0.00    +0.270 A 
BRANCH  19  22
ATOM     22  C   LIG    1       -1.014   2.984   4.609  0.00  0.00    +0.150 A 
ATOM     23  C   LIG    1        0.243   2.947   5.197  0.00  0.00    -0.010 A 
ATOM     24  C   LIG    1        0.397   3.323   6.517  0.00  0.00    +0.040 A 
ATOM     25  C   LIG    1       -0.701   3.723   7.256  0.00  0.00    +0.000 A 
ATOM     26  C   LIG    1       -1.955   3.755   6.675  0.00  0.00    +0.040 A 
ATOM     27  C   LIG    1       -2.115   3.387   5.353  0.00  0.00    +0.020 A 
ENDBRANCH  19  22
ENDBRANCH  16  17
ENDBRANCH  15  16
ENDBRANCH   2  15
TORSDOF 6
