REMARK  Name = ZINCrH000004roiY.0
REMARK                            x       y       z     vdW  Elec       q    Type
REMARK                         _______ _______ _______ _____ _____    ______ ____
ROOT
ATOM      1  C   LIG    1       -5.944  -1.212  -0.352  0.00  0.00    +0.100 C 
ATOM      2  C   LIG    1       -4.683  -0.393  -0.254  0.00  0.00    -0.130 A 
ATOM      3  C   LIG    1       -3.456  -1.022  -0.163  0.00  0.00    +0.070 A 
ATOM      4  C   LIG    1       -2.297  -0.275  -0.079  0.00  0.00    -0.010 A 
ATOM      5  C   LIG    1       -2.364   1.112  -0.073  0.00  0.00    +0.200 A 
ATOM      6  C   LIG    1       -3.595   1.747  -0.164  0.00  0.00    -0.110 A 
ATOM      7  C   LIG    1       -4.755   0.994  -0.254  0.00  0.00    +0.150 A 
ENDROOT
BRANCH   5   8
ATOM      8  N   LIG    1       -1.191   1.870   0.018  0.00  0.00    -0.690 N 
ATOM      9  H   LIG    1       -1.129   2.725  -0.435  0.00  0.00    +0.400 HD
ATOM     10  C   LIG    1       -0.146   1.410   0.736  0.00  0.00    +0.700 C 
ATOM     11  N   LIG    1        1.022   2.083   0.731  0.00  0.00    -0.630 N 
ATOM     12  C   LIG    1        1.155   3.316  -0.049  0.00  0.00    +0.280 C 
ATOM     13  O   LIG    1       -0.257   0.387   1.383  0.00  0.00    -0.550 OA
BRANCH  11  14
ATOM     14  C   LIG    1        2.159   1.580   1.506  0.00  0.00    +0.430 C 
BRANCH  14  15
ATOM     15  C   LIG    1        2.980   0.651   0.649  0.00  0.00    -0.040 A 
ATOM     16  C   LIG    1        4.075   0.976  -0.077  0.00  0.00    +0.150 A 
ATOM     17  N   LIG    1        4.480  -0.167  -0.678  0.00  0.00    -0.300 N 
ATOM     18  N   LIG    1        3.673  -1.110  -0.339  0.00  0.00    -0.090 NA
ATOM     19  C   LIG    1        5.636  -0.305  -1.568  0.00  0.00    +0.370 C 
ATOM     20  N   LIG    1        2.767  -0.654   0.453  0.00  0.00    -0.240 NA
ENDBRANCH  14  15
ENDBRANCH  11  14
ENDBRANCH   5   8
BRANCH   7  21
ATOM     21  O   LIG    1       -5.962   1.612  -0.343  0.00  0.00    -0.310 OA
BRANCH  21  22
ATOM     22  C   LIG    1       -5.961   3.041  -0.338  0.00  0.00    +0.180 C 
BRANCH  22  23
ATOM     23  C   LIG    1       -7.399   3.552  -0.445  0.00  0.00    +0.000 C 
ATOM     24  C   LIG    1       -7.983   3.152  -1.802  0.00  0.00    +0.020 C 
ATOM     25  C   LIG    1       -9.421   3.664  -1.909  0.00  0.00    +0.000 C 
ATOM     26  C   LIG    1       -9.431   5.188  -1.778  0.00  0.00    +0.000 C 
ATOM     27  C   LIG    1       -8.847   5.588  -0.422  0.00  0.00    +0.000 C 
ATOM     28  C   LIG    1       -7.409   5.077  -0.315  0.00  0.00    +0.010 C 
ENDBRANCH  22  23
ENDBRANCH  21  22
ENDBRANCH   7  21
TORSDOF 6
