REMARK  Name = ZINC660000002kp2.0
REMARK                            x       y       z     vdW  Elec       q    Type
REMARK                         _______ _______ _______ _____ _____    ______ ____
ROOT
ATOM      1  C   LIG    1        2.452   1.190  -0.015  0.00  0.00    +0.220 C 
ATOM      2  C   LIG    1        1.049   1.740   0.001  0.00  0.00    +0.510 C 
ATOM      3  N   LIG    1       -0.011   0.966   0.007  0.00  0.00    -0.640 NA
ATOM      4  C   LIG    1       -1.223   1.801   0.017  0.00  0.00    +0.320 C 
ATOM      5  C   LIG    1       -0.660   3.238   0.026  0.00  0.00    +0.320 C 
ATOM      6  H   LIG    1        0.002  -0.004   0.002  0.00  0.00    +0.460 HD
ATOM      7  N   LIG    1        0.797   3.028   0.011  0.00  0.00    -0.640 NA
ATOM      8  H   LIG    1        1.465   3.731   0.008  0.00  0.00    +0.460 HD
ENDROOT
TORSDOF 0
