REMARK  Name = ZINCrH00000No4EE.0
REMARK                            x       y       z     vdW  Elec       q    Type
REMARK                         _______ _______ _______ _____ _____    ______ ____
ROOT
ATOM      1  C   LIG    1        2.060   0.668  -0.014  0.00  0.00    +0.260 A 
ATOM      2  N   LIG    1        1.325   1.759  -0.001  0.00  0.00    -0.290 NA
ATOM      3  N   LIG    1       -0.016   1.341   0.009  0.00  0.00    -0.370 N 
ATOM      4  C   LIG    1        0.002  -0.004   0.002  0.00  0.00    +0.290 A 
ATOM      5  N   LIG    1        1.248  -0.397  -0.012  0.00  0.00    -0.510 NA
ENDROOT
BRANCH   1   8
ATOM      6  C   LIG    1        5.677   1.716  -0.043  0.00  0.00    +0.320 A 
ATOM      7  C   LIG    1        4.293   1.802  -0.035  0.00  0.00    -0.010 A 
ATOM      8  C   LIG    1        3.543   0.626  -0.028  0.00  0.00    +0.070 A 
ATOM      9  C   LIG    1        4.226  -0.595  -0.041  0.00  0.00    -0.020 A 
ATOM     10  C   LIG    1        5.605  -0.593  -0.054  0.00  0.00    +0.310 A 
ATOM     11  N   LIG    1        6.282   0.539  -0.054  0.00  0.00    -0.530 NA
BRANCH   6  13
ATOM     12  C   LIG    1        7.841   2.698  -0.058  0.00  0.00    +0.260 C 
ATOM     13  O   LIG    1        6.420   2.852  -0.044  0.00  0.00    -0.310 OA
ENDBRANCH   6  13
ENDBRANCH   1   8
BRANCH   4  14
ATOM     14  C   LIG    1       -1.207  -0.903   0.009  0.00  0.00    +0.090 C 
ATOM     15  C   LIG    1       -1.198  -1.780  -1.245  0.00  0.00    +0.060 C 
BRANCH  14  16
ATOM     16  C   LIG    1       -1.174  -1.793   1.253  0.00  0.00    +0.110 C 
BRANCH  16  17
ATOM     17  C   LIG    1       -2.442  -2.604   1.324  0.00  0.00    -0.040 A 
ATOM     18  C   LIG    1       -3.556  -2.123   1.996  0.00  0.00    -0.040 A 
ATOM     19  C   LIG    1       -4.703  -2.893   2.036  0.00  0.00    +0.260 A 
ATOM     20  N   LIG    1       -4.742  -4.076   1.454  0.00  0.00    -0.490 NA
ATOM     21  C   LIG    1       -3.701  -4.567   0.811  0.00  0.00    +0.260 A 
ATOM     22  C   LIG    1       -2.521  -3.852   0.725  0.00  0.00    -0.030 A 
ENDBRANCH  16  17
ENDBRANCH  14  16
ENDBRANCH   4  14
BRANCH   3  23
ATOM     23  C   LIG    1       -1.202   2.202   0.020  0.00  0.00    +0.350 C 
BRANCH  23  24
ATOM     24  C   LIG    1       -1.607   2.493   1.466  0.00  0.00    +0.010 C 
BRANCH  24  25
ATOM     25  C   LIG    1       -2.846   3.392   1.477  0.00  0.00    +0.390 C 
ATOM     26  F   LIG    1       -2.524   4.636   0.925  0.00  0.00    -0.200 F 
ATOM     27  F   LIG    1       -3.284   3.566   2.794  0.00  0.00    -0.200 F 
ENDBRANCH  24  25
ENDBRANCH  23  24
ENDBRANCH   3  23
TORSDOF 8
