REMARK  Name = ZINCvU0000000Gny.0
REMARK                            x       y       z     vdW  Elec       q    Type
REMARK                         _______ _______ _______ _____ _____    ______ ____
ROOT
ATOM      1  N   LIG    1        2.897   1.457   1.632  0.00  0.00    -0.710 N 
ATOM      2  H   LIG    1        2.612   1.955   2.414  0.00  0.00    +0.400 HD
ATOM      3  C   LIG    1        3.943   0.612   1.716  0.00  0.00    +0.600 C 
ATOM      4  O   LIG    1        4.301  -0.012   0.735  0.00  0.00    -0.510 OA
ENDROOT
BRANCH   3   5
ATOM      5  C   LIG    1        4.654   0.444   2.995  0.00  0.00    -0.230 A 
ATOM      6  C   LIG    1        4.445  -0.496   3.972  0.00  0.00    +0.020 A 
ATOM      7  O   LIG    1        5.334  -0.247   4.936  0.00  0.00    +0.110 OA
ATOM      8  N   LIG    1        6.043   0.701   4.701  0.00  0.00    -0.320 NA
ATOM      9  C   LIG    1        3.415  -1.596   3.959  0.00  0.00    +0.200 C 
ATOM     10  C   LIG    1        5.764   1.249   3.545  0.00  0.00    +0.080 A 
BRANCH  10  11
ATOM     11  C   LIG    1        6.420   2.424   2.924  0.00  0.00    -0.060 A 
ATOM     12  C   LIG    1        6.843   2.370   1.595  0.00  0.00    +0.140 A 
ATOM     13  C   LIG    1        7.453   3.470   1.021  0.00  0.00    +0.000 A 
ATOM     14  C   LIG    1        7.644   4.622   1.761  0.00  0.00    +0.090 A 
ATOM     15  C   LIG    1        7.226   4.682   3.079  0.00  0.00    +0.030 A 
ATOM     16  F   LIG    1        6.656   1.245   0.870  0.00  0.00    -0.110 F 
ATOM     17  C   LIG    1        6.611   3.592   3.662  0.00  0.00    +0.020 A 
ATOM     18 CL   LIG    1        6.083   3.673   5.314  0.00  0.00    -0.040 Cl
ENDBRANCH  10  11
ENDBRANCH   3   5
BRANCH   1  19
ATOM     19  C   LIG    1        2.190   1.625   0.360  0.00  0.00    +0.350 C 
BRANCH  19  29
ATOM     20  C   LIG    1        1.345   3.978   0.522  0.00  0.00    +0.130 A 
ATOM     21  C   LIG    1        0.310   4.888   0.688  0.00  0.00    -0.030 A 
ATOM     22  C   LIG    1       -0.980   4.439   0.861  0.00  0.00    -0.120 A 
ATOM     23  C   LIG    1       -1.266   3.080   0.861  0.00  0.00    +0.070 A 
ATOM     24  O   LIG    1       -2.600   2.858   1.029  0.00  0.00    -0.300 OA
ATOM     25  C   LIG    1       -3.212   4.035   1.581  0.00  0.00    +0.200 C 
ATOM     26  C   LIG    1       -3.215   3.983   3.110  0.00  0.00    +0.040 C 
ATOM     27  C   LIG    1       -0.223   2.171   0.705  0.00  0.00    +0.060 A 
ATOM     28  C   LIG    1       -2.292   5.170   1.073  0.00  0.00    +0.080 C 
ATOM     29  C   LIG    1        1.070   2.618   0.534  0.00  0.00    -0.110 A 
BRANCH  20  30
ATOM     30  O   LIG    1        2.620   4.416   0.349  0.00  0.00    -0.310 OA
BRANCH  30  32
ATOM     31  C   LIG    1        4.312   6.129   0.141  0.00  0.00    +0.070 C 
ATOM     32  C   LIG    1        2.826   5.830   0.347  0.00  0.00    +0.170 C 
ENDBRANCH  30  32
ENDBRANCH  20  30
ENDBRANCH  19  29
ENDBRANCH   1  19
TORSDOF 6
