REMARK  Name = ZINCrg00000SjSGg.0
REMARK                            x       y       z     vdW  Elec       q    Type
REMARK                         _______ _______ _______ _____ _____    ______ ____
ROOT
ATOM      1  C   LIG    1       -4.080  -4.066   1.230  0.00  0.00    +0.470 C 
ATOM      2  O   LIG    1       -4.908  -4.410   0.420  0.00  0.00    -0.500 OA
ENDROOT
BRANCH   1   3
ATOM      3  O   LIG    1       -2.903  -3.570   0.818  0.00  0.00    -0.350 OA
BRANCH   3   4
ATOM      4  C   LIG    1       -2.693  -3.476  -0.616  0.00  0.00    +0.340 C 
BRANCH   4   7
ATOM      5  C   LIG    1        0.923  -3.203  -1.248  0.00  0.00    +0.630 A 
ATOM      6  N   LIG    1       -0.285  -3.707  -1.009  0.00  0.00    -0.620 NA
ATOM      7  C   LIG    1       -1.326  -2.902  -0.887  0.00  0.00    +0.430 A 
ATOM      8  N   LIG    1       -1.171  -1.594  -0.996  0.00  0.00    -0.620 NA
ATOM      9  C   LIG    1        0.034  -1.083  -1.239  0.00  0.00    +0.630 A 
ATOM     10  N   LIG    1        1.083  -1.889  -1.363  0.00  0.00    -0.650 NA
BRANCH   5  12
ATOM     11  C   LIG    1        3.340  -3.489  -1.638  0.00  0.00    +0.300 C 
ATOM     12  N   LIG    1        2.010  -4.045  -1.376  0.00  0.00    -0.580 N 
ATOM     13  C   LIG    1        1.833  -5.494  -1.249  0.00  0.00    +0.310 C 
ENDBRANCH   5  12
BRANCH   9  14
ATOM     14  N   LIG    1        0.195   0.282  -1.358  0.00  0.00    -0.800 N 
ATOM     15  H   LIG    1       -0.572   0.870  -1.271  0.00  0.00    +0.420 HD
ATOM     16  H   LIG    1        1.073   0.654  -1.531  0.00  0.00    +0.420 HD
ENDBRANCH   9  14
ENDBRANCH   4   7
ENDBRANCH   3   4
ENDBRANCH   1   3
BRANCH   1  17
ATOM     17  C   LIG    1       -4.369  -4.193   2.704  0.00  0.00    +0.110 C 
BRANCH  17  18
ATOM     18  C   LIG    1       -5.768  -4.781   2.900  0.00  0.00    +0.340 C 
BRANCH  18  19
ATOM     19  C   LIG    1       -6.011  -5.023   4.367  0.00  0.00    -0.090 A 
ATOM     20  C   LIG    1       -5.179  -4.446   5.309  0.00  0.00    +0.080 A 
ATOM     21  C   LIG    1       -5.405  -4.664   6.656  0.00  0.00    +0.010 A 
ATOM     22  C   LIG    1       -6.454  -5.467   7.061  0.00  0.00    +0.030 A 
ATOM     23  C   LIG    1       -7.283  -6.048   6.119  0.00  0.00    +0.010 A 
ATOM     24  C   LIG    1       -7.062  -5.826   4.772  0.00  0.00    -0.020 A 
ATOM     25 CL   LIG    1       -8.102  -6.557   3.589  0.00  0.00    -0.070 Cl
ENDBRANCH  18  19
BRANCH  18  26
ATOM     26  N   LIG    1       -6.769  -3.841   2.388  0.00  0.00    -0.730 N 
ATOM     27  H   LIG    1       -7.318  -4.085   1.627  0.00  0.00    +0.400 HD
ATOM     28  C   LIG    1       -6.926  -2.638   2.975  0.00  0.00    +0.710 C 
ATOM     29  O   LIG    1       -6.176  -2.295   3.868  0.00  0.00    -0.590 OA
ATOM     30  N   LIG    1       -7.915  -1.816   2.572  0.00  0.00    -0.870 N 
ATOM     31  H   LIG    1       -8.028  -0.950   2.995  0.00  0.00    +0.410 HD
ATOM     32  H   LIG    1       -8.514  -2.090   1.860  0.00  0.00    +0.400 HD
ENDBRANCH  18  26
ENDBRANCH  17  18
ENDBRANCH   1  17
TORSDOF 9
