REMARK  Name = ZINCvU0000000BSb.0
REMARK                            x       y       z     vdW  Elec       q    Type
REMARK                         _______ _______ _______ _____ _____    ______ ____
ROOT
ATOM      1  S   LIG    1        1.058  -2.435  -0.021  0.00  0.00    +0.070 S 
ENDROOT
BRANCH   1   2
ATOM      2  C   LIG    1        1.128  -0.674  -0.012  0.00  0.00    +0.360 A 
ATOM      3  N   LIG    1        0.002  -0.004   0.002  0.00  0.00    -0.530 NA
ATOM      4  C   LIG    1       -0.016   1.349   0.009  0.00  0.00    +0.160 A 
ATOM      5  C   LIG    1       -1.217   2.064   0.031  0.00  0.00    +0.030 A 
ATOM      6  C   LIG    1       -1.191   3.440   0.033  0.00  0.00    +0.060 A 
ATOM      7  C   LIG    1        0.015   4.130   0.025  0.00  0.00    -0.010 A 
ATOM      8  C   LIG    1        1.212   3.448   0.009  0.00  0.00    +0.100 A 
ATOM      9  C   LIG    1        1.209   2.054   0.002  0.00  0.00    -0.200 A 
ATOM     10  C   LIG    1        2.456   1.278  -0.015  0.00  0.00    +0.550 A 
ATOM     11  O   LIG    1        3.542   1.828  -0.022  0.00  0.00    -0.490 OA
ATOM     12  N   LIG    1        2.353  -0.072  -0.020  0.00  0.00    -0.520 N 
BRANCH  12  13
ATOM     13  C   LIG    1        3.567  -0.893  -0.036  0.00  0.00    +0.230 C 
ATOM     14  C   LIG    1        4.456  -0.544   1.176  0.00  0.00    +0.020 C 
ATOM     15  C   LIG    1        5.901  -0.639   0.626  0.00  0.00    +0.020 C 
ATOM     16  C   LIG    1        5.761  -0.057  -0.803  0.00  0.00    +0.030 C 
ATOM     17  C   LIG    1        4.397  -0.583  -1.294  0.00  0.00    +0.020 C 
ENDBRANCH  12  13
ENDBRANCH   1   2
BRANCH   1  18
ATOM     18  C   LIG    1       -0.736  -2.678  -0.005  0.00  0.00    +0.020 C 
ATOM     19  C   LIG    1       -1.311  -2.149   1.310  0.00  0.00    +0.090 C 
BRANCH  18  22
ATOM     20  N   LIG    1       -2.229  -4.545  -0.641  0.00  0.00    -0.720 N 
ATOM     21  H   LIG    1       -2.882  -3.885  -0.923  0.00  0.00    +0.400 HD
ATOM     22  C   LIG    1       -1.045  -4.147  -0.134  0.00  0.00    +0.540 C 
ATOM     23  O   LIG    1       -0.229  -4.971   0.218  0.00  0.00    -0.520 OA
BRANCH  20  25
ATOM     24  C   LIG    1       -1.955  -6.502  -2.082  0.00  0.00    +0.040 C 
ATOM     25  C   LIG    1       -2.529  -5.973  -0.766  0.00  0.00    +0.290 C 
BRANCH  25  26
ATOM     26  C   LIG    1       -4.023  -6.175  -0.753  0.00  0.00    -0.110 A 
ATOM     27  C   LIG    1       -4.846  -5.289  -1.423  0.00  0.00    +0.040 A 
ATOM     28  C   LIG    1       -6.215  -5.476  -1.415  0.00  0.00    -0.010 A 
ATOM     29  C   LIG    1       -6.763  -6.546  -0.728  0.00  0.00    +0.100 A 
ATOM     30  C   LIG    1       -5.938  -7.430  -0.054  0.00  0.00    -0.010 A 
ATOM     31  F   LIG    1       -8.102  -6.727  -0.717  0.00  0.00    -0.140 F 
ATOM     32  C   LIG    1       -4.569  -7.244  -0.067  0.00  0.00    +0.060 A 
ENDBRANCH  25  26
ENDBRANCH  20  25
ENDBRANCH  18  22
ENDBRANCH   1  18
TORSDOF 6
