REMARK  Name = ZINCpk00000e1B3h.0
REMARK                            x       y       z     vdW  Elec       q    Type
REMARK                         _______ _______ _______ _____ _____    ______ ____
ROOT
ATOM      1  C   LIG    1       -0.481   2.982  -7.453  0.00  0.00    +0.060 C 
ATOM      2  C   LIG    1       -0.875   1.660  -6.793  0.00  0.00    +0.200 C 
ENDROOT
BRANCH   2   3
ATOM      3  C   LIG    1       -2.148   1.147  -7.417  0.00  0.00    +0.450 A 
ATOM      4  N   LIG    1       -3.161   0.895  -6.635  0.00  0.00    -0.560 NA
ATOM      5  C   LIG    1       -4.333   0.440  -7.118  0.00  0.00    +0.530 A 
ATOM      6  C   LIG    1       -4.444   0.217  -8.571  0.00  0.00    -0.210 A 
ATOM      7  C   LIG    1       -5.615  -0.256  -9.159  0.00  0.00    +0.110 A 
ATOM      8  C   LIG    1       -5.659  -0.444 -10.524  0.00  0.00    -0.020 A 
ATOM      9  C   LIG    1       -4.550  -0.166 -11.309  0.00  0.00    +0.080 A 
ATOM     10  C   LIG    1       -3.384   0.304 -10.740  0.00  0.00    -0.020 A 
ATOM     11  C   LIG    1       -3.320   0.499  -9.368  0.00  0.00    +0.180 A 
ATOM     12  O   LIG    1       -5.272   0.214  -6.375  0.00  0.00    -0.480 OA
ATOM     13  N   LIG    1       -2.177   0.967  -8.749  0.00  0.00    -0.630 N 
ATOM     14  H   LIG    1       -1.390   1.169  -9.279  0.00  0.00    +0.420 HD
ENDBRANCH   2   3
BRANCH   2  15
ATOM     15  N   LIG    1       -1.086   1.874  -5.355  0.00  0.00    -0.510 NA
ATOM     16  C   LIG    1       -1.213   0.594  -4.646  0.00  0.00    +0.190 C 
ATOM     17  C   LIG    1       -1.575   0.855  -3.182  0.00  0.00    +0.040 C 
ATOM     18  C   LIG    1       -0.484   1.712  -2.536  0.00  0.00    +0.270 C 
ATOM     19  C   LIG    1       -0.339   3.018  -3.322  0.00  0.00    +0.030 C 
ATOM     20  C   LIG    1       -0.012   2.695  -4.782  0.00  0.00    +0.190 C 
BRANCH  18  21
ATOM     21  N   LIG    1       -0.854   2.013  -1.151  0.00  0.00    -0.630 N 
ATOM     22  C   LIG    1       -0.074   1.641   0.040  0.00  0.00    +0.250 C 
ATOM     23  C   LIG    1       -0.902   2.195   1.215  0.00  0.00    +0.250 C 
ATOM     24  N   LIG    1       -2.065   2.820   0.559  0.00  0.00    -0.750 N 
ATOM     25  H   LIG    1       -2.794   3.268   1.016  0.00  0.00    +0.430 HD
ATOM     26  C   LIG    1       -1.955   2.671  -0.767  0.00  0.00    +0.700 C 
ATOM     27  O   LIG    1       -2.781   3.096  -1.552  0.00  0.00    -0.570 OA
ENDBRANCH  18  21
ENDBRANCH   2  15
TORSDOF 3
