REMARK  Name = ZINCtj0000001Bi8.0
REMARK                            x       y       z     vdW  Elec       q    Type
REMARK                         _______ _______ _______ _____ _____    ______ ____
ROOT
ATOM      1  C   LIG    1       -7.086   5.959   3.964  0.00  0.00    +0.090 C 
ENDROOT
BRANCH   1   9
ATOM      2  C   LIG    1      -13.580   6.878   8.106  0.00  0.00    +0.330 C 
ATOM      3  N   LIG    1      -12.222   6.323   8.184  0.00  0.00    -0.400 N 
ATOM      4  C   LIG    1      -11.224   7.435   8.317  0.00  0.00    +0.300 C 
ATOM      5  C   LIG    1      -10.039   6.902   7.539  0.00  0.00    -0.110 C 
ATOM      6  C   LIG    1       -9.048   7.782   6.804  0.00  0.00    +0.320 C 
ATOM      7  N   LIG    1       -8.591   6.883   5.696  0.00  0.00    -0.630 N 
ATOM      8  C   LIG    1       -9.697   5.916   5.414  0.00  0.00    +0.320 C 
ATOM      9  C   LIG    1       -7.402   6.939   5.065  0.00  0.00    +0.540 C 
ATOM     10  O   LIG    1       -6.585   7.777   5.383  0.00  0.00    -0.520 OA
ATOM     11  C   LIG    1       -9.332   5.778   8.299  0.00  0.00    +0.080 C 
ATOM     12  C   LIG    1      -10.832   6.388   6.268  0.00  0.00    -0.110 C 
ATOM     13  C   LIG    1      -11.472   7.598   5.584  0.00  0.00    +0.060 C 
ATOM     14  C   LIG    1      -11.905   5.578   6.924  0.00  0.00    +0.310 C 
ATOM     15  H   LIG    1      -12.150   5.701   8.976  0.00  0.00    +0.430 HD
ENDBRANCH   1   9
BRANCH   1  16
ATOM     16  C   LIG    1       -5.684   6.238   3.420  0.00  0.00    +0.070 C 
BRANCH  16  17
ATOM     17  C   LIG    1       -5.369   5.259   2.319  0.00  0.00    +0.520 C 
ATOM     18  N   LIG    1       -4.179   5.314   1.687  0.00  0.00    -0.610 N 
ATOM     19  C   LIG    1       -3.851   4.368   0.610  0.00  0.00    +0.290 C 
ATOM     20  C   LIG    1       -2.490   3.734   0.917  0.00  0.00    +0.200 C 
ATOM     21  N   LIG    1       -1.498   4.795   1.136  0.00  0.00    -0.480 N 
ATOM     22  C   LIG    1       -1.840   5.612   2.307  0.00  0.00    +0.190 C 
ATOM     23  C   LIG    1       -3.175   6.323   2.058  0.00  0.00    +0.300 C 
ATOM     24  O   LIG    1       -6.185   4.420   2.001  0.00  0.00    -0.540 OA
BRANCH  21  25
ATOM     25  C   LIG    1       -0.219   4.263   1.256  0.00  0.00    +0.310 A 
ATOM     26  C   LIG    1        0.863   5.111   1.468  0.00  0.00    -0.050 A 
ATOM     27  C   LIG    1        2.130   4.569   1.585  0.00  0.00    +0.090 A 
ATOM     28  C   LIG    1        2.273   3.192   1.486  0.00  0.00    -0.060 A 
ATOM     29  C   LIG    1        1.156   2.409   1.275  0.00  0.00    +0.290 A 
ATOM     30  N   LIG    1       -0.041   2.954   1.161  0.00  0.00    -0.520 NA
ENDBRANCH  21  25
ENDBRANCH  16  17
ENDBRANCH   1  16
TORSDOF 4
