REMARK  Name = ZINCqH0000005rgE.0
REMARK                            x       y       z     vdW  Elec       q    Type
REMARK                         _______ _______ _______ _____ _____    ______ ____
ROOT
ATOM      1  C   LIG    1        0.008   2.517  -2.263  0.00  0.00    +0.560 C 
ATOM      2  N   LIG    1       -0.648   2.376  -1.094  0.00  0.00    -0.720 N 
ATOM      3  H   LIG    1       -1.613   2.477  -1.064  0.00  0.00    +0.400 HD
ATOM      4  O   LIG    1        1.216   2.390  -2.301  0.00  0.00    -0.530 OA
ENDROOT
BRANCH   1   9
ATOM      5  C   LIG    1       -0.776   3.259  -5.865  0.00  0.00    +0.160 A 
ATOM      6  C   LIG    1       -2.158   3.402  -5.814  0.00  0.00    +0.010 A 
ATOM      7  C   LIG    1       -2.828   3.258  -4.614  0.00  0.00    +0.030 A 
ATOM      8  C   LIG    1       -2.131   2.970  -3.459  0.00  0.00    +0.020 A 
ATOM      9  C   LIG    1       -0.743   2.825  -3.499  0.00  0.00    -0.110 A 
ATOM     10  C   LIG    1       -0.066   2.976  -4.709  0.00  0.00    +0.090 A 
BRANCH   5  15
ATOM     11  C   LIG    1        2.913   2.100  -8.732  0.00  0.00    +0.300 C 
ATOM     12  N   LIG    1        1.712   2.893  -8.459  0.00  0.00    -0.740 N 
ATOM     13  H   LIG    1        1.428   3.575  -9.088  0.00  0.00    +0.400 HD
ATOM     14  C   LIG    1        1.002   2.676  -7.334  0.00  0.00    +0.700 C 
ATOM     15  N   LIG    1       -0.102   3.406  -7.083  0.00  0.00    -0.690 N 
ATOM     16  H   LIG    1       -0.430   4.033  -7.747  0.00  0.00    +0.410 HD
ATOM     17  O   LIG    1        1.359   1.821  -6.546  0.00  0.00    -0.560 OA
ENDBRANCH   5  15
ENDBRANCH   1   9
BRANCH   2  18
ATOM     18  C   LIG    1        0.095   2.071   0.131  0.00  0.00    +0.240 C 
ATOM     19  C   LIG    1        0.306   0.559   0.236  0.00  0.00    +0.020 C 
BRANCH  18  20
ATOM     20  C   LIG    1       -0.698   2.561   1.344  0.00  0.00    -0.060 C 
ATOM     21  C   LIG    1       -0.909   4.072   1.239  0.00  0.00    +0.020 C 
ATOM     22  C   LIG    1       -1.703   4.562   2.452  0.00  0.00    -0.020 C 
ATOM     23  C   LIG    1       -3.061   3.859   2.491  0.00  0.00    +0.010 C 
ATOM     24  C   LIG    1       -2.850   2.347   2.596  0.00  0.00    -0.020 C 
ATOM     25  C   LIG    1       -2.073   2.029   3.876  0.00  0.00    +0.010 C 
ATOM     26  C   LIG    1       -0.715   2.732   3.837  0.00  0.00    -0.020 C 
ATOM     27  C   LIG    1       -0.926   4.244   3.731  0.00  0.00    +0.010 C 
ATOM     28  C   LIG    1       -2.056   1.857   1.383  0.00  0.00    +0.020 C 
ATOM     29  C   LIG    1        0.078   2.242   2.623  0.00  0.00    +0.040 C 
ENDBRANCH  18  20
ENDBRANCH   2  18
TORSDOF 4
