REMARK  Name = ZINCrD00000F5LrE.0
REMARK                            x       y       z     vdW  Elec       q    Type
REMARK                         _______ _______ _______ _____ _____    ______ ____
ROOT
ATOM      1  C   LIG    1        1.157   1.459   8.054  0.00  0.00    +0.190 A 
ATOM      2  C   LIG    1        2.457   1.871   8.318  0.00  0.00    +0.160 A 
ATOM      3  N   LIG    1        2.838   2.165   9.543  0.00  0.00    -0.420 NA
ATOM      4  C   LIG    1        2.015   2.086  10.576  0.00  0.00    +0.040 A 
ATOM      5  C   LIG    1        2.538   2.437  11.946  0.00  0.00    +0.110 C 
ATOM      6  C   LIG    1        1.384   2.783  12.886  0.00  0.00    +0.030 C 
ATOM      7  C   LIG    1        0.345   1.655  12.835  0.00  0.00    +0.280 C 
ATOM      8  N   LIG    1       -0.189   1.600  11.467  0.00  0.00    -0.530 N 
ATOM      9  C   LIG    1       -1.514   1.471  11.254  0.00  0.00    +0.660 C 
ATOM     10  O   LIG    1       -1.957   1.540  10.124  0.00  0.00    -0.540 OA
ATOM     11  C   LIG    1        0.701   1.685  10.389  0.00  0.00    +0.170 A 
ATOM     12  C   LIG    1        0.255   1.368   9.111  0.00  0.00    -0.010 A 
ENDROOT
BRANCH   1  13
ATOM     13  N   LIG    1        0.760   1.146   6.752  0.00  0.00    -0.730 N 
ATOM     14  H   LIG    1       -0.150   0.859   6.578  0.00  0.00    +0.400 HD
BRANCH  13  15
ATOM     15  C   LIG    1        1.718   1.252   5.649  0.00  0.00    +0.370 C 
BRANCH  15  18
ATOM     16  N   LIG    1       -0.004   0.911   2.466  0.00  0.00    -0.290 N 
ATOM     17  C   LIG    1        0.473   1.697   3.459  0.00  0.00    +0.160 A 
ATOM     18  C   LIG    1        1.044   0.863   4.359  0.00  0.00    -0.040 A 
ATOM     19  N   LIG    1        0.897  -0.376   3.875  0.00  0.00    -0.250 NA
ATOM     20  N   LIG    1        0.272  -0.313   2.752  0.00  0.00    -0.080 NA
BRANCH  16  21
ATOM     21  C   LIG    1       -0.709   1.375   1.268  0.00  0.00    +0.320 C 
BRANCH  21  23
ATOM     22  C   LIG    1       -0.728   1.338  -1.230  0.00  0.00    +0.040 C 
ATOM     23  C   LIG    1        0.008   0.854   0.021  0.00  0.00    +0.010 C 
ENDBRANCH  21  23
ENDBRANCH  16  21
ENDBRANCH  15  18
ENDBRANCH  13  15
ENDBRANCH   1  13
BRANCH   9  24
ATOM     24  O   LIG    1       -2.346   1.267  12.292  0.00  0.00    -0.360 OA
BRANCH  24  25
ATOM     25  C   LIG    1       -3.760   1.137  11.988  0.00  0.00    +0.140 C 
ATOM     26  C   LIG    1       -4.255   2.416  11.310  0.00  0.00    +0.040 C 
ATOM     27  C   LIG    1       -4.542   0.911  13.283  0.00  0.00    +0.080 C 
ATOM     28  C   LIG    1       -3.973  -0.052  11.049  0.00  0.00    +0.040 C 
ENDBRANCH  24  25
ENDBRANCH   9  24
TORSDOF 7
