REMARK  Name = ZINCvU0000000JAs.0
REMARK                            x       y       z     vdW  Elec       q    Type
REMARK                         _______ _______ _______ _____ _____    ______ ____
ROOT
ATOM      1  C   LIG    1       -3.538   4.591   0.859  0.00  0.00    -0.120 A 
ATOM      2  C   LIG    1       -2.899   5.192  -0.227  0.00  0.00    +0.040 A 
ATOM      3  C   LIG    1       -3.241   6.474  -0.606  0.00  0.00    +0.020 A 
ATOM      4  C   LIG    1       -4.208   7.171   0.092  0.00  0.00    -0.090 A 
ATOM      5  C   LIG    1       -4.847   6.584   1.178  0.00  0.00    +0.130 A 
ATOM      6  C   LIG    1       -4.572   8.573  -0.326  0.00  0.00    +0.100 C 
ATOM      7  C   LIG    1       -4.514   5.295   1.564  0.00  0.00    +0.090 A 
ENDROOT
BRANCH   1  13
ATOM      8  C   LIG    1       -1.625   2.972  -0.693  0.00  0.00    +0.260 C 
ATOM      9  C   LIG    1       -0.638   1.866  -1.123  0.00  0.00    +0.040 C 
ATOM     10  C   LIG    1       -0.365   1.105   0.202  0.00  0.00    +0.040 C 
ATOM     11  C   LIG    1       -1.747   1.185   0.897  0.00  0.00    +0.250 C 
ATOM     12  N   LIG    1       -2.265   2.522   0.555  0.00  0.00    -0.610 N 
ATOM     13  C   LIG    1       -3.177   3.216   1.264  0.00  0.00    +0.580 C 
ATOM     14  O   LIG    1       -3.702   2.712   2.238  0.00  0.00    -0.530 OA
BRANCH   8  18
ATOM     15  C   LIG    1       -4.575   3.546  -3.731  0.00  0.00    +0.130 A 
ATOM     16  C   LIG    1       -3.415   4.306  -3.737  0.00  0.00    -0.020 A 
ATOM     17  C   LIG    1       -2.463   4.119  -2.754  0.00  0.00    +0.060 A 
ATOM     18  C   LIG    1       -2.666   3.175  -1.764  0.00  0.00    -0.140 A 
ATOM     19  C   LIG    1       -3.819   2.412  -1.760  0.00  0.00    +0.060 A 
ATOM     20  C   LIG    1       -4.777   2.599  -2.737  0.00  0.00    -0.070 A 
BRANCH  15  22
ATOM     21  C   LIG    1       -6.684   2.911  -4.628  0.00  0.00    +0.250 C 
ATOM     22  O   LIG    1       -5.514   3.729  -4.697  0.00  0.00    -0.320 OA
ENDBRANCH  15  22
ENDBRANCH   8  18
ENDBRANCH   1  13
BRANCH   5  23
ATOM     23  N   LIG    1       -5.825   7.295   1.882  0.00  0.00    -0.660 N 
ATOM     24  H   LIG    1       -5.824   8.264   1.868  0.00  0.00    +0.410 HD
ATOM     25  C   LIG    1       -6.769   6.631   2.579  0.00  0.00    +0.560 C 
ATOM     26  O   LIG    1       -6.826   5.418   2.523  0.00  0.00    -0.510 OA
BRANCH  25  27
ATOM     27  C   LIG    1       -7.736   7.379   3.411  0.00  0.00    -0.140 A 
ATOM     28  C   LIG    1       -7.670   8.771   3.482  0.00  0.00    +0.030 A 
ATOM     29  C   LIG    1       -8.578   9.463   4.255  0.00  0.00    +0.000 A 
ATOM     30  C   LIG    1       -9.546   8.779   4.969  0.00  0.00    +0.040 A 
ATOM     31  C   LIG    1       -9.613   7.399   4.908  0.00  0.00    +0.000 A 
ATOM     32  C   LIG    1       -8.714   6.695   4.133  0.00  0.00    +0.080 A 
ENDBRANCH  25  27
ENDBRANCH   5  23
TORSDOF 5
