REMARK  Name = ZINCrD0000074o36.0
REMARK                            x       y       z     vdW  Elec       q    Type
REMARK                         _______ _______ _______ _____ _____    ______ ____
ROOT
ATOM      1  C   LIG    1       -2.500   1.007   0.019  0.00  0.00    +0.510 C 
ATOM      2  O   LIG    1       -3.558   1.605   0.028  0.00  0.00    -0.480 OA
ENDROOT
BRANCH   1   3
ATOM      3  C   LIG    1       -1.230   1.757   0.017  0.00  0.00    -0.120 A 
ATOM      4  C   LIG    1       -0.013   1.076   0.008  0.00  0.00    +0.080 A 
ATOM      5  C   LIG    1        1.173   1.782   0.000  0.00  0.00    +0.020 A 
ATOM      6  C   LIG    1        1.164   3.167   0.009  0.00  0.00    +0.060 A 
ATOM      7  C   LIG    1       -0.031   3.859   0.024  0.00  0.00    +0.030 A 
ATOM      8  C   LIG    1       -1.238   3.165   0.030  0.00  0.00    +0.000 A 
BRANCH   8   9
ATOM      9  C   LIG    1       -2.521   3.902   0.046  0.00  0.00    -0.000 A 
ATOM     10  C   LIG    1       -2.882   4.703  -1.034  0.00  0.00    +0.030 A 
ATOM     11  C   LIG    1       -4.083   5.385  -1.018  0.00  0.00    +0.040 A 
ATOM     12  C   LIG    1       -4.930   5.288   0.074  0.00  0.00    +0.020 A 
ATOM     13  C   LIG    1       -4.587   4.504   1.157  0.00  0.00    +0.060 A 
ATOM     14  C   LIG    1       -3.381   3.803   1.156  0.00  0.00    +0.020 A 
BRANCH  14  15
ATOM     15  C   LIG    1       -3.020   2.989   2.277  0.00  0.00    +0.250 C 
ATOM     16  N   LIG    1       -2.734   2.342   3.167  0.00  0.00    -0.410 NA
ENDBRANCH  14  15
ENDBRANCH   8   9
ENDBRANCH   1   3
BRANCH   1  17
ATOM     17  O   LIG    1       -2.487  -0.340   0.012  0.00  0.00    -0.330 OA
BRANCH  17  18
ATOM     18  C   LIG    1       -3.775  -1.012   0.014  0.00  0.00    +0.280 C 
BRANCH  18  21
ATOM     19  N   LIG    1       -4.624  -3.335   0.006  0.00  0.00    -0.630 N 
ATOM     20  H   LIG    1       -5.524  -2.973   0.012  0.00  0.00    +0.420 HD
ATOM     21  C   LIG    1       -3.563  -2.503   0.005  0.00  0.00    +0.530 C 
ATOM     22  O   LIG    1       -2.438  -2.956  -0.003  0.00  0.00    -0.490 OA
BRANCH  19  26
ATOM     23  C   LIG    1       -2.594  -7.888  -0.029  0.00  0.00    +0.190 C 
ATOM     24  C   LIG    1       -3.531  -6.708  -0.018  0.00  0.00    -0.020 A 
ATOM     25  C   LIG    1       -3.184  -5.401  -0.013  0.00  0.00    -0.040 A 
ATOM     26  C   LIG    1       -4.428  -4.716  -0.003  0.00  0.00    +0.250 A 
ATOM     27  N   LIG    1       -5.353  -5.640   0.002  0.00  0.00    -0.390 NA
ATOM     28  O   LIG    1       -4.871  -6.748  -0.011  0.00  0.00    +0.100 OA
ENDBRANCH  19  26
ENDBRANCH  18  21
ENDBRANCH  17  18
ENDBRANCH   1  17
TORSDOF 7
