REMARK  Name = ZINCvU0000000H1h.0
REMARK                            x       y       z     vdW  Elec       q    Type
REMARK                         _______ _______ _______ _____ _____    ______ ____
ROOT
ATOM      1  N   LIG    1        2.515   7.069  -1.682  0.00  0.00    -0.730 N 
ATOM      2  H   LIG    1        3.000   7.335  -0.885  0.00  0.00    +0.400 HD
ENDROOT
BRANCH   1   8
ATOM      3  C   LIG    1        5.752   9.360  -4.514  0.00  0.00    +0.160 A 
ATOM      4  C   LIG    1        6.448   9.743  -3.403  0.00  0.00    -0.080 A 
ATOM      5  C   LIG    1        6.019   9.382  -2.129  0.00  0.00    +0.050 A 
ATOM      6  C   LIG    1        4.891   8.637  -1.956  0.00  0.00    -0.010 A 
ATOM      7  C   LIG    1        4.148   8.229  -3.074  0.00  0.00    -0.110 A 
ATOM      8  C   LIG    1        2.976   7.449  -2.934  0.00  0.00    +0.260 A 
ATOM      9  C   LIG    1        2.300   7.082  -4.087  0.00  0.00    -0.130 A 
ATOM     10  C   LIG    1        2.787   7.478  -5.325  0.00  0.00    +0.320 A 
ATOM     11  N   LIG    1        3.879   8.198  -5.442  0.00  0.00    -0.500 NA
ATOM     12  C   LIG    1        4.581   8.588  -4.372  0.00  0.00    +0.150 A 
BRANCH   3  13
ATOM     13  O   LIG    1        6.186   9.722  -5.750  0.00  0.00    -0.290 OA
BRANCH  13  14
ATOM     14  C   LIG    1        7.380  10.504  -5.815  0.00  0.00    +0.170 C 
BRANCH  14  16
ATOM     15  C   LIG    1        8.987  11.649  -7.348  0.00  0.00    +0.040 C 
ATOM     16  C   LIG    1        7.709  10.812  -7.278  0.00  0.00    +0.020 C 
ENDBRANCH  14  16
ENDBRANCH  13  14
ENDBRANCH   3  13
ENDBRANCH   1   8
BRANCH   1  17
ATOM     17  C   LIG    1        1.295   6.266  -1.564  0.00  0.00    +0.240 C 
BRANCH  17  18
ATOM     18  C   LIG    1        1.010   5.986  -0.087  0.00  0.00    +0.300 C 
BRANCH  18  19
ATOM     19  N   LIG    1       -0.210   5.184   0.032  0.00  0.00    -0.600 N 
BRANCH  19  20
ATOM     20  C   LIG    1       -0.132   3.796   0.024  0.00  0.00    +0.400 A 
ATOM     21  C   LIG    1        1.113   3.175   0.009  0.00  0.00    -0.110 A 
ATOM     22  C   LIG    1        1.176   1.793   0.001  0.00  0.00    +0.100 A 
ATOM     23  C   LIG    1       -0.013   1.076   0.008  0.00  0.00    -0.100 A 
ATOM     24  C   LIG    1       -1.214   1.757   0.017  0.00  0.00    +0.310 A 
ATOM     25  N   LIG    1       -1.243   3.076   0.030  0.00  0.00    -0.540 NA
ENDBRANCH  19  20
BRANCH  19  26
ATOM     26  C   LIG    1       -1.512   5.843   0.158  0.00  0.00    +0.350 C 
BRANCH  26  27
ATOM     27  C   LIG    1       -1.821   6.069   1.616  0.00  0.00    -0.110 A 
ATOM     28  C   LIG    1       -2.504   5.107   2.335  0.00  0.00    +0.040 A 
ATOM     29  C   LIG    1       -2.783   5.312   3.673  0.00  0.00    +0.000 A 
ATOM     30  C   LIG    1       -2.388   6.484   4.290  0.00  0.00    +0.000 A 
ATOM     31  C   LIG    1       -1.709   7.449   3.569  0.00  0.00    +0.000 A 
ATOM     32  C   LIG    1       -1.425   7.242   2.232  0.00  0.00    +0.010 A 
ENDBRANCH  26  27
ENDBRANCH  19  26
ENDBRANCH  18  19
ENDBRANCH  17  18
ENDBRANCH   1  17
TORSDOF 10
