REMARK  Name = ZINCkj000005iWDS.0
REMARK                            x       y       z     vdW  Elec       q    Type
REMARK                         _______ _______ _______ _____ _____    ______ ____
ROOT
ATOM      1  C   LIG    1       -2.163   1.047   1.275  0.00  0.00    -0.010 C 
ATOM      2  C   LIG    1       -0.728   1.579   1.268  0.00  0.00    +0.050 C 
ATOM      3  C   LIG    1       -0.013   1.086   0.008  0.00  0.00    +0.260 C 
ATOM      4  N   LIG    1       -0.722   1.571  -1.182  0.00  0.00    -0.380 N 
ATOM      5  C   LIG    1       -2.076   1.008  -1.219  0.00  0.00    +0.250 C 
ATOM      6  H   LIG    1       -0.778   2.578  -1.151  0.00  0.00    +0.420 HD
ATOM      7  C   LIG    1       -2.870   1.498  -0.006  0.00  0.00    +0.070 C 
ENDROOT
BRANCH   1   8
ATOM      8  C   LIG    1       -2.908   1.601   2.492  0.00  0.00    +0.280 C 
BRANCH   8  10
ATOM      9  C   LIG    1       -2.797   1.426   4.920  0.00  0.00    +0.530 C 
ATOM     10  N   LIG    1       -2.303   1.072   3.717  0.00  0.00    -0.740 N 
ATOM     11  H   LIG    1       -1.546   0.468   3.662  0.00  0.00    +0.400 HD
ATOM     12  O   LIG    1       -3.743   2.182   4.988  0.00  0.00    -0.530 OA
BRANCH   9  13
ATOM     13  C   LIG    1       -2.174   0.882   6.180  0.00  0.00    +0.020 C 
ATOM     14  C   LIG    1       -0.705   1.304   6.246  0.00  0.00    +0.050 C 
BRANCH  13  15
ATOM     15  C   LIG    1       -2.919   1.436   7.396  0.00  0.00    +0.110 C 
BRANCH  15  17
ATOM     16  C   LIG    1       -3.257   1.438  10.216  0.00  0.00    +0.150 C 
ATOM     17  S   LIG    1       -2.267   0.668   8.905  0.00  0.00    -0.260 S 
ENDBRANCH  15  17
ENDBRANCH  13  15
ENDBRANCH   9  13
ENDBRANCH   8  10
ENDBRANCH   1   8
BRANCH   4  18
ATOM     18  C   LIG    1        0.011   1.162  -2.388  0.00  0.00    +0.260 C 
BRANCH  18  19
ATOM     19  C   LIG    1       -0.656   1.771  -3.622  0.00  0.00    +0.190 C 
BRANCH  19  20
ATOM     20  N   LIG    1        0.076   1.362  -4.828  0.00  0.00    -0.540 NA
ATOM     21  C   LIG    1       -0.385   2.111  -6.004  0.00  0.00    +0.220 C 
ATOM     22  C   LIG    1       -0.040  -0.086  -5.047  0.00  0.00    +0.200 C 
ENDBRANCH  19  20
ENDBRANCH  18  19
ENDBRANCH   4  18
TORSDOF 8
