REMARK  Name = ZINCkj000005iWDS.1
REMARK                            x       y       z     vdW  Elec       q    Type
REMARK                         _______ _______ _______ _____ _____    ______ ____
ROOT
ATOM      1  C   LIG    1       -0.734   1.954   1.269  0.00  0.00    -0.020 C 
ATOM      2  C   LIG    1       -2.206   1.537   1.217  0.00  0.00    +0.040 C 
ATOM      3  C   LIG    1       -2.931   2.085   2.448  0.00  0.00    +0.160 C 
ATOM      4  N   LIG    1       -2.819   3.549   2.472  0.00  0.00    -0.530 NA
ATOM      5  C   LIG    1       -1.416   3.973   2.570  0.00  0.00    +0.180 C 
ATOM      6  C   LIG    1       -0.647   3.481   1.342  0.00  0.00    +0.050 C 
ENDROOT
BRANCH   1   7
ATOM      7  C   LIG    1       -0.018   1.461   0.010  0.00  0.00    +0.260 C 
BRANCH   7   9
ATOM      8  C   LIG    1        0.585  -0.664  -1.018  0.00  0.00    +0.520 C 
ATOM      9  N   LIG    1        0.002  -0.004   0.002  0.00  0.00    -0.730 N 
ATOM     10  H   LIG    1       -0.404  -0.499   0.731  0.00  0.00    +0.400 HD
ATOM     11  O   LIG    1        1.093  -0.046  -1.929  0.00  0.00    -0.530 OA
BRANCH   8  12
ATOM     12  C   LIG    1        0.606  -2.171  -1.026  0.00  0.00    +0.020 C 
ATOM     13  C   LIG    1       -0.830  -2.701  -1.015  0.00  0.00    +0.050 C 
BRANCH  12  14
ATOM     14  C   LIG    1        1.322  -2.665  -2.285  0.00  0.00    +0.110 C 
BRANCH  14  16
ATOM     15  C   LIG    1        2.336  -4.860  -3.773  0.00  0.00    +0.140 C 
ATOM     16  S   LIG    1        1.477  -4.471  -2.224  0.00  0.00    -0.260 S 
ENDBRANCH  14  16
ENDBRANCH  12  14
ENDBRANCH   8  12
ENDBRANCH   7   9
ENDBRANCH   1   7
BRANCH   4  17
ATOM     17  C   LIG    1       -3.619   4.120   3.564  0.00  0.00    +0.190 C 
BRANCH  17  18
ATOM     18  C   LIG    1       -5.002   3.467   3.578  0.00  0.00    +0.250 C 
BRANCH  18  19
ATOM     19  N   LIG    1       -5.802   4.039   4.670  0.00  0.00    -0.390 N 
ATOM     20  C   LIG    1       -7.085   3.329   4.760  0.00  0.00    +0.320 C 
ATOM     21  C   LIG    1       -6.047   5.462   4.404  0.00  0.00    +0.320 C 
ATOM     22  H   LIG    1       -5.302   3.940   5.540  0.00  0.00    +0.430 HD
ENDBRANCH  18  19
ENDBRANCH  17  18
ENDBRANCH   4  17
TORSDOF 8
