REMARK  Name = ZINCvU0000000HpV.0
REMARK                            x       y       z     vdW  Elec       q    Type
REMARK                         _______ _______ _______ _____ _____    ______ ____
ROOT
ATOM      1  N   LIG    1       -1.191   1.870   0.018  0.00  0.00    -0.660 N 
ATOM      2  H   LIG    1       -1.129   2.725  -0.436  0.00  0.00    +0.410 HD
ATOM      3  C   LIG    1       -0.147   1.411   0.737  0.00  0.00    +0.590 C 
ATOM      4  O   LIG    1       -0.257   0.388   1.384  0.00  0.00    -0.500 OA
ENDROOT
BRANCH   1   8
ATOM      5  C   LIG    1       -4.686  -0.393  -0.255  0.00  0.00    +0.090 A 
ATOM      6  C   LIG    1       -3.456  -1.024  -0.164  0.00  0.00    -0.010 A 
ATOM      7  C   LIG    1       -2.297  -0.274  -0.079  0.00  0.00    +0.030 A 
ATOM      8  C   LIG    1       -2.365   1.112  -0.073  0.00  0.00    +0.150 A 
ATOM      9  C   LIG    1       -3.596   1.748  -0.164  0.00  0.00    -0.060 A 
ATOM     10  C   LIG    1       -4.756   0.997  -0.254  0.00  0.00    +0.120 A 
BRANCH   5  11
ATOM     11  O   LIG    1       -5.824  -1.132  -0.344  0.00  0.00    -0.300 OA
BRANCH  11  13
ATOM     12  C   LIG    1       -7.056  -3.209  -0.446  0.00  0.00    +0.070 C 
ATOM     13  C   LIG    1       -5.678  -2.553  -0.339  0.00  0.00    +0.170 C 
ENDBRANCH  11  13
ENDBRANCH   5  11
BRANCH  10  14
ATOM     14  O   LIG    1       -5.963   1.618  -0.343  0.00  0.00    -0.300 OA
BRANCH  14  15
ATOM     15  C   LIG    1       -5.960   3.046  -0.336  0.00  0.00    +0.170 C 
ATOM     16  C   LIG    1       -7.397   3.560  -0.442  0.00  0.00    +0.070 C 
ENDBRANCH  14  15
ENDBRANCH  10  14
ENDBRANCH   1   8
BRANCH   3  17
ATOM     17  C   LIG    1        1.130   2.147   0.734  0.00  0.00    -0.220 A 
ATOM     18  C   LIG    1        2.278   1.800   1.418  0.00  0.00    +0.050 A 
ATOM     19  N   LIG    1        3.208   2.732   1.142  0.00  0.00    -0.270 N 
ATOM     20  N   LIG    1        2.642   3.682   0.284  0.00  0.00    -0.250 NA
ATOM     21  C   LIG    1        1.407   3.344   0.035  0.00  0.00    +0.300 A 
BRANCH  19  22
ATOM     22  C   LIG    1        4.521   2.751   1.635  0.00  0.00    +0.110 A 
ATOM     23  C   LIG    1        4.787   2.299   2.920  0.00  0.00    +0.060 A 
ATOM     24  C   LIG    1        6.082   2.313   3.401  0.00  0.00    +0.020 A 
ATOM     25  C   LIG    1        7.111   2.789   2.607  0.00  0.00    +0.120 A 
ATOM     26  C   LIG    1        6.847   3.247   1.327  0.00  0.00    +0.010 A 
ATOM     27  F   LIG    1        8.376   2.808   3.082  0.00  0.00    -0.130 F 
ATOM     28  C   LIG    1        5.554   3.228   0.840  0.00  0.00    +0.090 A 
ENDBRANCH  19  22
BRANCH  18  29
ATOM     29  C   LIG    1        2.457   0.597   2.307  0.00  0.00    +0.530 C 
ATOM     30  F   LIG    1        3.794   0.185   2.271  0.00  0.00    -0.170 F 
ATOM     31  F   LIG    1        1.637  -0.443   1.856  0.00  0.00    -0.130 F 
ATOM     32  F   LIG    1        2.108   0.930   3.620  0.00  0.00    -0.160 F 
ENDBRANCH  18  29
ENDBRANCH   3  17
TORSDOF 8
