REMARK  Name = ZINCpe000000XPvd.0
REMARK                            x       y       z     vdW  Elec       q    Type
REMARK                         _______ _______ _______ _____ _____    ______ ____
ROOT
ATOM      1  N   LIG    1       -2.360   0.776   0.235  0.00  0.00    -0.990 NA
ATOM      2  C   LIG    1       -2.938   1.051   1.561  0.00  0.00    +0.270 C 
ATOM      3  C   LIG    1       -2.667   2.536   1.880  0.00  0.00    +0.040 C 
ATOM      4  C   LIG    1       -1.456   2.872   0.970  0.00  0.00    +0.060 C 
ATOM      5  C   LIG    1       -1.766   2.020  -0.287  0.00  0.00    +0.230 C 
ENDROOT
BRANCH   1   6
ATOM      6  S   LIG    1       -2.373  -0.687  -0.540  0.00  0.00    +2.700 S 
ATOM      7  O   LIG    1       -2.408  -1.680   0.476  0.00  0.00    -0.950 OA
ATOM      8  O   LIG    1       -1.357  -0.625  -1.532  0.00  0.00    -0.910 OA
BRANCH   6  13
ATOM      9  C   LIG    1       -7.616  -1.094  -3.500  0.00  0.00    +0.090 C 
ATOM     10  C   LIG    1       -6.306  -0.993  -2.760  0.00  0.00    -0.030 A 
ATOM     11  C   LIG    1       -5.178  -0.531  -3.413  0.00  0.00    -0.010 A 
ATOM     12  C   LIG    1       -3.977  -0.438  -2.735  0.00  0.00    +0.130 A 
ATOM     13  C   LIG    1       -3.904  -0.806  -1.405  0.00  0.00    -0.690 A 
ATOM     14  C   LIG    1       -5.031  -1.272  -0.753  0.00  0.00    +0.120 A 
ATOM     15  C   LIG    1       -6.233  -1.360  -1.430  0.00  0.00    -0.010 A 
ENDBRANCH   6  13
ENDBRANCH   1   6
BRANCH   5  16
ATOM     16  C   LIG    1       -0.498   1.719  -1.042  0.00  0.00    +0.510 C 
ATOM     17  N   LIG    1       -0.126   2.502  -2.075  0.00  0.00    -0.590 N 
ATOM     18  O   LIG    1        0.186   0.769  -0.725  0.00  0.00    -0.490 OA
BRANCH  17  19
ATOM     19  C   LIG    1       -1.007   3.580  -2.530  0.00  0.00    +0.220 C 
ATOM     20  C   LIG    1       -1.501   3.273  -3.945  0.00  0.00    +0.030 C 
ATOM     21  C   LIG    1       -0.235   4.901  -2.535  0.00  0.00    +0.020 C 
ENDBRANCH  17  19
BRANCH  17  22
ATOM     22  C   LIG    1        1.158   2.274  -2.742  0.00  0.00    +0.320 C 
BRANCH  22  23
ATOM     23  C   LIG    1        0.969   1.300  -3.876  0.00  0.00    +0.500 C 
ATOM     24  O   LIG    1       -0.130   0.841  -4.105  0.00  0.00    -0.510 OA
ATOM     25  N   LIG    1        2.022   0.939  -4.636  0.00  0.00    -0.860 N 
ATOM     26  H   LIG    1        1.900   0.312  -5.367  0.00  0.00    +0.400 HD
ATOM     27  H   LIG    1        2.901   1.306  -4.454  0.00  0.00    +0.400 HD
ENDBRANCH  22  23
ENDBRANCH  17  22
ENDBRANCH   5  16
TORSDOF 6
