REMARK  Name = ZINCvU0000000Ia5.1
REMARK                            x       y       z     vdW  Elec       q    Type
REMARK                         _______ _______ _______ _____ _____    ______ ____
ROOT
ATOM      1  C   LIG    1        1.002  -0.054  -4.458  0.00  0.00    -0.190 A 
ATOM      2  C   LIG    1        1.170   0.386  -3.143  0.00  0.00    +0.180 A 
ATOM      3  C   LIG    1        2.418   0.348  -2.560  0.00  0.00    -0.700 A 
ATOM      4  C   LIG    1        3.506  -0.135  -3.268  0.00  0.00    +0.180 A 
ATOM      5  C   LIG    1        3.353  -0.578  -4.567  0.00  0.00    -0.020 A 
ATOM      6  C   LIG    1        2.106  -0.542  -5.171  0.00  0.00    +0.230 A 
ENDROOT
BRANCH   1   9
ATOM      7  C   LIG    1       -1.323  -0.320  -2.887  0.00  0.00    +0.280 C 
ATOM      8  N   LIG    1       -1.440  -0.107  -4.332  0.00  0.00    -0.610 N 
ATOM      9  C   LIG    1       -0.330  -0.011  -5.090  0.00  0.00    +0.560 C 
ATOM     10  O   LIG    1       -0.427   0.111  -6.296  0.00  0.00    -0.510 OA
BRANCH   8  11
ATOM     11  C   LIG    1       -2.763   0.001  -4.952  0.00  0.00    +0.360 C 
BRANCH  11  12
ATOM     12  C   LIG    1       -3.235  -1.368  -5.369  0.00  0.00    -0.100 A 
ATOM     13  C   LIG    1       -2.942  -1.844  -6.634  0.00  0.00    +0.070 A 
ATOM     14  C   LIG    1       -3.370  -3.102  -7.016  0.00  0.00    +0.040 A 
ATOM     15  C   LIG    1       -4.101  -3.880  -6.137  0.00  0.00    -0.030 A 
ATOM     16  C   LIG    1       -4.399  -3.402  -4.872  0.00  0.00    -0.040 A 
ATOM     17 CL   LIG    1       -5.316  -4.378  -3.768  0.00  0.00    -0.050 Cl
ATOM     18 CL   LIG    1       -4.645  -5.457  -6.620  0.00  0.00    -0.050 Cl
ATOM     19  C   LIG    1       -3.966  -2.145  -4.490  0.00  0.00    +0.050 A 
ENDBRANCH  11  12
ENDBRANCH   8  11
ENDBRANCH   1   9
BRANCH   3  20
ATOM     20  S   LIG    1        2.630   0.910  -0.903  0.00  0.00    +2.690 S 
ATOM     21  O   LIG    1        1.357   0.809  -0.280  0.00  0.00    -0.940 OA
ATOM     22  O   LIG    1        3.792   0.262  -0.405  0.00  0.00    -0.940 OA
BRANCH  20  23
ATOM     23  N   LIG    1        2.989   2.525  -0.976  0.00  0.00    -1.050 N 
ATOM     24  H   LIG    1        3.826   2.852  -0.612  0.00  0.00    +0.430 HD
BRANCH  23  25
ATOM     25  C   LIG    1        2.085   3.416  -1.561  0.00  0.00    +0.160 A 
ATOM     26  C   LIG    1        0.719   3.220  -1.412  0.00  0.00    +0.000 A 
ATOM     27  C   LIG    1       -0.172   4.100  -1.996  0.00  0.00    +0.060 A 
ATOM     28  C   LIG    1        0.296   5.182  -2.719  0.00  0.00    +0.020 A 
ATOM     29  C   LIG    1        1.656   5.381  -2.870  0.00  0.00    +0.060 A 
ATOM     30  C   LIG    1        2.552   4.502  -2.293  0.00  0.00    -0.060 A 
ATOM     31 CL   LIG    1        4.260   4.753  -2.482  0.00  0.00    -0.060 Cl
ENDBRANCH  23  25
ENDBRANCH  20  23
ENDBRANCH   3  20
BRANCH   6  32
ATOM     32  O   LIG    1        1.954  -0.978  -6.447  0.00  0.00    -0.470 OA
ATOM     33  H   LIG    1        1.742  -1.919  -6.519  0.00  0.00    +0.400 HD
ENDBRANCH   6  32
TORSDOF 7
