REMARK  Name = ZINCkj00000voJEJ.0
REMARK                            x       y       z     vdW  Elec       q    Type
REMARK                         _______ _______ _______ _____ _____    ______ ____
ROOT
ATOM      1  C   LIG    1       -4.191   4.121  -2.968  0.00  0.00    +0.180 C 
ATOM      2  C   LIG    1       -4.997   2.822  -3.017  0.00  0.00    +0.150 C 
ATOM      3  C   LIG    1       -6.304   3.061  -3.730  0.00  0.00    -0.090 A 
ATOM      4  C   LIG    1       -7.318   2.127  -3.588  0.00  0.00    +0.040 A 
ATOM      5  C   LIG    1       -8.527   2.309  -4.232  0.00  0.00    +0.050 A 
ATOM      6  C   LIG    1       -8.725   3.426  -5.020  0.00  0.00    +0.040 A 
ATOM      7  C   LIG    1       -7.715   4.357  -5.161  0.00  0.00    +0.050 A 
ATOM      8  C   LIG    1       -6.501   4.178  -4.514  0.00  0.00    -0.140 A 
ATOM      9  C   LIG    1       -5.429   5.220  -4.693  0.00  0.00    +0.340 C 
ATOM     10  N   LIG    1       -4.117   4.678  -4.327  0.00  0.00    -0.490 N 
ATOM     11  H   LIG    1       -3.860   3.950  -4.977  0.00  0.00    +0.440 HD
ATOM     12  H   LIG    1       -3.429   5.415  -4.354  0.00  0.00    +0.440 HD
ENDROOT
BRANCH   1  15
ATOM     13  N   LIG    1       -2.624   3.315  -1.232  0.00  0.00    -0.700 N 
ATOM     14  H   LIG    1       -3.392   3.127  -0.671  0.00  0.00    +0.410 HD
ATOM     15  C   LIG    1       -2.800   3.834  -2.463  0.00  0.00    +0.510 C 
ATOM     16  O   LIG    1       -1.839   4.070  -3.165  0.00  0.00    -0.520 OA
BRANCH  13  20
ATOM     17  C   LIG    1       -0.802   1.617   1.230  0.00  0.00    +0.150 C 
ATOM     18  C   LIG    1       -0.013   1.086   0.008  0.00  0.00    +0.020 C 
ATOM     19  C   LIG    1       -0.825   1.630  -1.193  0.00  0.00    +0.020 C 
ATOM     20  C   LIG    1       -1.272   3.036  -0.741  0.00  0.00    +0.250 C 
ATOM     21  C   LIG    1       -1.260   3.028   0.798  0.00  0.00    +0.050 C 
BRANCH  17  23
ATOM     22  C   LIG    1        0.037   0.512   3.184  0.00  0.00    +0.200 C 
ATOM     23  O   LIG    1        0.044   1.692   2.379  0.00  0.00    -0.380 OA
ENDBRANCH  17  23
ENDBRANCH  13  20
ENDBRANCH   1  15
TORSDOF 3
