REMARK  Name = ZINCqH0000006rrG.0
REMARK                            x       y       z     vdW  Elec       q    Type
REMARK                         _______ _______ _______ _____ _____    ______ ____
ROOT
ATOM      1  N   LIG    1       -4.707   0.050   2.624  0.00  0.00    -0.680 N 
ATOM      2  H   LIG    1       -4.573   0.765   1.984  0.00  0.00    +0.420 HD
ATOM      3  C   LIG    1       -3.780  -0.187   3.574  0.00  0.00    +0.520 C 
ATOM      4  O   LIG    1       -3.985  -1.026   4.426  0.00  0.00    -0.510 OA
ENDROOT
BRANCH   1   8
ATOM      5  C   LIG    1       -8.148  -2.293   2.442  0.00  0.00    -0.700 A 
ATOM      6  C   LIG    1       -7.588  -1.983   3.668  0.00  0.00    +0.150 A 
ATOM      7  C   LIG    1       -6.447  -1.207   3.732  0.00  0.00    +0.010 A 
ATOM      8  C   LIG    1       -5.862  -0.737   2.563  0.00  0.00    +0.210 A 
ATOM      9  C   LIG    1       -6.430  -1.045   1.334  0.00  0.00    -0.030 A 
ATOM     10  C   LIG    1       -7.568  -1.826   1.276  0.00  0.00    +0.150 A 
BRANCH   5  11
ATOM     11  S   LIG    1       -9.603  -3.283   2.365  0.00  0.00    +2.700 S 
ATOM     12  O   LIG    1       -9.638  -4.039   3.567  0.00  0.00    -0.930 OA
ATOM     13  O   LIG    1       -9.617  -3.876   1.073  0.00  0.00    -0.930 OA
BRANCH  11  14
ATOM     14  N   LIG    1      -10.899  -2.254   2.421  0.00  0.00    -0.870 NA
ATOM     15  C   LIG    1      -11.531  -1.803   1.179  0.00  0.00    +0.310 C 
BRANCH  14  17
ATOM     16  C   LIG    1      -10.792  -0.606   4.143  0.00  0.00    +0.200 C 
ATOM     17  O   LIG    1      -11.398  -1.811   3.670  0.00  0.00    -0.110 OA
ENDBRANCH  14  17
ENDBRANCH  11  14
ENDBRANCH   5  11
ENDBRANCH   1   8
BRANCH   3  18
ATOM     18  C   LIG    1       -2.489   0.590   3.577  0.00  0.00    +0.070 C 
BRANCH  18  19
ATOM     19  C   LIG    1       -1.620   0.131   4.749  0.00  0.00    +0.110 C 
BRANCH  19  20
ATOM     20  C   LIG    1       -0.329   0.908   4.752  0.00  0.00    -0.070 A 
ATOM     21  C   LIG    1        0.793   0.386   4.138  0.00  0.00    +0.050 A 
ATOM     22  C   LIG    1        1.980   1.096   4.145  0.00  0.00    +0.040 A 
ATOM     23  C   LIG    1        2.042   2.332   4.763  0.00  0.00    -0.030 A 
ATOM     24  C   LIG    1        0.918   2.858   5.373  0.00  0.00    +0.050 A 
ATOM     25 CL   LIG    1        3.532   3.224   4.771  0.00  0.00    -0.050 Cl
ATOM     26  C   LIG    1       -0.269   2.148   5.365  0.00  0.00    -0.020 A 
ATOM     27 CL   LIG    1       -1.681   2.807   6.131  0.00  0.00    -0.050 Cl
ENDBRANCH  19  20
ENDBRANCH  18  19
ENDBRANCH   3  18
TORSDOF 7
