REMARK  Name = ZINCqH0000007iRN.1
REMARK                            x       y       z     vdW  Elec       q    Type
REMARK                         _______ _______ _______ _____ _____    ______ ____
ROOT
ATOM      1  N   LIG    1       -0.003   6.093  -0.508  0.00  0.00    -0.680 N 
ATOM      2  H   LIG    1        0.562   5.737  -1.211  0.00  0.00    +0.410 HD
ATOM      3  C   LIG    1       -0.194   7.423  -0.404  0.00  0.00    +0.710 C 
ATOM      4  N   LIG    1        0.318   8.252  -1.335  0.00  0.00    -0.730 N 
ATOM      5  H   LIG    1        0.823   7.891  -2.080  0.00  0.00    +0.400 HD
ATOM      6  O   LIG    1       -0.828   7.876   0.530  0.00  0.00    -0.570 OA
ENDROOT
BRANCH   1  10
ATOM      7  C   LIG    1       -1.851   3.508   2.198  0.00  0.00    +0.100 A 
ATOM      8  C   LIG    1       -2.483   4.680   1.815  0.00  0.00    -0.020 A 
ATOM      9  C   LIG    1       -1.872   5.536   0.919  0.00  0.00    +0.050 A 
ATOM     10  C   LIG    1       -0.622   5.223   0.401  0.00  0.00    +0.170 A 
ATOM     11  C   LIG    1        0.016   4.052   0.786  0.00  0.00    -0.040 A 
ATOM     12  C   LIG    1       -0.599   3.192   1.680  0.00  0.00    +0.100 A 
BRANCH   7  14
ATOM     13  C   LIG    1       -3.739   3.054   3.572  0.00  0.00    +0.250 C 
ATOM     14  O   LIG    1       -2.454   2.667   3.081  0.00  0.00    -0.310 OA
ENDBRANCH   7  14
BRANCH  12  15
ATOM     15  O   LIG    1        0.023   2.043   2.056  0.00  0.00    -0.310 OA
BRANCH  15  16
ATOM     16  C   LIG    1        1.307   1.782   1.484  0.00  0.00    +0.590 C 
ATOM     17  F   LIG    1        1.191   1.709   0.092  0.00  0.00    -0.200 F 
ATOM     18  F   LIG    1        2.187   2.815   1.825  0.00  0.00    -0.200 F 
ENDBRANCH  15  16
ENDBRANCH  12  15
ENDBRANCH   1  10
BRANCH   4  19
ATOM     19  C   LIG    1        0.111   9.698  -1.223  0.00  0.00    +0.310 C 
BRANCH  19  20
ATOM     20  C   LIG    1        0.673  10.392  -2.465  0.00  0.00    +0.220 C 
BRANCH  20  21
ATOM     21  C   LIG    1       -0.117   9.971  -3.677  0.00  0.00    -0.180 A 
ATOM     22  C   LIG    1       -1.089  10.686  -4.247  0.00  0.00    +0.010 A 
ATOM     23  C   LIG    1       -1.672  10.096  -5.355  0.00  0.00    +0.000 A 
ATOM     24  C   LIG    1       -1.181   8.899  -5.680  0.00  0.00    -0.060 A 
ATOM     25  S   LIG    1        0.095   8.460  -4.551  0.00  0.00    +0.130 S 
ENDBRANCH  20  21
BRANCH  20  26
ATOM     26  N   LIG    1        2.081  10.012  -2.643  0.00  0.00    -0.540 NA
ATOM     27  C   LIG    1        2.865  10.318  -1.438  0.00  0.00    +0.190 C 
ATOM     28  C   LIG    1        2.658  10.665  -3.825  0.00  0.00    +0.190 C 
ENDBRANCH  20  26
ENDBRANCH  19  20
ENDBRANCH   4  19
TORSDOF 8
