REMARK  Name = ZINCrg00000SjSLa.1
REMARK                            x       y       z     vdW  Elec       q    Type
REMARK                         _______ _______ _______ _____ _____    ______ ____
ROOT
ATOM      1  C   LIG    1        0.492  10.205  -1.512  0.00  0.00    +0.520 C 
ATOM      2  N   LIG    1        0.664  11.538  -1.413  0.00  0.00    -0.680 N 
ATOM      3  H   LIG    1        0.352  12.010  -0.624  0.00  0.00    +0.410 HD
ATOM      4  O   LIG    1        0.805   9.627  -2.531  0.00  0.00    -0.490 OA
ENDROOT
BRANCH   2   5
ATOM      5  C   LIG    1        1.291  12.242  -2.447  0.00  0.00    +0.210 A 
ATOM      6  C   LIG    1        2.100  13.332  -2.156  0.00  0.00    -0.030 A 
ATOM      7  C   LIG    1        2.722  14.021  -3.179  0.00  0.00    +0.150 A 
ATOM      8  C   LIG    1        2.530  13.633  -4.492  0.00  0.00    -0.690 A 
ATOM      9  C   LIG    1        1.720  12.551  -4.786  0.00  0.00    +0.150 A 
ATOM     10  C   LIG    1        1.100  11.855  -3.767  0.00  0.00    +0.000 A 
BRANCH   8  11
ATOM     11  S   LIG    1        3.320  14.519  -5.795  0.00  0.00    +2.700 S 
ATOM     12  O   LIG    1        3.407  13.623  -6.894  0.00  0.00    -0.960 OA
ATOM     13  O   LIG    1        4.453  15.154  -5.218  0.00  0.00    -0.960 OA
BRANCH  11  14
ATOM     14  N   LIG    1        2.290  15.729  -6.259  0.00  0.00    -1.250 NA
ATOM     15  H   LIG    1        2.544  16.336  -6.972  0.00  0.00    +0.420 HD
ATOM     16  H   LIG    1        1.432  15.832  -5.818  0.00  0.00    +0.420 HD
ENDBRANCH  11  14
ENDBRANCH   8  11
ENDBRANCH   2   5
BRANCH   1  18
ATOM     17  C   LIG    1        0.811   9.599   0.872  0.00  0.00    +0.030 C 
ATOM     18  C   LIG    1       -0.087   9.432  -0.355  0.00  0.00    +0.180 C 
BRANCH  18  19
ATOM     19  N   LIG    1       -0.171   8.009  -0.711  0.00  0.00    -0.660 NA
ATOM     20  H   LIG    1        0.721   7.553  -0.591  0.00  0.00    +0.360 HD
BRANCH  19  21
ATOM     21  C   LIG    1       -1.217   7.332   0.069  0.00  0.00    +0.220 C 
BRANCH  21  22
ATOM     22  C   LIG    1       -1.274   5.856  -0.328  0.00  0.00    +0.150 C 
ATOM     23  C   LIG    1       -2.426   5.165   0.413  0.00  0.00    +0.230 C 
ATOM     24  O   LIG    1       -2.443   3.785   0.030  0.00  0.00    -0.300 OA
ATOM     25  C   LIG    1       -1.246   3.137   0.029  0.00  0.00    +0.050 A 
ATOM     26  C   LIG    1       -1.224   1.750   0.019  0.00  0.00    +0.020 A 
ATOM     27  C   LIG    1       -0.016   1.077   0.019  0.00  0.00    +0.010 A 
ATOM     28  C   LIG    1        1.172   1.784   0.019  0.00  0.00    +0.020 A 
ATOM     29  C   LIG    1        1.156   3.167   0.025  0.00  0.00    +0.020 A 
ATOM     30  C   LIG    1       -0.052   3.848   0.031  0.00  0.00    +0.050 A 
ATOM     31  O   LIG    1       -0.051   5.209   0.041  0.00  0.00    -0.310 OA
ENDBRANCH  21  22
ENDBRANCH  19  21
ENDBRANCH  18  19
ENDBRANCH   1  18
TORSDOF 7
