REMARK  Name = ZINCrD00000l7IkJ.0
REMARK                            x       y       z     vdW  Elec       q    Type
REMARK                         _______ _______ _______ _____ _____    ______ ____
ROOT
ATOM      1  C   LIG    1       -0.410   1.392  -0.004  0.00  0.00    +0.080 C 
ATOM      2  C   LIG    1       -0.803   1.635   1.455  0.00  0.00    +0.150 C 
ATOM      3  C   LIG    1        0.159   0.913   2.363  0.00  0.00    +0.520 C 
ATOM      4  N   LIG    1        1.270   1.524   2.817  0.00  0.00    -0.650 N 
ATOM      5  H   LIG    1        1.895   1.033   3.372  0.00  0.00    +0.420 HD
ATOM      6  C   LIG    1        1.532   2.861   2.497  0.00  0.00    +0.130 A 
ATOM      7  C   LIG    1        2.787   3.407   2.707  0.00  0.00    +0.010 A 
ATOM      8  C   LIG    1        3.024   4.732   2.388  0.00  0.00    +0.030 A 
ATOM      9  C   LIG    1        2.014   5.515   1.861  0.00  0.00    +0.010 A 
ATOM     10  C   LIG    1        0.756   4.978   1.647  0.00  0.00    +0.050 A 
ATOM     11  C   LIG    1        0.514   3.653   1.962  0.00  0.00    +0.110 A 
ATOM     12  O   LIG    1       -0.070  -0.233   2.689  0.00  0.00    -0.500 OA
ATOM     13  C   LIG    1       -2.222   1.117   1.697  0.00  0.00    +0.090 C 
ATOM     14  N   LIG    1       -0.747   3.076   1.745  0.00  0.00    -0.550 N 
ATOM     15  C   LIG    1       -1.871   3.818   1.802  0.00  0.00    +0.520 C 
ATOM     16  O   LIG    1       -1.815   4.977   2.153  0.00  0.00    -0.480 OA
ENDROOT
BRANCH  15  17
ATOM     17  C   LIG    1       -3.197   3.207   1.429  0.00  0.00    +0.270 C 
BRANCH  17  18
ATOM     18  O   LIG    1       -4.200   4.224   1.405  0.00  0.00    -0.330 OA
BRANCH  18  19
ATOM     19  C   LIG    1       -5.454   3.840   1.086  0.00  0.00    +0.510 C 
ATOM     20  O   LIG    1       -5.688   2.672   0.835  0.00  0.00    -0.510 OA
BRANCH  19  21
ATOM     21  C   LIG    1       -6.495   4.793   1.043  0.00  0.00    -0.040 C 
ATOM     22  C   LIG    1       -7.757   4.407   0.722  0.00  0.00    +0.200 C 
BRANCH  22  23
ATOM     23  C   LIG    1       -8.800   5.362   0.679  0.00  0.00    +0.000 A 
ATOM     24  C   LIG    1      -10.120   5.111   0.365  0.00  0.00    +0.030 A 
ATOM     25  C   LIG    1      -10.791   6.339   0.450  0.00  0.00    +0.010 A 
ATOM     26  C   LIG    1       -9.875   7.273   0.797  0.00  0.00    -0.010 A 
ATOM     27 BR   LIG    1      -10.225   9.114   1.047  0.00  0.00    +0.070 Br
ATOM     28  O   LIG    1       -8.680   6.682   0.934  0.00  0.00    -0.150 OA
ENDBRANCH  22  23
ENDBRANCH  19  21
ENDBRANCH  18  19
ENDBRANCH  17  18
ENDBRANCH  15  17
TORSDOF 5
