REMARK  Name = ZINCqH0000005mlu.0
REMARK                            x       y       z     vdW  Elec       q    Type
REMARK                         _______ _______ _______ _____ _____    ______ ____
ROOT
ATOM      1  C   LIG    1       -0.139  -4.091  -1.728  0.00  0.00    +0.170 A 
ATOM      2  C   LIG    1        1.020  -4.712  -1.276  0.00  0.00    +0.020 A 
ATOM      3  C   LIG    1        1.138  -6.083  -1.339  0.00  0.00    +0.050 A 
ATOM      4  C   LIG    1        0.096  -6.848  -1.866  0.00  0.00    -0.050 A 
ATOM      5  C   LIG    1       -1.064  -6.221  -2.325  0.00  0.00    +0.110 A 
ATOM      6  C   LIG    1       -1.178  -4.850  -2.255  0.00  0.00    -0.010 A 
ENDROOT
BRANCH   4   7
ATOM      7  C   LIG    1        0.221  -8.319  -1.939  0.00  0.00    +0.340 A 
ATOM      8  N   LIG    1       -0.694  -9.132  -2.409  0.00  0.00    -0.470 NA
ATOM      9  C   LIG    1       -0.251 -10.411  -2.331  0.00  0.00    +0.020 A 
ATOM     10  C   LIG    1       -0.811 -11.645  -2.684  0.00  0.00    +0.150 A 
ATOM     11  C   LIG    1       -0.098 -12.805  -2.470  0.00  0.00    -0.010 A 
ATOM     12  C   LIG    1        1.169 -12.759  -1.906  0.00  0.00    +0.070 A 
ATOM     13  C   LIG    1        1.734 -11.552  -1.552  0.00  0.00    +0.010 A 
ATOM     14  F   LIG    1       -2.044 -11.698  -3.234  0.00  0.00    -0.130 F 
ATOM     15  C   LIG    1        1.033 -10.372  -1.760  0.00  0.00    +0.080 A 
ATOM     16  N   LIG    1        1.309  -9.039  -1.522  0.00  0.00    -0.590 N 
ATOM     17  H   LIG    1        2.121  -8.681  -1.131  0.00  0.00    +0.430 HD
ENDBRANCH   4   7
BRANCH   1  19
ATOM     18  C   LIG    1        0.315  -2.025  -0.643  0.00  0.00    +0.520 C 
ATOM     19  N   LIG    1       -0.257  -2.701  -1.659  0.00  0.00    -0.680 N 
ATOM     20  H   LIG    1       -0.751  -2.221  -2.343  0.00  0.00    +0.410 HD
ATOM     21  O   LIG    1        0.850  -2.630   0.262  0.00  0.00    -0.490 OA
BRANCH  18  28
ATOM     22  C   LIG    1        2.652  -0.577  -0.103  0.00  0.00    +0.180 C 
ATOM     23  N   LIG    1        1.343  -0.019   0.263  0.00  0.00    -0.520 NA
ATOM     24  C   LIG    1        1.380   1.449   0.271  0.00  0.00    +0.180 C 
ATOM     25  C   LIG    1        0.048   1.991   0.795  0.00  0.00    +0.020 C 
ATOM     26  C   LIG    1       -1.088   1.495  -0.103  0.00  0.00    +0.010 C 
ATOM     27  C   LIG    1       -1.075  -0.035  -0.134  0.00  0.00    +0.040 C 
ATOM     28  C   LIG    1        0.290  -0.519  -0.631  0.00  0.00    +0.140 C 
ENDBRANCH  18  28
ENDBRANCH   1  19
TORSDOF 3
