REMARK  Name = ZINCrD000006fiwe.0
REMARK                            x       y       z     vdW  Elec       q    Type
REMARK                         _______ _______ _______ _____ _____    ______ ____
ROOT
ATOM      1  C   LIG    1       -0.144   1.171   0.037  0.00  0.00    +0.520 C 
ATOM      2  N   LIG    1       -1.326   1.797   0.201  0.00  0.00    -0.730 N 
ATOM      3  H   LIG    1       -1.357   2.763   0.280  0.00  0.00    +0.400 HD
ATOM      4  O   LIG    1       -0.105  -0.037  -0.062  0.00  0.00    -0.540 OA
ENDROOT
BRANCH   1   9
ATOM      5  C   LIG    1        4.426   3.003  -2.255  0.00  0.00    +0.550 C 
ATOM      6  N   LIG    1        3.494   2.883  -1.289  0.00  0.00    -0.610 N 
ATOM      7  C   LIG    1        3.615   1.844  -0.257  0.00  0.00    +0.260 C 
ATOM      8  C   LIG    1        2.318   1.028  -0.225  0.00  0.00    +0.050 C 
ATOM      9  C   LIG    1        1.130   1.973  -0.029  0.00  0.00    -0.010 C 
ATOM     10  C   LIG    1        1.056   2.952  -1.204  0.00  0.00    +0.030 C 
ATOM     11  C   LIG    1        2.338   3.789  -1.247  0.00  0.00    +0.280 C 
ATOM     12  O   LIG    1        4.271   3.809  -3.153  0.00  0.00    -0.540 OA
BRANCH   5  14
ATOM     13  C   LIG    1        6.595   2.343  -3.121  0.00  0.00    +0.140 C 
ATOM     14  C   LIG    1        5.630   2.159  -2.224  0.00  0.00    -0.090 C 
ENDBRANCH   5  14
ENDBRANCH   1   9
BRANCH   2  15
ATOM     15  C   LIG    1       -2.565   1.017   0.260  0.00  0.00    +0.290 C 
BRANCH  15  16
ATOM     16  C   LIG    1       -3.764   1.967   0.308  0.00  0.00    -0.030 C 
ATOM     17  C   LIG    1       -3.744   2.773   1.619  0.00  0.00    +0.030 C 
ATOM     18  C   LIG    1       -5.049   2.426   2.367  0.00  0.00    +0.020 C 
ATOM     19  C   LIG    1       -5.455   1.042   1.803  0.00  0.00    +0.010 C 
ATOM     20  C   LIG    1       -5.078   1.160   0.305  0.00  0.00    +0.050 C 
BRANCH  16  21
ATOM     21  C   LIG    1       -3.729   2.902  -0.873  0.00  0.00    -0.140 A 
ATOM     22  C   LIG    1       -4.405   2.575  -2.036  0.00  0.00    +0.130 A 
ATOM     23  C   LIG    1       -4.377   3.438  -3.119  0.00  0.00    -0.010 A 
ATOM     24  C   LIG    1       -3.665   4.620  -3.043  0.00  0.00    +0.090 A 
ATOM     25  C   LIG    1       -2.985   4.945  -1.884  0.00  0.00    +0.000 A 
ATOM     26  F   LIG    1       -5.096   1.417  -2.112  0.00  0.00    -0.120 F 
ATOM     27  C   LIG    1       -3.016   4.087  -0.798  0.00  0.00    +0.120 A 
ATOM     28  F   LIG    1       -2.352   4.405   0.334  0.00  0.00    -0.120 F 
ENDBRANCH  16  21
ENDBRANCH  15  16
ENDBRANCH   2  15
TORSDOF 5
