REMARK  Name = ZINCrH00000tj1iA.1
REMARK                            x       y       z     vdW  Elec       q    Type
REMARK                         _______ _______ _______ _____ _____    ______ ____
ROOT
ATOM      1  C   LIG    1       -4.110  -0.083   0.206  0.00  0.00    +0.530 C 
ATOM      2  N   LIG    1       -5.149   0.761   0.053  0.00  0.00    -0.660 N 
ATOM      3  H   LIG    1       -4.995   1.718   0.010  0.00  0.00    +0.420 HD
ATOM      4  O   LIG    1       -4.309  -1.270   0.357  0.00  0.00    -0.490 OA
ENDROOT
BRANCH   2   5
ATOM      5  C   LIG    1       -6.451   0.257  -0.043  0.00  0.00    +0.140 A 
ATOM      6  C   LIG    1       -6.678  -0.965  -0.658  0.00  0.00    +0.060 A 
ATOM      7  C   LIG    1       -7.975  -1.465  -0.747  0.00  0.00    -0.000 A 
ATOM      8  C   LIG    1       -9.039  -0.729  -0.227  0.00  0.00    +0.020 A 
ATOM      9  C   LIG    1       -8.805   0.490   0.379  0.00  0.00    +0.030 A 
ATOM     10  C   LIG    1       -7.518   0.984   0.473  0.00  0.00    +0.000 A 
BRANCH   7  11
ATOM     11  C   LIG    1       -8.224  -2.774  -1.398  0.00  0.00    +0.110 A 
ATOM     12  C   LIG    1       -9.462  -3.268  -1.603  0.00  0.00    -0.070 A 
ATOM     13  S   LIG    1       -9.296  -4.831  -2.399  0.00  0.00    +0.130 S 
ATOM     14  C   LIG    1       -7.594  -4.678  -2.373  0.00  0.00    +0.050 A 
ATOM     15  C   LIG    1       -6.631  -5.702  -2.916  0.00  0.00    +0.180 C 
ATOM     16  N   LIG    1       -7.250  -3.565  -1.824  0.00  0.00    -0.460 NA
ENDBRANCH   7  11
ENDBRANCH   2   5
BRANCH   1  17
ATOM     17  C   LIG    1       -2.700   0.448   0.191  0.00  0.00    +0.060 C 
BRANCH  17  18
ATOM     18  S   LIG    1       -1.537  -0.920   0.419  0.00  0.00    +0.090 S 
BRANCH  18  25
ATOM     19  C   LIG    1        3.728  -0.722   0.597  0.00  0.00    +0.130 C 
ATOM     20  C   LIG    1        2.410  -0.006   0.451  0.00  0.00    +0.060 A 
ATOM     21  C   LIG    1        2.374   1.344   0.270  0.00  0.00    -0.080 A 
ATOM     22  C   LIG    1        1.142   2.000   0.135  0.00  0.00    +0.530 A 
ATOM     23  N   LIG    1       -0.013   1.311   0.182  0.00  0.00    -0.610 N 
ATOM     24  H   LIG    1       -0.856   1.780   0.082  0.00  0.00    +0.410 HD
ATOM     25  C   LIG    1       -0.012  -0.039   0.361  0.00  0.00    +0.180 A 
ATOM     26  O   LIG    1        1.116   3.209  -0.027  0.00  0.00    -0.530 OA
ATOM     27  C   LIG    1        1.198  -0.726   0.499  0.00  0.00    -0.100 A 
BRANCH  27  28
ATOM     28  C   LIG    1        1.207  -2.145   0.689  0.00  0.00    +0.260 C 
ATOM     29  N   LIG    1        1.214  -3.271   0.840  0.00  0.00    -0.390 NA
ENDBRANCH  27  28
ENDBRANCH  18  25
ENDBRANCH  17  18
ENDBRANCH   1  17
TORSDOF 6
