REMARK  Name = ZINCpk00000ebcn8.0
REMARK                            x       y       z     vdW  Elec       q    Type
REMARK                         _______ _______ _______ _____ _____    ______ ____
ROOT
ATOM      1  N   LIG    1       -5.468   2.170  -0.009  0.00  0.00    -0.720 N 
ATOM      2  H   LIG    1       -5.507   1.324  -0.482  0.00  0.00    +0.400 HD
ATOM      3  C   LIG    1       -6.464   3.067  -0.151  0.00  0.00    +0.570 C 
ATOM      4  O   LIG    1       -6.416   4.127   0.442  0.00  0.00    -0.530 OA
ENDROOT
BRANCH   1  12
ATOM      5  C   LIG    1       -0.030   1.033   0.049  0.00  0.00    +0.200 C 
ATOM      6  C   LIG    1       -0.735   1.539   1.282  0.00  0.00    +0.180 A 
ATOM      7  N   LIG    1       -0.184   1.808   2.437  0.00  0.00    -0.290 NA
ATOM      8  N   LIG    1       -1.084   2.219   3.264  0.00  0.00    -0.290 NA
ATOM      9  C   LIG    1       -2.241   2.229   2.674  0.00  0.00    +0.180 A 
ATOM     10  C   LIG    1       -3.580   2.630   3.240  0.00  0.00    +0.180 C 
ATOM     11  C   LIG    1       -4.673   2.099   2.303  0.00  0.00    +0.030 C 
ATOM     12  C   LIG    1       -4.328   2.473   0.859  0.00  0.00    +0.250 C 
ATOM     13  C   LIG    1       -3.107   1.668   0.398  0.00  0.00    +0.300 C 
ATOM     14  N   LIG    1       -2.050   1.805   1.399  0.00  0.00    -0.470 N 
ENDBRANCH   1  12
BRANCH   3  15
ATOM     15  C   LIG    1       -7.613   2.762  -1.026  0.00  0.00    -0.170 A 
ATOM     16  C   LIG    1       -7.668   1.546  -1.712  0.00  0.00    +0.080 A 
ATOM     17  C   LIG    1       -8.743   1.262  -2.523  0.00  0.00    -0.010 A 
ATOM     18  C   LIG    1       -9.771   2.189  -2.668  0.00  0.00    +0.200 A 
ATOM     19  C   LIG    1       -9.717   3.403  -1.990  0.00  0.00    -0.040 A 
ATOM     20  C   LIG    1       -8.647   3.691  -1.174  0.00  0.00    +0.120 A 
BRANCH  18  21
ATOM     21  N   LIG    1      -10.856   1.901  -3.494  0.00  0.00    -0.560 N 
ATOM     22  C   LIG    1      -12.047   2.749  -3.624  0.00  0.00    +0.270 C 
ATOM     23  C   LIG    1      -13.125   1.851  -4.270  0.00  0.00    +0.060 C 
ATOM     24  C   LIG    1      -12.261   0.815  -5.025  0.00  0.00    +0.070 C 
ATOM     25  C   LIG    1      -10.944   0.813  -4.279  0.00  0.00    +0.520 C 
ATOM     26  O   LIG    1      -10.094  -0.047  -4.373  0.00  0.00    -0.500 OA
ENDBRANCH  18  21
ENDBRANCH   3  15
TORSDOF 3
