REMARK  Name = ZINCrH000004qv5k.0
REMARK                            x       y       z     vdW  Elec       q    Type
REMARK                         _______ _______ _______ _____ _____    ______ ____
ROOT
ATOM      1  C   LIG    1       -1.556  -0.479  -0.374  0.00  0.00    +0.510 C 
ATOM      2  N   LIG    1       -1.706  -1.806  -0.189  0.00  0.00    -0.670 N 
ATOM      3  H   LIG    1       -0.934  -2.392  -0.229  0.00  0.00    +0.410 HD
ATOM      4  O   LIG    1       -2.530   0.241  -0.418  0.00  0.00    -0.480 OA
ENDROOT
BRANCH   2   5
ATOM      5  C   LIG    1       -2.976  -2.338   0.060  0.00  0.00    +0.150 A 
ATOM      6  C   LIG    1       -3.259  -3.654  -0.287  0.00  0.00    -0.010 A 
ATOM      7  C   LIG    1       -4.512  -4.184  -0.042  0.00  0.00    +0.050 A 
ATOM      8  C   LIG    1       -5.490  -3.410   0.547  0.00  0.00    +0.000 A 
ATOM      9  C   LIG    1       -5.216  -2.087   0.900  0.00  0.00    +0.010 A 
ATOM     10  C   LIG    1       -3.951  -1.555   0.659  0.00  0.00    +0.070 A 
BRANCH   9  11
ATOM     11  C   LIG    1       -6.263  -1.256   1.532  0.00  0.00    +0.210 A 
ATOM     12  N   LIG    1       -6.077  -0.142   2.205  0.00  0.00    -0.270 NA
ATOM     13  N   LIG    1       -7.208   0.313   2.613  0.00  0.00    -0.290 NA
ATOM     14  C   LIG    1       -8.174  -0.477   2.227  0.00  0.00    +0.180 A 
ATOM     15  C   LIG    1       -9.644  -0.290   2.503  0.00  0.00    +0.200 C 
ATOM     16  N   LIG    1       -7.611  -1.496   1.523  0.00  0.00    -0.480 N 
ATOM     17  C   LIG    1       -8.303  -2.621   0.889  0.00  0.00    +0.350 C 
ENDBRANCH   9  11
ENDBRANCH   2   5
BRANCH   1  18
ATOM     18  C   LIG    1       -0.176   0.109  -0.525  0.00  0.00    +0.230 C 
BRANCH  18  19
ATOM     19  O   LIG    1       -0.279   1.522  -0.708  0.00  0.00    -0.300 OA
BRANCH  19  24
ATOM     20  C   LIG    1        4.537   4.373  -1.343  0.00  0.00    +0.090 C 
ATOM     21  C   LIG    1        3.248   3.611  -1.173  0.00  0.00    -0.080 A 
ATOM     22  C   LIG    1        2.595   3.103  -2.282  0.00  0.00    +0.010 A 
ATOM     23  C   LIG    1        1.414   2.403  -2.128  0.00  0.00    -0.090 A 
ATOM     24  C   LIG    1        0.883   2.210  -0.862  0.00  0.00    +0.080 A 
ATOM     25  C   LIG    1        1.537   2.725   0.248  0.00  0.00    -0.090 A 
ATOM     26  C   LIG    1        0.960   2.523   1.625  0.00  0.00    +0.100 C 
ATOM     27  C   LIG    1        0.703   1.850  -3.337  0.00  0.00    +0.100 C 
ATOM     28  C   LIG    1        2.721   3.419   0.090  0.00  0.00    +0.010 A 
ENDBRANCH  19  24
ENDBRANCH  18  19
ENDBRANCH   1  18
TORSDOF 5
