REMARK  Name = ZINCpk000000mZoZ.0
REMARK                            x       y       z     vdW  Elec       q    Type
REMARK                         _______ _______ _______ _____ _____    ______ ____
ROOT
ATOM      1  N   LIG    1        7.682  -0.801   1.396  0.00  0.00    -0.670 N 
ATOM      2  H   LIG    1        8.291  -0.050   1.476  0.00  0.00    +0.420 HD
ATOM      3  C   LIG    1        6.374  -0.586   1.154  0.00  0.00    +0.500 C 
ATOM      4  O   LIG    1        5.630  -1.525   0.963  0.00  0.00    -0.510 OA
ENDROOT
BRANCH   1   9
ATOM      5  C   LIG    1        9.914  -3.724   1.237  0.00  0.00    +0.160 A 
ATOM      6  C   LIG    1        9.106  -4.700   1.807  0.00  0.00    -0.030 A 
ATOM      7  C   LIG    1        7.832  -4.380   2.236  0.00  0.00    +0.050 A 
ATOM      8  C   LIG    1        7.359  -3.089   2.101  0.00  0.00    +0.000 A 
ATOM      9  C   LIG    1        8.162  -2.109   1.532  0.00  0.00    +0.160 A 
ATOM     10  C   LIG    1        9.440  -2.428   1.095  0.00  0.00    +0.000 A 
BRANCH   5  13
ATOM     11  C   LIG    1       13.610  -3.538   0.549  0.00  0.00    +0.110 C 
ATOM     12  C   LIG    1       12.202  -3.152   0.921  0.00  0.00    +0.510 C 
ATOM     13  N   LIG    1       11.204  -4.050   0.802  0.00  0.00    -0.670 N 
ATOM     14  H   LIG    1       11.379  -4.922   0.414  0.00  0.00    +0.410 HD
ATOM     15  O   LIG    1       11.966  -2.034   1.328  0.00  0.00    -0.530 OA
ENDBRANCH   5  13
ENDBRANCH   1   9
BRANCH   3  16
ATOM     16  C   LIG    1        5.835   0.821   1.121  0.00  0.00    +0.360 C 
BRANCH  16  17
ATOM     17  N   LIG    1        4.398   0.787   0.842  0.00  0.00    -0.570 N 
ATOM     18  C   LIG    1        3.448   0.715   1.784  0.00  0.00    +0.710 C 
ATOM     19  N   LIG    1        2.204   0.698   1.260  0.00  0.00    -0.710 N 
ATOM     20  H   LIG    1        1.367   0.650   1.747  0.00  0.00    +0.440 HD
ATOM     21  C   LIG    1        2.377   0.769  -0.187  0.00  0.00    +0.110 C 
ATOM     22  C   LIG    1        1.666   1.988  -0.793  0.00  0.00    +0.050 C 
ATOM     23  C   LIG    1        0.213   1.508  -1.009  0.00  0.00    +0.030 C 
ATOM     24  C   LIG    1        0.263  -0.029  -1.078  0.00  0.00    +0.030 C 
ATOM     25  C   LIG    1        1.743  -0.434  -0.902  0.00  0.00    +0.050 C 
ATOM     26  O   LIG    1        3.681   0.667   2.976  0.00  0.00    -0.540 OA
ATOM     27  C   LIG    1        3.863   0.826  -0.400  0.00  0.00    +0.540 C 
ATOM     28  O   LIG    1        4.455   0.892  -1.456  0.00  0.00    -0.460 OA
ENDBRANCH  16  17
ENDBRANCH   3  16
TORSDOF 4
