REMARK  Name = ZINCqH0000007jnD.0
REMARK                            x       y       z     vdW  Elec       q    Type
REMARK                         _______ _______ _______ _____ _____    ______ ____
ROOT
ATOM      1  N   LIG    1        2.344   1.060   0.136  0.00  0.00    -0.660 N 
ATOM      2  H   LIG    1        3.164   1.575   0.077  0.00  0.00    +0.410 HD
ATOM      3  C   LIG    1        2.394  -0.287   0.164  0.00  0.00    +0.610 C 
ATOM      4  O   LIG    1        1.365  -0.934   0.151  0.00  0.00    -0.510 OA
ENDROOT
BRANCH   3   5
ATOM      5  C   LIG    1        3.697  -0.975   0.211  0.00  0.00    -0.290 A 
ATOM      6  C   LIG    1        4.396  -1.330   1.347  0.00  0.00    +0.140 A 
ATOM      7  N   LIG    1        5.528  -1.938   0.949  0.00  0.00    -0.310 N 
ATOM      8  N   LIG    1        5.551  -1.958  -0.451  0.00  0.00    -0.280 NA
ATOM      9  C   LIG    1        3.968  -1.086   2.771  0.00  0.00    +0.160 C 
ATOM     10  C   LIG    1        4.467  -1.389  -0.900  0.00  0.00    +0.120 A 
ATOM     11  C   LIG    1        4.100  -1.204  -2.350  0.00  0.00    +0.170 C 
BRANCH   7  12
ATOM     12  C   LIG    1        6.520  -2.457   1.792  0.00  0.00    +0.140 A 
ATOM     13  C   LIG    1        7.861  -2.260   1.492  0.00  0.00    +0.030 A 
ATOM     14  C   LIG    1        8.836  -2.768   2.329  0.00  0.00    +0.040 A 
ATOM     15  C   LIG    1        8.477  -3.482   3.457  0.00  0.00    +0.020 A 
ATOM     16  C   LIG    1        7.142  -3.684   3.756  0.00  0.00    +0.040 A 
ATOM     17  C   LIG    1        6.163  -3.174   2.926  0.00  0.00    +0.010 A 
ENDBRANCH   7  12
ENDBRANCH   3   5
BRANCH   1  21
ATOM     18  C   LIG    1       -1.342   3.009   0.296  0.00  0.00    +0.090 A 
ATOM     19  C   LIG    1       -1.222   1.807  -0.381  0.00  0.00    -0.010 A 
ATOM     20  C   LIG    1       -0.002   1.158  -0.429  0.00  0.00    +0.030 A 
ATOM     21  C   LIG    1        1.107   1.716   0.191  0.00  0.00    +0.150 A 
ATOM     22  C   LIG    1        0.992   2.924   0.866  0.00  0.00    -0.060 A 
ATOM     23  C   LIG    1       -0.231   3.571   0.919  0.00  0.00    +0.120 A 
BRANCH  18  25
ATOM     24  C   LIG    1       -3.641   3.011  -0.314  0.00  0.00    +0.250 C 
ATOM     25  O   LIG    1       -2.544   3.644   0.347  0.00  0.00    -0.310 OA
ENDBRANCH  18  25
BRANCH  23  26
ATOM     26  O   LIG    1       -0.347   4.754   1.579  0.00  0.00    -0.300 OA
ATOM     27  C   LIG    1        0.835   5.271   2.196  0.00  0.00    +0.240 C 
ENDBRANCH  23  26
ENDBRANCH   1  21
TORSDOF 5
