REMARK  Name = ZINCtV000002BIXL.0
REMARK                            x       y       z     vdW  Elec       q    Type
REMARK                         _______ _______ _______ _____ _____    ______ ____
ROOT
ATOM      1  C   LIG    1       -1.771   0.971   1.844  0.00  0.00    +0.250 A 
ATOM      2  N   LIG    1       -2.086   1.738   2.862  0.00  0.00    -0.250 NA
ATOM      3  N   LIG    1       -1.277   2.734   2.928  0.00  0.00    -0.290 NA
ATOM      4  C   LIG    1       -0.391   2.661   1.960  0.00  0.00    +0.160 A 
ATOM      5  N   LIG    1       -0.678   1.540   1.233  0.00  0.00    -0.460 N 
ENDROOT
BRANCH   1  11
ATOM      6  C   LIG    1       -3.855  -0.294   1.316  0.00  0.00    +0.170 A 
ATOM      7  C   LIG    1       -4.492  -1.462   0.929  0.00  0.00    -0.070 A 
ATOM      8  C   LIG    1       -3.752  -2.599   0.660  0.00  0.00    +0.070 A 
ATOM      9  C   LIG    1       -2.373  -2.578   0.774  0.00  0.00    -0.020 A 
ATOM     10  C   LIG    1       -1.724  -1.421   1.153  0.00  0.00    +0.070 A 
ATOM     11  C   LIG    1       -2.460  -0.270   1.433  0.00  0.00    -0.060 A 
BRANCH   6  13
ATOM     12  C   LIG    1       -6.000   0.723   1.440  0.00  0.00    +0.240 C 
ATOM     13  O   LIG    1       -4.582   0.823   1.581  0.00  0.00    -0.300 OA
ENDBRANCH   6  13
ENDBRANCH   1  11
BRANCH   4  14
ATOM     14  S   LIG    1        0.919   3.799   1.654  0.00  0.00    +0.010 S 
BRANCH  14  15
ATOM     15  C   LIG    1        0.640   4.970   3.006  0.00  0.00    +0.160 C 
BRANCH  15  16
ATOM     16  C   LIG    1        1.674   6.064   2.943  0.00  0.00    -0.070 A 
ATOM     17  C   LIG    1        1.425   7.209   2.209  0.00  0.00    +0.060 A 
ATOM     18  C   LIG    1        2.373   8.214   2.151  0.00  0.00    +0.050 A 
ATOM     19  C   LIG    1        3.571   8.075   2.829  0.00  0.00    -0.020 A 
ATOM     20  C   LIG    1        3.820   6.928   3.564  0.00  0.00    -0.030 A 
ATOM     21 CL   LIG    1        5.323   6.752   4.415  0.00  0.00    -0.040 Cl
ATOM     22 CL   LIG    1        4.761   9.336   2.756  0.00  0.00    -0.040 Cl
ATOM     23  C   LIG    1        2.869   5.926   3.625  0.00  0.00    +0.070 A 
ENDBRANCH  15  16
ENDBRANCH  14  15
ENDBRANCH   4  14
BRANCH   5  24
ATOM     24  C   LIG    1        0.034   1.045   0.052  0.00  0.00    +0.440 C 
BRANCH  24  25
ATOM     25  C   LIG    1       -0.661   1.530  -1.194  0.00  0.00    -0.060 A 
ATOM     26  C   LIG    1       -0.404   2.681  -1.841  0.00  0.00    -0.020 A 
ATOM     27  C   LIG    1       -1.280   2.732  -2.950  0.00  0.00    -0.070 A 
ATOM     28  C   LIG    1       -2.026   1.613  -2.909  0.00  0.00    +0.190 A 
ATOM     29  O   LIG    1       -1.646   0.888  -1.843  0.00  0.00    -0.160 OA
ENDBRANCH  24  25
ENDBRANCH   5  24
TORSDOF 7
