REMARK  Name = ZINCrH00000No4tT.0
REMARK                            x       y       z     vdW  Elec       q    Type
REMARK                         _______ _______ _______ _____ _____    ______ ____
ROOT
ATOM      1  N   LIG    1       -3.761   1.854   0.690  0.00  0.00    -0.510 N 
ATOM      2  C   LIG    1       -2.573   1.293   0.964  0.00  0.00    +0.570 C 
ATOM      3  C   LIG    1       -1.318   2.019   0.729  0.00  0.00    -0.170 A 
ATOM      4  C   LIG    1       -0.081   1.444   1.017  0.00  0.00    +0.110 A 
ATOM      5  C   LIG    1        1.075   2.160   0.786  0.00  0.00    -0.020 A 
ATOM      6  C   LIG    1        1.020   3.448   0.276  0.00  0.00    +0.060 A 
ATOM      7  C   LIG    1       -0.195   4.037  -0.011  0.00  0.00    -0.020 A 
ATOM      8  C   LIG    1       -1.371   3.331   0.214  0.00  0.00    +0.060 A 
ATOM      9  C   LIG    1       -2.697   3.915  -0.075  0.00  0.00    -0.340 C 
ATOM     10  C   LIG    1       -2.815   5.190  -0.583  0.00  0.00    +0.460 C 
ATOM     11  O   LIG    1       -2.534   0.162   1.411  0.00  0.00    -0.490 OA
ATOM     12  C   LIG    1       -3.884   3.096   0.195  0.00  0.00    +0.580 C 
ATOM     13  O   LIG    1       -4.992   3.548  -0.032  0.00  0.00    -0.540 OA
ENDROOT
BRANCH   1  18
ATOM     14  C   LIG    1       -8.471  -1.156   1.670  0.00  0.00    +0.090 C 
ATOM     15  C   LIG    1       -7.221  -0.356   1.409  0.00  0.00    -0.080 A 
ATOM     16  C   LIG    1       -6.928   0.742   2.196  0.00  0.00    +0.020 A 
ATOM     17  C   LIG    1       -5.780   1.474   1.963  0.00  0.00    +0.020 A 
ATOM     18  C   LIG    1       -4.925   1.111   0.931  0.00  0.00    +0.120 A 
ATOM     19  C   LIG    1       -5.222   0.008   0.143  0.00  0.00    +0.030 A 
ATOM     20  C   LIG    1       -6.369  -0.722   0.383  0.00  0.00    -0.080 A 
ATOM     21  C   LIG    1       -6.692  -1.920  -0.472  0.00  0.00    +0.090 C 
ENDBRANCH   1  18
BRANCH  10  22
ATOM     22  N   LIG    1       -4.029   5.654  -0.977  0.00  0.00    -0.520 N 
ATOM     23  H   LIG    1       -4.797   5.061  -0.983  0.00  0.00    +0.430 HD
BRANCH  22  24
ATOM     24  N   LIG    1       -4.170   6.956  -1.367  0.00  0.00    -0.450 NA
ATOM     25  H   LIG    1       -3.533   7.180  -2.117  0.00  0.00    +0.340 HD
BRANCH  24  26
ATOM     26  C   LIG    1       -5.558   7.244  -1.751  0.00  0.00    +0.090 C 
ATOM     27  C   LIG    1       -5.963   6.338  -2.915  0.00  0.00    +0.010 C 
ATOM     28  C   LIG    1       -5.675   8.708  -2.180  0.00  0.00    +0.060 C 
ATOM     29  C   LIG    1       -6.481   6.987  -0.559  0.00  0.00    +0.050 C 
ENDBRANCH  24  26
ENDBRANCH  22  24
ENDBRANCH  10  22
TORSDOF 4
