REMARK  Name = ZINCrD0000075hRU.0
REMARK                            x       y       z     vdW  Elec       q    Type
REMARK                         _______ _______ _______ _____ _____    ______ ____
ROOT
ATOM      1  C   LIG    1        4.057   0.171  -1.663  0.00  0.00    +0.530 C 
ATOM      2  N   LIG    1        2.903   0.817  -1.403  0.00  0.00    -0.720 N 
ATOM      3  H   LIG    1        2.346   1.128  -2.133  0.00  0.00    +0.400 HD
ATOM      4  O   LIG    1        4.754  -0.219  -0.750  0.00  0.00    -0.510 OA
ENDROOT
BRANCH   1   5
ATOM      5  C   LIG    1        4.482  -0.066  -3.090  0.00  0.00    +0.080 C 
BRANCH   5   6
ATOM      6  S   LIG    1        6.065  -0.952  -3.110  0.00  0.00    -0.160 S 
BRANCH   6   7
ATOM      7  C   LIG    1        6.404  -1.142  -4.881  0.00  0.00    +0.130 C 
BRANCH   7  11
ATOM      8  C   LIG    1       10.108  -3.213  -5.412  0.00  0.00    -0.020 A 
ATOM      9  C   LIG    1        8.911  -3.927  -5.324  0.00  0.00    +0.070 A 
ATOM     10  C   LIG    1        7.720  -3.253  -5.153  0.00  0.00    +0.040 A 
ATOM     11  C   LIG    1        7.709  -1.872  -5.068  0.00  0.00    -0.050 A 
ATOM     12  C   LIG    1        8.891  -1.157  -5.159  0.00  0.00    +0.040 A 
ATOM     13  C   LIG    1       10.090  -1.820  -5.324  0.00  0.00    +0.070 A 
BRANCH   8  15
ATOM     14  N   LIG    1       12.331  -4.457  -5.731  0.00  0.00    -0.410 NA
ATOM     15  C   LIG    1       11.348  -3.907  -5.590  0.00  0.00    +0.250 C 
ENDBRANCH   8  15
ENDBRANCH   7  11
ENDBRANCH   6   7
ENDBRANCH   5   6
ENDBRANCH   1   5
BRANCH   2  16
ATOM     16  C   LIG    1        2.490   1.048  -0.016  0.00  0.00    +0.320 C 
BRANCH  16  17
ATOM     17  C   LIG    1        1.175   1.783   0.000  0.00  0.00    -0.100 A 
ATOM     18  C   LIG    1       -0.013   1.076   0.008  0.00  0.00    +0.030 A 
ATOM     19  C   LIG    1       -1.219   1.751   0.017  0.00  0.00    +0.030 A 
ATOM     20  C   LIG    1       -1.238   3.133   0.030  0.00  0.00    -0.110 A 
ATOM     21  C   LIG    1       -0.050   3.840   0.022  0.00  0.00    +0.030 A 
ATOM     22  C   LIG    1        1.156   3.165   0.008  0.00  0.00    +0.030 A 
BRANCH  20  23
ATOM     23  C   LIG    1       -2.553   3.869   0.045  0.00  0.00    +0.340 C 
BRANCH  23  24
ATOM     24  N   LIG    1       -2.992   4.113  -1.331  0.00  0.00    -0.460 N 
ATOM     25  C   LIG    1       -3.773   3.288  -2.093  0.00  0.00    +0.110 A 
ATOM     26  C   LIG    1       -3.933   3.894  -3.285  0.00  0.00    +0.140 A 
ATOM     27  N   LIG    1       -3.267   5.058  -3.251  0.00  0.00    -0.490 NA
ATOM     28  C   LIG    1       -2.706   5.199  -2.082  0.00  0.00    +0.380 A 
ENDBRANCH  23  24
ENDBRANCH  20  23
ENDBRANCH  16  17
ENDBRANCH   2  16
TORSDOF 9
