REMARK  Name = ZINCtV00000L6kpW.0
REMARK                            x       y       z     vdW  Elec       q    Type
REMARK                         _______ _______ _______ _____ _____    ______ ____
ROOT
ATOM      1  C   LIG    1       -5.465   5.022  -1.200  0.00  0.00    +0.440 A 
ATOM      2  C   LIG    1       -5.313   4.296  -2.364  0.00  0.00    -0.050 A 
ATOM      3  C   LIG    1       -4.095   3.667  -2.619  0.00  0.00    +0.230 A 
ATOM      4  N   LIG    1       -3.104   3.765  -1.759  0.00  0.00    -0.460 NA
ATOM      5  C   LIG    1       -3.235   4.464  -0.627  0.00  0.00    +0.310 A 
ATOM      6  C   LIG    1       -2.357   4.721   0.433  0.00  0.00    -0.160 A 
ATOM      7  C   LIG    1       -3.045   5.515   1.358  0.00  0.00    +0.040 A 
ATOM      8  N   LIG    1       -4.253   5.743   0.904  0.00  0.00    -0.240 NA
ATOM      9  C   LIG    1       -3.914   2.871  -3.885  0.00  0.00    +0.160 C 
ATOM     10  N   LIG    1       -4.411   5.101  -0.329  0.00  0.00    -0.320 N 
ENDROOT
BRANCH   6  11
ATOM     11  C   LIG    1       -0.963   4.237   0.556  0.00  0.00    +0.000 A 
ATOM     12  C   LIG    1       -0.703   2.872   0.672  0.00  0.00    +0.050 A 
ATOM     13  C   LIG    1        0.598   2.427   0.791  0.00  0.00    +0.030 A 
ATOM     14  C   LIG    1        1.645   3.333   0.785  0.00  0.00    -0.030 A 
ATOM     15  C   LIG    1        1.393   4.689   0.664  0.00  0.00    +0.030 A 
ATOM     16 CL   LIG    1        3.280   2.766   0.929  0.00  0.00    -0.070 Cl
ATOM     17  C   LIG    1        0.096   5.145   0.550  0.00  0.00    +0.040 A 
ENDBRANCH   6  11
BRANCH   7  18
ATOM     18  C   LIG    1       -2.487   6.027   2.661  0.00  0.00    +0.560 C 
ATOM     19  F   LIG    1       -1.536   5.124   3.148  0.00  0.00    -0.150 F 
ATOM     20  F   LIG    1       -3.522   6.161   3.592  0.00  0.00    -0.160 F 
ATOM     21  F   LIG    1       -1.883   7.272   2.452  0.00  0.00    -0.160 F 
ENDBRANCH   7  18
BRANCH   1  22
ATOM     22  N   LIG    1       -6.658   5.655  -0.919  0.00  0.00    -0.670 N 
ATOM     23  H   LIG    1       -7.013   6.316  -1.535  0.00  0.00    +0.430 HD
BRANCH  22  29
ATOM     24  C   LIG    1      -10.364   6.589   2.171  0.00  0.00    +0.090 C 
ATOM     25  C   LIG    1       -9.155   5.782   1.774  0.00  0.00    -0.050 A 
ATOM     26  C   LIG    1       -8.735   4.732   2.570  0.00  0.00    -0.020 A 
ATOM     27  C   LIG    1       -7.625   3.989   2.210  0.00  0.00    +0.060 A 
ATOM     28  C   LIG    1       -6.938   4.289   1.051  0.00  0.00    -0.050 A 
ATOM     29  C   LIG    1       -7.354   5.346   0.252  0.00  0.00    +0.190 A 
ATOM     30  C   LIG    1       -8.469   6.091   0.616  0.00  0.00    -0.030 A 
ENDBRANCH  22  29
ENDBRANCH   1  22
TORSDOF 4
