REMARK  Name = ZINCc70000003XKt.0
REMARK                            x       y       z     vdW  Elec       q    Type
REMARK                         _______ _______ _______ _____ _____    ______ ____
ROOT
ATOM      1  C   LIG    1        0.002  -0.004   0.002  0.00  0.00    +0.250 A 
ATOM      2  C   LIG    1       -1.194  -0.713   0.015  0.00  0.00    -0.050 A 
ATOM      3  C   LIG    1       -1.188  -2.095   0.003  0.00  0.00    +0.150 A 
ATOM      4  C   LIG    1        0.019  -2.780  -0.012  0.00  0.00    -0.210 A 
ATOM      5  C   LIG    1        0.390  -4.208  -0.023  0.00  0.00    +0.580 C 
ATOM      6  N   LIG    1        1.732  -4.303  -0.037  0.00  0.00    -0.680 N 
ATOM      7  H   LIG    1        2.222  -5.140  -0.046  0.00  0.00    +0.430 HD
ATOM      8  C   LIG    1        2.304  -3.086  -0.036  0.00  0.00    +0.580 C 
ATOM      9  O   LIG    1        3.498  -2.864  -0.047  0.00  0.00    -0.460 OA
ATOM     10  O   LIG    1       -0.387  -5.142  -0.021  0.00  0.00    -0.470 OA
ATOM     11  C   LIG    1        1.235  -2.065  -0.020  0.00  0.00    -0.090 A 
ATOM     12  C   LIG    1        1.222  -0.682  -0.013  0.00  0.00    +0.020 A 
ENDROOT
BRANCH   1  13
ATOM     13  N   LIG    1       -0.017   1.386   0.010  0.00  0.00    -0.860 N 
ATOM     14  H   LIG    1       -0.863   1.860   0.016  0.00  0.00    +0.410 HD
ATOM     15  H   LIG    1        0.817   1.883   0.004  0.00  0.00    +0.410 HD
ENDBRANCH   1  13
TORSDOF 1
