REMARK  Name = ZINCrD0000071L8Z.2
REMARK                            x       y       z     vdW  Elec       q    Type
REMARK                         _______ _______ _______ _____ _____    ______ ____
ROOT
ATOM      1  N   LIG    1       -1.166   1.852   0.624  0.00  0.00    -0.510 NA
ENDROOT
BRANCH   1   3
ATOM      2  C   LIG    1       -1.173   1.447   3.040  0.00  0.00    +0.030 C 
ATOM      3  C   LIG    1       -1.416   0.838   1.657  0.00  0.00    +0.170 C 
ENDBRANCH   1   3
BRANCH   1   4
ATOM      4  C   LIG    1       -1.020   1.231  -0.699  0.00  0.00    +0.230 C 
BRANCH   4   5
ATOM      5  C   LIG    1        0.225   0.382  -0.721  0.00  0.00    -0.080 A 
ATOM      6  C   LIG    1        1.431   0.935  -1.109  0.00  0.00    +0.080 A 
ATOM      7  C   LIG    1        2.573   0.158  -1.135  0.00  0.00    +0.000 A 
ATOM      8  C   LIG    1        2.508  -1.180  -0.771  0.00  0.00    +0.130 A 
ATOM      9  C   LIG    1        1.296  -1.733  -0.382  0.00  0.00    +0.000 A 
ATOM     10  C   LIG    1        0.158  -0.951  -0.358  0.00  0.00    +0.040 A 
BRANCH   8  11
ATOM     11  N   LIG    1        3.665  -1.972  -0.797  0.00  0.00    -0.410 N 
ATOM     12  C   LIG    1        4.923  -1.566  -1.163  0.00  0.00    +0.130 A 
ATOM     13  C   LIG    1        5.729  -2.637  -1.040  0.00  0.00    +0.160 A 
ATOM     14  N   LIG    1        4.989  -3.673  -0.620  0.00  0.00    -0.480 NA
ATOM     15  C   LIG    1        3.751  -3.288  -0.471  0.00  0.00    +0.400 A 
ENDBRANCH   8  11
ENDBRANCH   4   5
ENDBRANCH   1   4
BRANCH   1  16
ATOM     16  C   LIG    1       -2.227   2.868   0.615  0.00  0.00    +0.210 C 
BRANCH  16  17
ATOM     17  C   LIG    1       -1.727   4.110  -0.075  0.00  0.00    +0.510 C 
ATOM     18  N   LIG    1       -2.567   5.140  -0.301  0.00  0.00    -0.680 N 
ATOM     19  H   LIG    1       -3.509   5.053  -0.087  0.00  0.00    +0.410 HD
ATOM     20  O   LIG    1       -0.569   4.184  -0.427  0.00  0.00    -0.500 OA
BRANCH  18  21
ATOM     21  C   LIG    1       -2.079   6.336  -0.844  0.00  0.00    +0.110 A 
ATOM     22  C   LIG    1       -0.793   6.762  -0.543  0.00  0.00    +0.060 A 
ATOM     23  C   LIG    1       -0.311   7.938  -1.083  0.00  0.00    -0.060 A 
ATOM     24  C   LIG    1       -1.116   8.699  -1.918  0.00  0.00    +0.110 A 
ATOM     25  C   LIG    1       -2.403   8.277  -2.215  0.00  0.00    +0.010 A 
ATOM     26  C   LIG    1       -2.885   7.098  -1.680  0.00  0.00    +0.020 A 
BRANCH  24  27
ATOM     27  O   LIG    1       -0.642   9.859  -2.445  0.00  0.00    -0.320 OA
ATOM     28  C   LIG    1        0.692  10.233  -2.097  0.00  0.00    +0.250 C 
ENDBRANCH  24  27
ENDBRANCH  18  21
ENDBRANCH  16  17
ENDBRANCH   1  16
TORSDOF 8
