REMARK  Name = ZINCpe00000gLMLo.0
REMARK                            x       y       z     vdW  Elec       q    Type
REMARK                         _______ _______ _______ _____ _____    ______ ____
ROOT
ATOM      1  N   LIG    1       -3.204   6.057   3.292  0.00  0.00    -0.730 N 
ATOM      2  H   LIG    1       -3.948   6.001   3.911  0.00  0.00    +0.410 HD
ATOM      3  C   LIG    1       -3.267   5.426   2.103  0.00  0.00    +0.700 C 
ATOM      4  N   LIG    1       -4.365   4.716   1.775  0.00  0.00    -0.750 N 
ATOM      5  H   LIG    1       -5.109   4.659   2.394  0.00  0.00    +0.400 HD
ATOM      6  O   LIG    1       -2.334   5.496   1.327  0.00  0.00    -0.590 OA
ENDROOT
BRANCH   1   7
ATOM      7  C   LIG    1       -2.011   6.829   3.649  0.00  0.00    +0.290 C 
BRANCH   7   8
ATOM      8  C   LIG    1       -2.216   7.481   5.018  0.00  0.00    +0.130 C 
BRANCH   8   9
ATOM      9  N   LIG    1       -2.638   6.461   5.987  0.00  0.00    -0.530 NA
ATOM     10  C   LIG    1       -2.822   7.048   7.323  0.00  0.00    +0.150 C 
ATOM     11  C   LIG    1       -3.318   5.967   8.286  0.00  0.00    +0.220 C 
ATOM     12  O   LIG    1       -2.388   4.880   8.295  0.00  0.00    -0.380 OA
ATOM     13  C   LIG    1       -2.186   4.285   7.011  0.00  0.00    +0.220 C 
ATOM     14  C   LIG    1       -1.678   5.349   6.035  0.00  0.00    +0.150 C 
ENDBRANCH   8   9
BRANCH   8  16
ATOM     15  C   LIG    1       -2.866   9.610   3.884  0.00  0.00    +0.030 C 
ATOM     16  C   LIG    1       -3.294   8.561   4.912  0.00  0.00    -0.020 C 
ATOM     17  C   LIG    1       -4.613   7.924   4.471  0.00  0.00    +0.030 C 
ENDBRANCH   8  16
ENDBRANCH   7   8
ENDBRANCH   1   7
BRANCH   4  18
ATOM     18  C   LIG    1       -4.433   4.029   0.482  0.00  0.00    +0.440 C 
BRANCH  18  19
ATOM     19  C   LIG    1       -5.754   3.314   0.363  0.00  0.00    +0.110 A 
ATOM     20  N   LIG    1       -6.005   2.086   0.736  0.00  0.00    -0.220 NA
ATOM     21  N   LIG    1       -7.233   1.787   0.493  0.00  0.00    -0.290 NA
ATOM     22  C   LIG    1       -7.839   2.826  -0.059  0.00  0.00    +0.200 A 
ATOM     23  C   LIG    1       -9.151   3.052  -0.517  0.00  0.00    +0.080 A 
ATOM     24  C   LIG    1       -9.470   4.263  -1.048  0.00  0.00    +0.070 A 
ATOM     25  C   LIG    1       -8.491   5.268  -1.131  0.00  0.00    +0.030 A 
ATOM     26  C   LIG    1       -7.237   5.037  -0.688  0.00  0.00    +0.230 A 
ATOM     27  N   LIG    1       -6.904   3.828  -0.153  0.00  0.00    -0.380 N 
ENDBRANCH  18  19
ENDBRANCH   4  18
TORSDOF 6
