REMARK  Name = ZINCtj00000036cl.1
REMARK                            x       y       z     vdW  Elec       q    Type
REMARK                         _______ _______ _______ _____ _____    ______ ____
ROOT
ATOM      1  N   LIG    1       -0.016   1.344   0.009  0.00  0.00    -0.720 N 
ATOM      2  H   LIG    1        0.817   1.840   0.004  0.00  0.00    +0.400 HD
ATOM      3  C   LIG    1        0.002  -0.004   0.002  0.00  0.00    +0.520 C 
ATOM      4  O   LIG    1       -1.040  -0.625   0.009  0.00  0.00    -0.520 OA
ENDROOT
BRANCH   3   5
ATOM      5  C   LIG    1        1.317  -0.740  -0.015  0.00  0.00    +0.000 C 
ATOM      6  C   LIG    1        2.103  -0.356  -1.272  0.00  0.00    +0.080 C 
ATOM      7  C   LIG    1        3.399  -1.167  -1.324  0.00  0.00    +0.270 C 
ATOM      8  N   LIG    1        3.085  -2.601  -1.357  0.00  0.00    -0.380 N 
ATOM      9  C   LIG    1        2.396  -2.989  -0.121  0.00  0.00    +0.260 C 
ATOM     10  H   LIG    1        2.489  -2.794  -2.148  0.00  0.00    +0.430 HD
ATOM     11  C   LIG    1        1.060  -2.249  -0.024  0.00  0.00    +0.090 C 
BRANCH   8  12
ATOM     12  C   LIG    1        4.330  -3.370  -1.485  0.00  0.00    +0.200 C 
ATOM     13  C   LIG    1        5.057  -2.968  -2.779  0.00  0.00    +0.090 C 
ATOM     14  C   LIG    1        6.161  -4.030  -3.017  0.00  0.00    -0.280 C 
ATOM     15  S   LIG    1        5.297  -5.598  -2.622  0.00  0.00    +2.410 S 
ATOM     16  O   LIG    1        6.151  -6.422  -1.841  0.00  0.00    -0.900 OA
ATOM     17  O   LIG    1        4.696  -6.114  -3.801  0.00  0.00    -0.900 OA
ATOM     18  C   LIG    1        4.004  -4.876  -1.548  0.00  0.00    -0.320 C 
ENDBRANCH   8  12
ENDBRANCH   3   5
BRANCH   1  20
ATOM     19  C   LIG    1       -1.794   2.190   1.460  0.00  0.00    +0.050 C 
ATOM     20  C   LIG    1       -1.295   2.059   0.019  0.00  0.00    +0.290 C 
BRANCH  20  21
ATOM     21  C   LIG    1       -1.107   3.431  -0.575  0.00  0.00    -0.100 A 
ATOM     22  C   LIG    1        0.028   4.162  -0.278  0.00  0.00    +0.040 A 
ATOM     23  C   LIG    1        0.205   5.418  -0.824  0.00  0.00    +0.010 A 
ATOM     24  C   LIG    1       -0.764   5.951  -1.664  0.00  0.00    +0.160 A 
ATOM     25  C   LIG    1       -1.905   5.217  -1.956  0.00  0.00    +0.040 A 
ATOM     26  C   LIG    1       -2.074   3.959  -1.411  0.00  0.00    +0.060 A 
BRANCH  24  27
ATOM     27  N   LIG    1       -0.590   7.228  -2.215  0.00  0.00    -0.340 N 
ATOM     28  C   LIG    1        0.457   8.055  -2.025  0.00  0.00    +0.480 A 
ATOM     29  N   LIG    1        0.240   9.148  -2.711  0.00  0.00    -0.530 NA
ATOM     30  C   LIG    1       -0.927   9.058  -3.348  0.00  0.00    +0.450 A 
ATOM     31  N   LIG    1       -1.470   7.899  -3.080  0.00  0.00    -0.310 NA
ENDBRANCH  24  27
ENDBRANCH  20  21
ENDBRANCH   1  20
TORSDOF 5
