REMARK  Name = ZINCqH0000008l8y.0
REMARK                            x       y       z     vdW  Elec       q    Type
REMARK                         _______ _______ _______ _____ _____    ______ ____
ROOT
ATOM      1  N   LIG    1        6.981   1.162  -1.682  0.00  0.00    -0.710 N 
ATOM      2  H   LIG    1        7.174   1.441  -0.773  0.00  0.00    +0.410 HD
ATOM      3  C   LIG    1        5.704   0.989  -2.077  0.00  0.00    +0.600 C 
ATOM      4  O   LIG    1        5.463   0.638  -3.216  0.00  0.00    -0.510 OA
ENDROOT
BRANCH   3   5
ATOM      5  C   LIG    1        4.599   1.225  -1.128  0.00  0.00    +0.050 C 
ATOM      6  N   LIG    1        4.725   1.597   0.101  0.00  0.00    -0.240 NA
ATOM      7  O   LIG    1        3.483   1.748   0.760  0.00  0.00    -0.170 OA
ATOM      8  C   LIG    1        2.490   1.048  -0.016  0.00  0.00    +0.190 C 
ATOM      9  C   LIG    1        3.120   1.071  -1.429  0.00  0.00    +0.110 C 
BRANCH   8  10
ATOM     10  C   LIG    1        1.175   1.783   0.000  0.00  0.00    -0.100 A 
ATOM     11  C   LIG    1       -0.013   1.076   0.008  0.00  0.00    +0.030 A 
ATOM     12  C   LIG    1       -1.219   1.751   0.017  0.00  0.00    +0.010 A 
ATOM     13  C   LIG    1       -1.238   3.133   0.030  0.00  0.00    +0.020 A 
ATOM     14  C   LIG    1       -0.050   3.840   0.022  0.00  0.00    +0.010 A 
ATOM     15  C   LIG    1        1.156   3.165   0.008  0.00  0.00    +0.030 A 
ENDBRANCH   8  10
ENDBRANCH   3   5
BRANCH   1  17
ATOM     16  C   LIG    1        8.435  -0.561  -2.630  0.00  0.00    +0.060 C 
ATOM     17  C   LIG    1        8.078   0.927  -2.624  0.00  0.00    +0.300 C 
BRANCH  17  18
ATOM     18  C   LIG    1        9.281   1.731  -2.205  0.00  0.00    -0.120 A 
ATOM     19  C   LIG    1       10.067   2.366  -3.154  0.00  0.00    +0.100 A 
ATOM     20  C   LIG    1       11.164   3.095  -2.722  0.00  0.00    +0.040 A 
ATOM     21  C   LIG    1       11.436   3.165  -1.369  0.00  0.00    +0.040 A 
ATOM     22  N   LIG    1       10.666   2.548  -0.494  0.00  0.00    -0.430 NA
ATOM     23  C   LIG    1        9.612   1.850  -0.868  0.00  0.00    +0.280 A 
BRANCH  21  24
ATOM     24  C   LIG    1       12.626   3.955  -0.888  0.00  0.00    +0.520 C 
ATOM     25  F   LIG    1       13.626   3.935  -1.867  0.00  0.00    -0.170 F 
ATOM     26  F   LIG    1       13.117   3.386   0.292  0.00  0.00    -0.160 F 
ATOM     27  F   LIG    1       12.240   5.277  -0.643  0.00  0.00    -0.170 F 
ENDBRANCH  21  24
ENDBRANCH  17  18
ENDBRANCH   1  17
TORSDOF 5
