REMARK  Name = ZINCqH00000085dS.0
REMARK                            x       y       z     vdW  Elec       q    Type
REMARK                         _______ _______ _______ _____ _____    ______ ____
ROOT
ATOM      1  N   LIG    1       -6.196   5.741  -1.595  0.00  0.00    -0.620 N 
ATOM      2  C   LIG    1       -5.102   4.989  -1.360  0.00  0.00    +0.520 C 
ATOM      3  O   LIG    1       -4.406   4.625  -2.284  0.00  0.00    -0.520 OA
ATOM      4  C   LIG    1       -7.037   6.180  -0.479  0.00  0.00    +0.270 C 
ENDROOT
BRANCH   1   5
ATOM      5  C   LIG    1       -6.543   6.119  -2.967  0.00  0.00    +0.340 C 
BRANCH   5   9
ATOM      6  C   LIG    1       -9.103   3.144  -4.660  0.00  0.00    -0.080 A 
ATOM      7  C   LIG    1       -9.648   4.224  -3.976  0.00  0.00    +0.030 A 
ATOM      8  C   LIG    1       -8.818   5.183  -3.431  0.00  0.00    +0.040 A 
ATOM      9  C   LIG    1       -7.446   5.070  -3.564  0.00  0.00    -0.110 A 
ATOM     10  C   LIG    1       -6.901   3.999  -4.248  0.00  0.00    +0.060 A 
ATOM     11  C   LIG    1       -7.724   3.033  -4.792  0.00  0.00    -0.020 A 
BRANCH   6  13
ATOM     12  C   LIG    1       -8.989   0.758  -6.120  0.00  0.00    +0.140 C 
ATOM     13  S   LIG    1      -10.158   1.918  -5.359  0.00  0.00    -0.120 S 
ENDBRANCH   6  13
ENDBRANCH   5   9
ENDBRANCH   1   5
BRANCH   2  14
ATOM     14  C   LIG    1       -4.745   4.600   0.051  0.00  0.00    +0.100 C 
BRANCH  14  15
ATOM     15  C   LIG    1       -3.489   3.767   0.040  0.00  0.00    -0.090 A 
ATOM     16  C   LIG    1       -2.253   4.380   0.141  0.00  0.00    +0.040 A 
ATOM     17  C   LIG    1       -1.101   3.619   0.132  0.00  0.00    -0.030 A 
ATOM     18  C   LIG    1       -1.184   2.237   0.020  0.00  0.00    +0.160 A 
ATOM     19  C   LIG    1       -2.426   1.625  -0.088  0.00  0.00    +0.000 A 
ATOM     20  C   LIG    1       -3.575   2.391  -0.071  0.00  0.00    +0.050 A 
BRANCH  18  21
ATOM     21  N   LIG    1       -0.018   1.463   0.010  0.00  0.00    -0.560 N 
ATOM     22  C   LIG    1        1.342   2.015  -0.011  0.00  0.00    +0.260 C 
ATOM     23  C   LIG    1        2.254   0.846  -0.444  0.00  0.00    +0.060 C 
ATOM     24  C   LIG    1        1.428  -0.382   0.004  0.00  0.00    +0.070 C 
ATOM     25  C   LIG    1        0.001   0.119   0.024  0.00  0.00    +0.510 C 
ATOM     26  O   LIG    1       -0.984  -0.589   0.050  0.00  0.00    -0.510 OA
ENDBRANCH  18  21
ENDBRANCH  14  15
ENDBRANCH   2  14
TORSDOF 6
