REMARK  Name = ZINCrg000000sBq4.0
REMARK                            x       y       z     vdW  Elec       q    Type
REMARK                         _______ _______ _______ _____ _____    ______ ____
ROOT
ATOM      1  N   LIG    1       -3.139   1.943  -0.713  0.00  0.00    -0.630 N 
ATOM      2  C   LIG    1       -4.244   1.975   0.261  0.00  0.00    +0.270 C 
ATOM      3  C   LIG    1       -3.744   1.126   1.456  0.00  0.00    +0.050 C 
ATOM      4  C   LIG    1       -2.239   1.501   1.497  0.00  0.00    +0.060 C 
ATOM      5  C   LIG    1       -1.885   1.671   0.005  0.00  0.00    +0.290 C 
ENDROOT
BRANCH   1  10
ATOM      6  C   LIG    1       -3.687   2.805  -6.195  0.00  0.00    +0.350 C 
ATOM      7  N   LIG    1       -3.524   2.553  -4.761  0.00  0.00    -0.560 N 
ATOM      8  C   LIG    1       -2.802   1.492  -4.350  0.00  0.00    +0.580 A 
ATOM      9  C   LIG    1       -2.649   1.253  -2.957  0.00  0.00    -0.270 A 
ATOM     10  C   LIG    1       -3.259   2.134  -2.058  0.00  0.00    +0.550 A 
ATOM     11  N   LIG    1       -3.982   3.188  -2.548  0.00  0.00    -0.530 N 
ATOM     12  C   LIG    1       -4.631   4.116  -1.618  0.00  0.00    +0.340 C 
ATOM     13  O   LIG    1       -2.286   0.747  -5.162  0.00  0.00    -0.510 OA
ATOM     14  C   LIG    1       -4.099   3.382  -3.873  0.00  0.00    +0.710 A 
ATOM     15  O   LIG    1       -4.744   4.330  -4.278  0.00  0.00    -0.520 OA
BRANCH   9  16
ATOM     16  C   LIG    1       -1.888   0.136  -2.486  0.00  0.00    +0.300 C 
ATOM     17  N   LIG    1       -1.284  -0.751  -2.111  0.00  0.00    -0.420 NA
ENDBRANCH   9  16
ENDBRANCH   1  10
BRANCH   5  18
ATOM     18  C   LIG    1       -0.934   2.827  -0.167  0.00  0.00    -0.110 A 
ATOM     19  C   LIG    1       -1.421   4.121  -0.205  0.00  0.00    +0.030 A 
ATOM     20  C   LIG    1       -0.552   5.184  -0.371  0.00  0.00    +0.030 A 
ATOM     21  C   LIG    1        0.810   4.955  -0.493  0.00  0.00    +0.060 A 
ATOM     22  O   LIG    1        1.652   6.012  -0.659  0.00  0.00    -0.310 OA
ATOM     23  C   LIG    1        3.041   5.774  -0.403  0.00  0.00    +0.230 C 
ATOM     24  C   LIG    1        3.439   4.464  -1.097  0.00  0.00    +0.230 C 
ATOM     25  O   LIG    1        2.634   3.409  -0.561  0.00  0.00    -0.300 OA
ATOM     26  C   LIG    1        1.300   3.655  -0.448  0.00  0.00    +0.060 A 
ATOM     27  C   LIG    1        0.423   2.593  -0.283  0.00  0.00    +0.040 A 
ENDBRANCH   5  18
TORSDOF 3
