REMARK  Name = ZINCpe00000IRh5N.0
REMARK                            x       y       z     vdW  Elec       q    Type
REMARK                         _______ _______ _______ _____ _____    ______ ____
ROOT
ATOM      1  N   LIG    1       -2.950   7.255   3.192  0.00  0.00    -0.520 NA
ATOM      2  C   LIG    1       -3.132   5.959   3.860  0.00  0.00    +0.150 C 
ATOM      3  C   LIG    1       -1.856   5.127   3.706  0.00  0.00    +0.230 C 
ATOM      4  O   LIG    1       -1.552   4.982   2.316  0.00  0.00    -0.370 OA
ATOM      5  C   LIG    1       -1.368   6.226   1.634  0.00  0.00    +0.140 C 
ATOM      6  C   LIG    1       -2.639   7.068   1.767  0.00  0.00    +0.170 C 
ENDROOT
BRANCH   1   7
ATOM      7  C   LIG    1       -4.134   8.108   3.365  0.00  0.00    +0.220 C 
BRANCH   7  14
ATOM      8  C   LIG    1       -7.093   9.756   8.515  0.00  0.00    +0.030 C 
ATOM      9  C   LIG    1       -6.869   9.257   7.086  0.00  0.00    -0.040 C 
ATOM     10  C   LIG    1       -7.890   9.909   6.152  0.00  0.00    +0.020 C 
ATOM     11  C   LIG    1       -7.688   9.386   4.728  0.00  0.00    +0.010 C 
ATOM     12  C   LIG    1       -6.283   9.760   4.245  0.00  0.00    +0.260 C 
ATOM     13  N   LIG    1       -5.301   9.261   5.217  0.00  0.00    -0.610 N 
ATOM     14  C   LIG    1       -4.278   8.478   4.819  0.00  0.00    +0.520 C 
ATOM     15  O   LIG    1       -3.474   8.072   5.631  0.00  0.00    -0.520 OA
ATOM     16  C   LIG    1       -5.458   9.625   6.631  0.00  0.00    +0.280 C 
ENDBRANCH   7  14
ENDBRANCH   1   7
BRANCH   5  17
ATOM     17  C   LIG    1       -1.084   5.960   0.154  0.00  0.00    +0.320 C 
BRANCH  17  18
ATOM     18  N   LIG    1        0.133   5.154   0.028  0.00  0.00    -0.600 N 
ATOM     19  C   LIG    1        1.437   5.811  -0.092  0.00  0.00    +0.290 C 
BRANCH  18  20
ATOM     20  C   LIG    1        0.050   3.766   0.022  0.00  0.00    +0.350 A 
ATOM     21  C   LIG    1       -1.195   3.139   0.030  0.00  0.00    -0.020 A 
ATOM     22  C   LIG    1       -1.224   1.753   0.017  0.00  0.00    +0.070 A 
ATOM     23  C   LIG    1       -0.013   1.076   0.008  0.00  0.00    +0.150 A 
ATOM     24  N   LIG    1        1.120   1.750   0.001  0.00  0.00    -0.210 NA
ATOM     25  N   LIG    1        1.154   3.033   0.007  0.00  0.00    -0.310 NA
ENDBRANCH  18  20
ENDBRANCH  17  18
ENDBRANCH   5  17
TORSDOF 5
