REMARK  Name = ZINCtV00001bB3JQ.0
REMARK                            x       y       z     vdW  Elec       q    Type
REMARK                         _______ _______ _______ _____ _____    ______ ____
ROOT
ATOM      1  N   LIG    1       -2.120   0.785  -0.281  0.00  0.00    -0.520 NA
ATOM      2  C   LIG    1       -2.380  -0.174   0.588  0.00  0.00    +0.390 A 
ATOM      3  S   LIG    1       -1.373  -0.695   1.952  0.00  0.00    -0.000 S 
ATOM      4  C   LIG    1       -2.497  -1.956   2.487  0.00  0.00    -0.050 A 
ATOM      5  C   LIG    1       -3.524  -1.914   1.630  0.00  0.00    +0.160 A 
ATOM      6  N   LIG    1       -3.478  -0.984   0.626  0.00  0.00    -0.500 N 
ENDROOT
BRANCH   1  13
ATOM      7  F   LIG    1       -2.128   3.513  -0.727  0.00  0.00    -0.130 F 
ATOM      8  C   LIG    1       -0.974   2.888  -0.404  0.00  0.00    +0.100 A 
ATOM      9  C   LIG    1        0.198   3.610  -0.302  0.00  0.00    +0.000 A 
ATOM     10  C   LIG    1        1.381   2.970   0.029  0.00  0.00    +0.020 A 
ATOM     11  C   LIG    1        1.397   1.607   0.261  0.00  0.00    +0.030 A 
ATOM     12  C   LIG    1        0.233   0.872   0.163  0.00  0.00    +0.000 A 
ATOM     13  C   LIG    1       -0.963   1.508  -0.176  0.00  0.00    +0.100 A 
ENDBRANCH   1  13
BRANCH   5  14
ATOM     14  C   LIG    1       -4.669  -2.841   1.762  0.00  0.00    -0.070 A 
ATOM     15  C   LIG    1       -5.974  -2.345   1.766  0.00  0.00    +0.070 A 
ATOM     16  C   LIG    1       -7.039  -3.213   1.883  0.00  0.00    -0.050 A 
ATOM     17  C   LIG    1       -6.814  -4.577   2.009  0.00  0.00    +0.120 A 
ATOM     18  C   LIG    1       -5.518  -5.074   2.012  0.00  0.00    +0.010 A 
ATOM     19  C   LIG    1       -4.448  -4.213   1.889  0.00  0.00    +0.090 A 
BRANCH  17  20
ATOM     20  O   LIG    1       -7.866  -5.429   2.130  0.00  0.00    -0.320 OA
BRANCH  20  21
ATOM     21  C   LIG    1       -9.173  -4.851   2.119  0.00  0.00    +0.600 C 
ATOM     22  F   LIG    1       -9.374  -4.174   0.911  0.00  0.00    -0.200 F 
ATOM     23  F   LIG    1       -9.294  -3.952   3.183  0.00  0.00    -0.200 F 
ENDBRANCH  20  21
ENDBRANCH  17  20
ENDBRANCH   5  14
BRANCH   6  24
ATOM     24  C   LIG    1       -4.556  -0.864  -0.359  0.00  0.00    +0.240 C 
ATOM     25  C   LIG    1       -3.975  -0.992  -1.768  0.00  0.00    +0.020 C 
ATOM     26  C   LIG    1       -5.100  -0.867  -2.797  0.00  0.00    +0.020 C 
ATOM     27  C   LIG    1       -5.778   0.497  -2.647  0.00  0.00    +0.010 C 
ATOM     28  C   LIG    1       -6.359   0.625  -1.238  0.00  0.00    +0.020 C 
ATOM     29  C   LIG    1       -5.234   0.499  -0.209  0.00  0.00    +0.020 C 
ENDBRANCH   6  24
TORSDOF 5
