REMARK  Name = ZINCqH0000007pPq.0
REMARK                            x       y       z     vdW  Elec       q    Type
REMARK                         _______ _______ _______ _____ _____    ______ ____
ROOT
ATOM      1  C   LIG    1        4.890   4.609   0.995  0.00  0.00    -0.050 C 
ATOM      2  C   LIG    1        4.751   3.626  -0.171  0.00  0.00    +0.040 C 
ATOM      3  C   LIG    1        3.447   2.839  -0.016  0.00  0.00    +0.210 C 
ATOM      4  N   LIG    1        2.312   3.770   0.000  0.00  0.00    -0.460 N 
ATOM      5  C   LIG    1        2.399   4.694   1.138  0.00  0.00    +0.200 C 
ATOM      6  C   LIG    1        3.671   5.536   1.018  0.00  0.00    +0.050 C 
ENDROOT
BRANCH   4   7
ATOM      7  C   LIG    1        1.109   3.086   0.008  0.00  0.00    +0.490 A 
ATOM      8  N   LIG    1        1.119   1.761   0.001  0.00  0.00    -0.560 NA
ATOM      9  C   LIG    1       -0.013   1.076   0.008  0.00  0.00    +0.340 A 
ATOM     10  C   LIG    1       -1.217   1.761   0.017  0.00  0.00    -0.110 A 
ATOM     11  C   LIG    1       -1.191   3.147   0.030  0.00  0.00    +0.220 A 
ATOM     12  N   LIG    1       -0.025   3.770   0.022  0.00  0.00    -0.520 NA
BRANCH  11  13
ATOM     13  C   LIG    1       -2.477   3.933   0.046  0.00  0.00    -0.020 C 
ATOM     14  C   LIG    1       -3.454   3.335  -0.968  0.00  0.00    +0.050 C 
ATOM     15  C   LIG    1       -2.188   5.390  -0.323  0.00  0.00    +0.060 C 
ATOM     16  C   LIG    1       -3.094   3.874   1.445  0.00  0.00    +0.050 C 
ENDBRANCH  11  13
ENDBRANCH   4   7
BRANCH   1  17
ATOM     17  C   LIG    1        6.161   5.441   0.813  0.00  0.00    +0.270 C 
BRANCH  17  21
ATOM     18  C   LIG    1        6.545   8.185   4.066  0.00  0.00    +0.130 A 
ATOM     19  C   LIG    1        5.950   8.592   2.881  0.00  0.00    -0.020 A 
ATOM     20  C   LIG    1        5.827   7.703   1.831  0.00  0.00    +0.060 A 
ATOM     21  C   LIG    1        6.296   6.409   1.960  0.00  0.00    -0.150 A 
ATOM     22  C   LIG    1        6.885   5.999   3.143  0.00  0.00    +0.050 A 
ATOM     23  C   LIG    1        7.015   6.886   4.194  0.00  0.00    -0.070 A 
BRANCH  18  25
ATOM     24  C   LIG    1        7.291   8.570   6.291  0.00  0.00    +0.250 C 
ATOM     25  O   LIG    1        6.667   9.058   5.101  0.00  0.00    -0.320 OA
ENDBRANCH  18  25
ENDBRANCH  17  21
BRANCH  17  26
ATOM     26  O   LIG    1        7.297   4.574   0.784  0.00  0.00    -0.550 OA
ATOM     27  H   LIG    1        7.412   4.050   1.588  0.00  0.00    +0.370 HD
ENDBRANCH  17  26
ENDBRANCH   1  17
TORSDOF 6
