REMARK  Name = ZINC650000002A1I.0
REMARK                            x       y       z     vdW  Elec       q    Type
REMARK                         _______ _______ _______ _____ _____    ______ ____
ROOT
ATOM      1  S   LIG    1        1.365   2.063   0.000  0.00  0.00    +2.620 S 
ATOM      2  O   LIG    1        2.126   1.262   0.893  0.00  0.00    -0.970 OA
ATOM      3  O   LIG    1        1.119   3.435   0.274  0.00  0.00    -0.930 OA
ATOM      4  C   LIG    1        1.950   1.849  -1.704  0.00  0.00    -0.310 C 
ENDROOT
BRANCH   1   6
ATOM      5  C   LIG    1        0.002  -0.004   0.002  0.00  0.00    +0.330 C 
ATOM      6  O   LIG    1       -0.017   1.425   0.010  0.00  0.00    -0.730 OA
ENDBRANCH   1   6
TORSDOF 1
