REMARK  Name = ZINCvU0000000Aq0.0
REMARK                            x       y       z     vdW  Elec       q    Type
REMARK                         _______ _______ _______ _____ _____    ______ ____
ROOT
ATOM      1  C   LIG    1       -0.718   1.572   1.248  0.00  0.00    +0.540 C 
ATOM      2  N   LIG    1       -0.242   1.246   2.466  0.00  0.00    -0.720 N 
ATOM      3  H   LIG    1        0.555   0.699   2.544  0.00  0.00    +0.400 HD
ATOM      4  O   LIG    1       -1.714   2.256   1.150  0.00  0.00    -0.520 OA
ENDROOT
BRANCH   1   5
ATOM      5  C   LIG    1       -0.013   1.086   0.008  0.00  0.00    +0.100 C 
BRANCH   5   6
ATOM      6  S   LIG    1       -0.888   1.685  -1.458  0.00  0.00    +0.090 S 
BRANCH   6  11
ATOM      7  C   LIG    1        1.199   0.247  -6.129  0.00  0.00    +0.200 C 
ATOM      8  C   LIG    1        0.958   0.414  -4.651  0.00  0.00    +0.190 A 
ATOM      9  N   LIG    1        1.683  -0.084  -3.689  0.00  0.00    -0.280 NA
ATOM     10  N   LIG    1        1.194   0.253  -2.549  0.00  0.00    -0.290 NA
ATOM     11  C   LIG    1        0.122   0.990  -2.724  0.00  0.00    +0.140 A 
ATOM     12  N   LIG    1       -0.066   1.111  -4.071  0.00  0.00    -0.450 N 
BRANCH  12  13
ATOM     13  C   LIG    1       -1.139   1.839  -4.752  0.00  0.00    +0.240 C 
ATOM     14  C   LIG    1       -1.084   3.316  -4.357  0.00  0.00    +0.010 C 
ATOM     15  C   LIG    1       -2.205   4.076  -5.069  0.00  0.00    +0.030 C 
ATOM     16  C   LIG    1       -3.558   3.489  -4.662  0.00  0.00    +0.010 C 
ATOM     17  C   LIG    1       -3.612   2.012  -5.057  0.00  0.00    +0.030 C 
ATOM     18  C   LIG    1       -2.492   1.252  -4.345  0.00  0.00    +0.010 C 
ENDBRANCH  12  13
ENDBRANCH   6  11
ENDBRANCH   5   6
ENDBRANCH   1   5
BRANCH   2  19
ATOM     19  C   LIG    1       -0.927   1.718   3.671  0.00  0.00    +0.340 C 
BRANCH  19  20
ATOM     20  C   LIG    1       -0.629   0.786   4.817  0.00  0.00    -0.090 A 
ATOM     21  C   LIG    1        0.642   0.264   4.969  0.00  0.00    +0.030 A 
ATOM     22  C   LIG    1        0.918  -0.588   6.023  0.00  0.00    +0.040 A 
ATOM     23  C   LIG    1       -0.081  -0.925   6.919  0.00  0.00    -0.030 A 
ATOM     24  C   LIG    1       -1.354  -0.405   6.763  0.00  0.00    +0.040 A 
ATOM     25 CL   LIG    1        0.263  -1.999   8.239  0.00  0.00    -0.060 Cl
ATOM     26  C   LIG    1       -1.627   0.450   5.712  0.00  0.00    +0.050 A 
ENDBRANCH  19  20
BRANCH  19  27
ATOM     27  C   LIG    1       -0.445   3.105   4.013  0.00  0.00    -0.090 A 
ATOM     28  C   LIG    1        0.894   3.422   3.884  0.00  0.00    +0.020 A 
ATOM     29  C   LIG    1        1.336   4.695   4.193  0.00  0.00    +0.000 A 
ATOM     30  C   LIG    1        0.440   5.648   4.639  0.00  0.00    +0.000 A 
ATOM     31  C   LIG    1       -0.899   5.329   4.774  0.00  0.00    +0.000 A 
ATOM     32  C   LIG    1       -1.341   4.057   4.460  0.00  0.00    +0.020 A 
ENDBRANCH  19  27
ENDBRANCH   2  19
TORSDOF 7
