REMARK  Name = ZINCpk00000e9wwx.0
REMARK                            x       y       z     vdW  Elec       q    Type
REMARK                         _______ _______ _______ _____ _____    ______ ____
ROOT
ATOM      1  S   LIG    1       -1.512  -0.906   0.012  0.00  0.00    +2.700 S 
ATOM      2  O   LIG    1       -2.491  -0.040   0.570  0.00  0.00    -0.950 OA
ATOM      3  O   LIG    1       -1.212  -2.188   0.546  0.00  0.00    -0.950 OA
ENDROOT
BRANCH   1   8
ATOM      4  C   LIG    1        1.171   2.085   0.002  0.00  0.00    -0.680 A 
ATOM      5  C   LIG    1        2.377   1.411  -0.014  0.00  0.00    +0.180 A 
ATOM      6  C   LIG    1        2.396   0.028  -0.022  0.00  0.00    -0.010 A 
ATOM      7  C   LIG    1        1.209  -0.679  -0.014  0.00  0.00    +0.180 A 
ATOM      8  C   LIG    1        0.002  -0.004   0.002  0.00  0.00    -0.700 A 
ATOM      9  C   LIG    1       -0.017   1.378   0.010  0.00  0.00    +0.240 A 
BRANCH   4  10
ATOM     10  S   LIG    1        1.147   3.847   0.012  0.00  0.00    +2.490 S 
ATOM     11  O   LIG    1       -0.100   4.184  -0.580  0.00  0.00    -0.930 OA
ATOM     12  O   LIG    1        2.373   4.218  -0.603  0.00  0.00    -0.930 OA
BRANCH  10  14
ATOM     13  C   LIG    1        1.139   5.814   1.913  0.00  0.00    +0.100 C 
ATOM     14  C   LIG    1        1.158   4.290   1.771  0.00  0.00    -0.330 C 
ENDBRANCH  10  14
ENDBRANCH   4  10
ENDBRANCH   1   8
BRANCH   1  15
ATOM     15  N   LIG    1       -1.948  -1.148  -1.567  0.00  0.00    -1.110 NA
ATOM     16  H   LIG    1       -2.756  -0.739  -1.916  0.00  0.00    +0.420 HD
BRANCH  15  17
ATOM     17  C   LIG    1       -1.114  -1.980  -2.438  0.00  0.00    +0.380 C 
BRANCH  17  18
ATOM     18  C   LIG    1       -1.890  -2.344  -3.678  0.00  0.00    -0.020 A 
ATOM     19  C   LIG    1       -1.849  -1.692  -4.857  0.00  0.00    +0.150 A 
ATOM     20  N   LIG    1       -2.696  -2.351  -5.698  0.00  0.00    -0.450 N 
ATOM     21  C   LIG    1       -3.001  -2.033  -7.095  0.00  0.00    +0.280 C 
ATOM     22  C   LIG    1       -3.648  -3.258  -7.751  0.00  0.00    +0.030 C 
ATOM     23  C   LIG    1       -4.798  -3.759  -6.873  0.00  0.00    +0.030 C 
ATOM     24  C   LIG    1       -4.225  -4.364  -5.585  0.00  0.00    +0.150 C 
ATOM     25  C   LIG    1       -3.229  -3.386  -5.007  0.00  0.00    +0.210 A 
ATOM     26  N   LIG    1       -2.737  -3.378  -3.803  0.00  0.00    -0.470 NA
ENDBRANCH  17  18
ENDBRANCH  15  17
ENDBRANCH   1  15
TORSDOF 6
