REMARK  Name = ZINCpk000000n1Lh.0
REMARK                            x       y       z     vdW  Elec       q    Type
REMARK                         _______ _______ _______ _____ _____    ______ ____
ROOT
ATOM      1  C   LIG    1        4.778   0.992  -0.037  0.00  0.00    +0.220 C 
ENDROOT
BRANCH   1   2
ATOM      2  O   LIG    1        4.828   0.245   1.180  0.00  0.00    -0.540 OA
ATOM      3  H   LIG    1        4.893   0.792   1.975  0.00  0.00    +0.380 HD
ENDBRANCH   1   2
BRANCH   1   4
ATOM      4  C   LIG    1        3.555   1.911  -0.021  0.00  0.00    +0.190 C 
BRANCH   4   5
ATOM      5  O   LIG    1        2.365   1.121  -0.014  0.00  0.00    -0.300 OA
BRANCH   5   9
ATOM      6  C   LIG    1       -1.227   3.144   0.030  0.00  0.00    -0.220 A 
ATOM      7  C   LIG    1       -1.210   1.744   0.017  0.00  0.00    +0.110 A 
ATOM      8  C   LIG    1       -0.013   1.076   0.008  0.00  0.00    -0.020 A 
ATOM      9  C   LIG    1        1.183   1.786   0.000  0.00  0.00    +0.160 A 
ATOM     10  C   LIG    1        1.171   3.177   0.008  0.00  0.00    -0.090 A 
ATOM     11  C   LIG    1       -0.021   3.855   0.022  0.00  0.00    +0.120 A 
BRANCH   6  13
ATOM     12  C   LIG    1       -3.804   3.098   0.054  0.00  0.00    +0.070 C 
ATOM     13  C   LIG    1       -2.507   3.865   0.046  0.00  0.00    +0.400 C 
ATOM     14  O   LIG    1       -2.520   5.078   0.052  0.00  0.00    -0.460 OA
ENDBRANCH   6  13
ENDBRANCH   5   9
ENDBRANCH   4   5
ENDBRANCH   1   4
BRANCH   1  15
ATOM     15  C   LIG    1        6.048   1.835  -0.171  0.00  0.00    +0.320 C 
BRANCH  15  16
ATOM     16  N   LIG    1        7.209   0.952  -0.306  0.00  0.00    -0.450 N 
ATOM     17  N   LIG    1        7.894   0.521   0.833  0.00  0.00    +0.090 NA
ATOM     18  N   LIG    1        8.917  -0.253   0.781  0.00  0.00    -0.200 NA
ATOM     19  C   LIG    1        9.411  -0.713  -0.395  0.00  0.00    +0.060 A 
ATOM     20  C   LIG    1       10.525  -1.555  -0.436  0.00  0.00    +0.080 A 
ATOM     21  C   LIG    1       10.998  -2.003  -1.649  0.00  0.00    +0.070 A 
ATOM     22  C   LIG    1       10.381  -1.628  -2.835  0.00  0.00    +0.040 A 
ATOM     23  C   LIG    1        9.281  -0.798  -2.821  0.00  0.00    +0.100 A 
ATOM     24  C   LIG    1        8.787  -0.334  -1.604  0.00  0.00    -0.150 A 
ATOM     25  C   LIG    1        7.612   0.549  -1.534  0.00  0.00    +0.530 A 
ATOM     26  O   LIG    1        7.028   0.907  -2.541  0.00  0.00    -0.500 OA
ENDBRANCH  15  16
ENDBRANCH   1  15
TORSDOF 7
