REMARK  Name = ZINCpe000000Yr0H.0
REMARK                            x       y       z     vdW  Elec       q    Type
REMARK                         _______ _______ _______ _____ _____    ______ ____
ROOT
ATOM      1  C   LIG    1       -3.572   2.474   0.402  0.00  0.00    +0.020 C 
ATOM      2  C   LIG    1       -2.822   3.794   0.110  0.00  0.00    +0.100 C 
ATOM      3  C   LIG    1       -1.361   3.402   0.123  0.00  0.00    +0.520 C 
ATOM      4  N   LIG    1       -1.239   2.068   0.019  0.00  0.00    -0.550 N 
ATOM      5  O   LIG    1       -0.434   4.179   0.215  0.00  0.00    -0.500 OA
ATOM      6  C   LIG    1       -2.552   1.420  -0.089  0.00  0.00    +0.320 C 
ENDROOT
BRANCH   4   7
ATOM      7  C   LIG    1       -0.017   1.384   0.010  0.00  0.00    +0.180 A 
ATOM      8  C   LIG    1        1.176   2.094  -0.008  0.00  0.00    +0.020 A 
ATOM      9  C   LIG    1        2.383   1.421  -0.011  0.00  0.00    +0.070 A 
ATOM     10  C   LIG    1        2.406   0.036   0.002  0.00  0.00    +0.010 A 
ATOM     11  O   LIG    1        3.445  -0.851   0.002  0.00  0.00    -0.310 OA
ATOM     12  C   LIG    1        2.874  -2.112  -0.393  0.00  0.00    +0.430 C 
ATOM     13  O   LIG    1        1.501  -2.014   0.031  0.00  0.00    -0.310 OA
ATOM     14  C   LIG    1        1.211  -0.680   0.020  0.00  0.00    +0.060 A 
ATOM     15  C   LIG    1        0.002  -0.004   0.024  0.00  0.00    +0.000 A 
ENDBRANCH   4   7
BRANCH   1  18
ATOM     16  N   LIG    1       -4.612   3.226   2.516  0.00  0.00    -0.720 N 
ATOM     17  H   LIG    1       -4.989   3.975   2.027  0.00  0.00    +0.410 HD
ATOM     18  C   LIG    1       -3.844   2.322   1.876  0.00  0.00    +0.520 C 
ATOM     19  O   LIG    1       -3.373   1.387   2.487  0.00  0.00    -0.520 OA
BRANCH  16  20
ATOM     20  C   LIG    1       -4.877   3.079   3.949  0.00  0.00    +0.370 C 
BRANCH  20  26
ATOM     21  C   LIG    1       -3.947   5.901   4.835  0.00  0.00    +0.360 C 
ATOM     22  N   LIG    1       -5.336   5.436   4.799  0.00  0.00    -0.360 N 
ATOM     23  N   LIG    1       -6.464   6.186   5.157  0.00  0.00    -0.280 NA
ATOM     24  C   LIG    1       -7.523   5.434   4.993  0.00  0.00    +0.230 A 
ATOM     25  C   LIG    1       -7.103   4.185   4.522  0.00  0.00    -0.100 A 
ATOM     26  C   LIG    1       -5.754   4.212   4.417  0.00  0.00    +0.050 A 
ENDBRANCH  20  26
ENDBRANCH  16  20
ENDBRANCH   1  18
TORSDOF 4
