REMARK  Name = ZINCkj000005iLY9.0
REMARK                            x       y       z     vdW  Elec       q    Type
REMARK                         _______ _______ _______ _____ _____    ______ ____
ROOT
ATOM      1  C   LIG    1       -0.059  -0.801  -4.871  0.00  0.00    +0.240 C 
ENDROOT
BRANCH   1   6
ATOM      2  C   LIG    1        2.955   1.321  -5.702  0.00  0.00    +0.150 A 
ATOM      3  C   LIG    1        3.879   0.354  -6.069  0.00  0.00    -0.040 A 
ATOM      4  C   LIG    1        3.525  -0.981  -6.047  0.00  0.00    +0.080 A 
ATOM      5  C   LIG    1        2.253  -1.354  -5.654  0.00  0.00    -0.020 A 
ATOM      6  C   LIG    1        1.329  -0.392  -5.293  0.00  0.00    -0.110 A 
ATOM      7  C   LIG    1        1.677   0.945  -5.313  0.00  0.00    +0.030 A 
BRANCH   2   9
ATOM      8  C   LIG    1        4.633   2.950  -6.133  0.00  0.00    +0.250 C 
ATOM      9  O   LIG    1        3.301   2.635  -5.722  0.00  0.00    -0.310 OA
ENDBRANCH   2   9
ENDBRANCH   1   6
BRANCH   1  10
ATOM     10  C   LIG    1       -0.031  -1.267  -3.438  0.00  0.00    +0.500 C 
ATOM     11  N   LIG    1       -0.029  -0.365  -2.436  0.00  0.00    -0.600 N 
ATOM     12  H   LIG    1       -0.045   0.584  -2.637  0.00  0.00    +0.420 HD
ATOM     13  O   LIG    1       -0.011  -2.453  -3.186  0.00  0.00    -0.510 OA
BRANCH  11  14
ATOM     14  C   LIG    1       -0.003  -0.800  -1.097  0.00  0.00    -0.030 A 
ATOM     15  C   LIG    1        0.002  -0.004   0.002  0.00  0.00    +0.080 A 
ATOM     16  N   LIG    1        0.023  -0.812   1.093  0.00  0.00    -0.360 N 
ATOM     17  N   LIG    1        0.037  -2.139   0.645  0.00  0.00    -0.270 NA
ATOM     18  C   LIG    1        0.030  -0.374   2.491  0.00  0.00    +0.370 C 
ATOM     19  C   LIG    1       -0.018   1.503   0.010  0.00  0.00    +0.150 C 
ATOM     20  C   LIG    1        0.025  -2.134  -0.663  0.00  0.00    +0.270 A 
ENDBRANCH  11  14
ENDBRANCH   1  10
BRANCH   1  21
ATOM     21  N   LIG    1       -0.530  -1.894  -5.732  0.00  0.00    -0.620 N 
ATOM     22  H   LIG    1       -0.548  -1.582  -6.691  0.00  0.00    +0.450 HD
ATOM     23  H   LIG    1       -1.459  -2.168  -5.449  0.00  0.00    +0.440 HD
ATOM     24  H   LIG    1        0.094  -2.682  -5.646  0.00  0.00    +0.440 HD
ENDBRANCH   1  21
TORSDOF 5
