REMARK  Name = ZINCpk00000y6tWb.0
REMARK                            x       y       z     vdW  Elec       q    Type
REMARK                         _______ _______ _______ _____ _____    ______ ____
ROOT
ATOM      1  C   LIG    1       -0.396   0.188   0.502  0.00  0.00    +0.170 C 
ATOM      2  C   LIG    1        0.887  -0.226   1.257  0.00  0.00    +0.060 C 
ATOM      3  C   LIG    1        1.885   0.922   1.016  0.00  0.00    +0.160 C 
ATOM      4  N   LIG    1        1.207   1.909   0.147  0.00  0.00    -0.490 NA
ATOM      5  C   LIG    1       -0.248   1.726   0.384  0.00  0.00    +0.160 C 
ENDROOT
BRANCH   1   7
ATOM      6  C   LIG    1       -2.735  -0.337   0.460  0.00  0.00    +0.200 C 
ATOM      7  O   LIG    1       -1.562  -0.150   1.256  0.00  0.00    -0.380 OA
ENDBRANCH   1   7
BRANCH   4   8
ATOM      8  C   LIG    1        1.626   3.278   0.479  0.00  0.00    +0.230 C 
BRANCH   8   9
ATOM      9  C   LIG    1        0.984   4.247  -0.480  0.00  0.00    +0.510 C 
ATOM     10  N   LIG    1        1.131   5.574  -0.296  0.00  0.00    -0.630 N 
ATOM     11  H   LIG    1        1.649   5.905   0.454  0.00  0.00    +0.430 HD
ATOM     12  O   LIG    1        0.336   3.832  -1.417  0.00  0.00    -0.470 OA
BRANCH  10  13
ATOM     13  C   LIG    1        0.540   6.465  -1.179  0.00  0.00    +0.210 A 
ATOM     14  C   LIG    1        0.596   7.829  -1.128  0.00  0.00    -0.090 A 
ATOM     15  C   LIG    1       -0.160   8.242  -2.243  0.00  0.00    +0.040 A 
ATOM     16  N   LIG    1       -0.579   7.156  -2.830  0.00  0.00    -0.370 NA
ATOM     17  C   LIG    1       -0.431   9.661  -2.672  0.00  0.00    +0.160 C 
ATOM     18  O   LIG    1       -0.197   6.161  -2.260  0.00  0.00    +0.110 OA
ENDBRANCH  10  13
ENDBRANCH   8   9
ENDBRANCH   4   8
BRANCH   3  19
ATOM     19  C   LIG    1        3.137   0.387   0.318  0.00  0.00    +0.210 C 
BRANCH  19  20
ATOM     20  O   LIG    1        2.757  -0.324  -0.862  0.00  0.00    -0.290 OA
BRANCH  20  21
ATOM     21  C   LIG    1        3.758  -0.867  -1.604  0.00  0.00    +0.080 A 
ATOM     22  C   LIG    1        3.471  -1.579  -2.764  0.00  0.00    +0.030 A 
ATOM     23  C   LIG    1        4.525  -2.109  -3.490  0.00  0.00    +0.010 A 
ATOM     24  C   LIG    1        5.817  -1.925  -3.035  0.00  0.00    +0.220 A 
ATOM     25  N   LIG    1        6.056  -1.250  -1.928  0.00  0.00    -0.450 NA
ATOM     26  C   LIG    1        5.082  -0.725  -1.212  0.00  0.00    +0.170 A 
ENDBRANCH  20  21
ENDBRANCH  19  20
ENDBRANCH   3  19
TORSDOF 7
