REMARK  Name = ZINCrH000004mTxi.0
REMARK                            x       y       z     vdW  Elec       q    Type
REMARK                         _______ _______ _______ _____ _____    ______ ____
ROOT
ATOM      1  N   LIG    1        3.009  -0.524   2.084  0.00  0.00    -0.660 N 
ATOM      2  H   LIG    1        2.668  -0.972   2.874  0.00  0.00    +0.420 HD
ATOM      3  C   LIG    1        2.163  -0.152   1.103  0.00  0.00    +0.510 C 
ATOM      4  O   LIG    1        2.573   0.496   0.163  0.00  0.00    -0.490 OA
ENDROOT
BRANCH   1   9
ATOM      5  C   LIG    1        6.308   0.146   0.593  0.00  0.00    +0.120 A 
ATOM      6  C   LIG    1        7.095   0.251   1.730  0.00  0.00    -0.060 A 
ATOM      7  C   LIG    1        6.528   0.099   2.982  0.00  0.00    -0.010 A 
ATOM      8  C   LIG    1        5.173  -0.158   3.104  0.00  0.00    +0.060 A 
ATOM      9  C   LIG    1        4.380  -0.264   1.964  0.00  0.00    +0.160 A 
ATOM     10  C   LIG    1        4.952  -0.117   0.709  0.00  0.00    +0.030 A 
BRANCH   5  12
ATOM     11  C   LIG    1        8.272   0.558  -0.683  0.00  0.00    +0.250 C 
ATOM     12  O   LIG    1        6.868   0.296  -0.637  0.00  0.00    -0.310 OA
ENDBRANCH   5  12
BRANCH   8  13
ATOM     13  O   LIG    1        4.617  -0.308   4.337  0.00  0.00    -0.320 OA
ATOM     14  C   LIG    1        5.490  -0.187   5.461  0.00  0.00    +0.250 C 
ENDBRANCH   8  13
ENDBRANCH   1   9
BRANCH   3  15
ATOM     15  C   LIG    1        0.709  -0.541   1.173  0.00  0.00    +0.220 C 
BRANCH  15  16
ATOM     16  N   LIG    1        0.005  -0.020  -0.006  0.00  0.00    -0.520 NA
ATOM     17  C   LIG    1       -0.025   1.449   0.006  0.00  0.00    +0.190 C 
BRANCH  16  18
ATOM     18  C   LIG    1       -1.353  -0.574  -0.096  0.00  0.00    +0.230 C 
BRANCH  18  19
ATOM     19  C   LIG    1       -1.953  -0.217  -1.432  0.00  0.00    -0.050 A 
ATOM     20  C   LIG    1       -2.676   0.953  -1.574  0.00  0.00    +0.020 A 
ATOM     21  C   LIG    1       -3.222   1.283  -2.800  0.00  0.00    +0.070 A 
ATOM     22  C   LIG    1       -3.055   0.438  -3.881  0.00  0.00    -0.180 A 
ATOM     23  C   LIG    1       -2.337  -0.734  -3.738  0.00  0.00    +0.070 A 
ATOM     24  C   LIG    1       -1.786  -1.062  -2.513  0.00  0.00    +0.040 A 
BRANCH  22  25
ATOM     25  C   LIG    1       -3.656   0.795  -5.217  0.00  0.00    +0.510 C 
ATOM     26  F   LIG    1       -2.866   0.262  -6.241  0.00  0.00    -0.180 F 
ATOM     27  F   LIG    1       -3.711   2.187  -5.346  0.00  0.00    -0.180 F 
ATOM     28  F   LIG    1       -4.949   0.267  -5.302  0.00  0.00    -0.180 F 
ENDBRANCH  22  25
ENDBRANCH  18  19
ENDBRANCH  16  18
ENDBRANCH  15  16
ENDBRANCH   3  15
TORSDOF 8
