REMARK  Name = ZINCpk00001AZiLs.0
REMARK                            x       y       z     vdW  Elec       q    Type
REMARK                         _______ _______ _______ _____ _____    ______ ____
ROOT
ATOM      1  N   LIG    1       -3.826  -7.580  -0.005  0.00  0.00    -0.720 N 
ATOM      2  H   LIG    1       -4.758  -7.310   0.005  0.00  0.00    +0.400 HD
ATOM      3  C   LIG    1       -2.854  -6.646  -0.008  0.00  0.00    +0.520 C 
ATOM      4  O   LIG    1       -1.689  -6.983  -0.020  0.00  0.00    -0.510 OA
ENDROOT
BRANCH   1   9
ATOM      5  C   LIG    1       -4.460 -12.770  -1.322  0.00  0.00    +0.650 C 
ATOM      6  N   LIG    1       -3.867 -11.707  -0.743  0.00  0.00    -0.600 N 
ATOM      7  C   LIG    1       -4.232 -11.296   0.620  0.00  0.00    +0.310 C 
ATOM      8  C   LIG    1       -4.617  -9.813   0.601  0.00  0.00    +0.030 C 
ATOM      9  C   LIG    1       -3.475  -9.002  -0.015  0.00  0.00    +0.250 C 
ATOM     10  C   LIG    1       -3.243  -9.459  -1.457  0.00  0.00    +0.010 C 
ATOM     11  C   LIG    1       -2.842 -10.938  -1.462  0.00  0.00    +0.300 C 
ATOM     12  O   LIG    1       -5.305 -13.399  -0.716  0.00  0.00    -0.570 OA
BRANCH   5  13
ATOM     13  O   LIG    1       -4.115 -13.135  -2.571  0.00  0.00    -0.370 OA
BRANCH  13  15
ATOM     14  C   LIG    1       -4.275 -14.550  -4.546  0.00  0.00    +0.070 C 
ATOM     15  C   LIG    1       -4.795 -14.290  -3.131  0.00  0.00    +0.220 C 
ENDBRANCH  13  15
ENDBRANCH   5  13
ENDBRANCH   1   9
BRANCH   3  16
ATOM     16  C   LIG    1       -3.215  -5.183   0.003  0.00  0.00    +0.250 C 
BRANCH  16  17
ATOM     17  O   LIG    1       -2.021  -4.397  -0.004  0.00  0.00    -0.320 OA
BRANCH  17  18
ATOM     18  C   LIG    1       -2.170  -3.056   0.005  0.00  0.00    +0.510 C 
ATOM     19  O   LIG    1       -3.284  -2.568   0.018  0.00  0.00    -0.500 OA
BRANCH  18  20
ATOM     20  C   LIG    1       -1.028  -2.216  -0.001  0.00  0.00    -0.050 C 
ATOM     21  C   LIG    1       -1.177  -0.871   0.008  0.00  0.00    +0.210 C 
BRANCH  21  22
ATOM     22  C   LIG    1        0.002  -0.004   0.002  0.00  0.00    +0.030 A 
ATOM     23  N   LIG    1       -0.016   1.304   0.009  0.00  0.00    -0.430 NA
ATOM     24  C   LIG    1        1.154   1.890   0.001  0.00  0.00    +0.210 A 
ATOM     25  C   LIG    1        2.217   1.071  -0.013  0.00  0.00    -0.080 A 
ATOM     26  S   LIG    1        1.676  -0.552  -0.017  0.00  0.00    +0.190 S 
ENDBRANCH  21  22
ENDBRANCH  18  20
ENDBRANCH  17  18
ENDBRANCH  16  17
ENDBRANCH   3  16
TORSDOF 8
