REMARK  Name = ZINCqH0000001FoQ.0
REMARK                            x       y       z     vdW  Elec       q    Type
REMARK                         _______ _______ _______ _____ _____    ______ ____
ROOT
ATOM      1  C   LIG    1       -1.101  -2.203   0.030  0.00  0.00    +0.240 C 
ENDROOT
BRANCH   1   2
ATOM      2  C   LIG    1       -2.264  -2.914  -0.613  0.00  0.00    +0.520 C 
ATOM      3  N   LIG    1       -2.089  -4.134  -1.159  0.00  0.00    -0.720 N 
ATOM      4  H   LIG    1       -1.234  -4.585  -1.076  0.00  0.00    +0.400 HD
ATOM      5  O   LIG    1       -3.357  -2.389  -0.638  0.00  0.00    -0.530 OA
BRANCH   3   6
ATOM      6  C   LIG    1       -3.191  -4.778  -1.879  0.00  0.00    +0.240 C 
ATOM      7  C   LIG    1       -4.089  -5.515  -0.883  0.00  0.00    +0.000 C 
ATOM      8  C   LIG    1       -5.239  -6.188  -1.634  0.00  0.00    +0.010 C 
ATOM      9  C   LIG    1       -4.672  -7.187  -2.645  0.00  0.00    +0.000 C 
ATOM     10  C   LIG    1       -3.774  -6.450  -3.641  0.00  0.00    +0.020 C 
ATOM     11  C   LIG    1       -2.624  -5.777  -2.890  0.00  0.00    +0.010 C 
ENDBRANCH   3   6
ENDBRANCH   1   2
BRANCH   1  12
ATOM     12  N   LIG    1       -1.318  -0.756  -0.033  0.00  0.00    -0.710 N 
ATOM     13  H   LIG    1       -2.219  -0.403  -0.097  0.00  0.00    +0.410 HD
ATOM     14  C   LIG    1       -0.265   0.086  -0.003  0.00  0.00    +0.530 C 
ATOM     15  O   LIG    1        0.861  -0.356   0.077  0.00  0.00    -0.540 OA
BRANCH  14  16
ATOM     16  C   LIG    1       -0.489   1.574  -0.069  0.00  0.00    -0.070 C 
ATOM     17  C   LIG    1       -1.347   2.014   1.119  0.00  0.00    +0.040 C 
ATOM     18  C   LIG    1       -1.574   3.526   1.052  0.00  0.00    -0.010 C 
ATOM     19  C   LIG    1       -2.291   3.877  -0.253  0.00  0.00    +0.020 C 
ATOM     20  C   LIG    1       -1.432   3.437  -1.441  0.00  0.00    -0.010 C 
ATOM     21  C   LIG    1       -0.083   4.158  -1.389  0.00  0.00    +0.010 C 
ATOM     22  C   LIG    1        0.633   3.807  -0.084  0.00  0.00    -0.020 C 
ATOM     23  C   LIG    1       -0.225   4.247   1.103  0.00  0.00    +0.010 C 
ATOM     24  C   LIG    1       -1.205   1.926  -1.374  0.00  0.00    +0.040 C 
ATOM     25  C   LIG    1        0.860   2.295  -0.018  0.00  0.00    +0.050 C 
ENDBRANCH  14  16
ENDBRANCH   1  12
BRANCH   1  27
ATOM     26  C   LIG    1       -2.316  -2.397   2.205  0.00  0.00    +0.030 C 
ATOM     27  C   LIG    1       -0.983  -2.637   1.493  0.00  0.00    -0.010 C 
ATOM     28  C   LIG    1       -0.631  -4.125   1.556  0.00  0.00    +0.030 C 
ENDBRANCH   1  27
TORSDOF 5
