REMARK  Name = ZINCpk000000pFON.2
REMARK                            x       y       z     vdW  Elec       q    Type
REMARK                         _______ _______ _______ _____ _____    ______ ____
ROOT
ATOM      1  C   LIG    1       -0.925   2.858  -1.229  0.00  0.00    +0.520 C 
ATOM      2  N   LIG    1       -0.598   1.555  -1.121  0.00  0.00    -0.600 N 
ATOM      3  O   LIG    1       -1.671   3.224  -2.112  0.00  0.00    -0.500 OA
ENDROOT
BRANCH   2   4
ATOM      4  C   LIG    1        0.274   1.107  -0.031  0.00  0.00    +0.290 C 
ATOM      5  C   LIG    1       -0.247   1.641   1.315  0.00  0.00    +0.050 C 
ATOM      6  C   LIG    1        0.852   1.451   2.380  0.00  0.00    -0.310 C 
ATOM      7  S   LIG    1        2.428   1.502   1.453  0.00  0.00    +2.390 S 
ATOM      8  O   LIG    1        3.135   2.687   1.792  0.00  0.00    -0.930 OA
ATOM      9  O   LIG    1        3.072   0.239   1.548  0.00  0.00    -0.930 OA
ATOM     10  C   LIG    1        1.699   1.688  -0.218  0.00  0.00    -0.330 C 
ENDBRANCH   2   4
BRANCH   1  11
ATOM     11  C   LIG    1       -0.363   3.860  -0.254  0.00  0.00    +0.190 C 
BRANCH  11  17
ATOM     12  C   LIG    1        0.081   6.218   0.067  0.00  0.00    +0.130 C 
ATOM     13  C   LIG    1        0.043   7.586  -0.619  0.00  0.00    +0.030 C 
ATOM     14  C   LIG    1        1.045   7.599  -1.777  0.00  0.00    +0.010 C 
ATOM     15  C   LIG    1        0.701   6.469  -2.752  0.00  0.00    +0.030 C 
ATOM     16  C   LIG    1        0.721   5.134  -2.004  0.00  0.00    +0.160 C 
ATOM     17  N   LIG    1       -0.255   5.171  -0.907  0.00  0.00    -0.510 NA
BRANCH  12  19
ATOM     18  C   LIG    1       -0.562   7.259   2.245  0.00  0.00    +0.030 C 
ATOM     19  C   LIG    1       -0.933   6.193   1.212  0.00  0.00    +0.020 C 
ENDBRANCH  12  19
ENDBRANCH  11  17
ENDBRANCH   1  11
BRANCH   2  20
ATOM     20  C   LIG    1       -1.114   0.587  -2.091  0.00  0.00    +0.310 C 
BRANCH  20  21
ATOM     21  C   LIG    1       -2.450   0.029  -1.595  0.00  0.00    +0.130 C 
ATOM     22  C   LIG    1       -3.001  -0.991  -2.609  0.00  0.00    +0.010 C 
ATOM     23  C   LIG    1       -3.144  -2.299  -1.793  0.00  0.00    +0.000 C 
ATOM     24  C   LIG    1       -3.188  -1.770  -0.337  0.00  0.00    +0.200 C 
ATOM     25  O   LIG    1       -2.257  -0.666  -0.351  0.00  0.00    -0.370 OA
ENDBRANCH  20  21
ENDBRANCH   2  20
TORSDOF 6
