REMARK  Name = ZINCrH000004ka0d.0
REMARK                            x       y       z     vdW  Elec       q    Type
REMARK                         _______ _______ _______ _____ _____    ______ ____
ROOT
ATOM      1  C   LIG    1       -1.156   5.260  -3.522  0.00  0.00    +0.570 C 
ATOM      2  N   LIG    1       -0.424   5.422  -2.403  0.00  0.00    -0.720 N 
ATOM      3  H   LIG    1        0.539   5.311  -2.433  0.00  0.00    +0.400 HD
ATOM      4  O   LIG    1       -2.363   5.399  -3.485  0.00  0.00    -0.530 OA
ENDROOT
BRANCH   1  11
ATOM      5  C   LIG    1        1.774   5.125  -9.144  0.00  0.00    +0.220 C 
ATOM      6  N   LIG    1        1.176   3.955  -8.487  0.00  0.00    -0.500 N 
ATOM      7  C   LIG    1        0.001   3.467  -9.241  0.00  0.00    +0.230 C 
ATOM      8  C   LIG    1       -1.175   4.175  -8.530  0.00  0.00    +0.060 C 
ATOM      9  C   LIG    1       -0.625   4.423  -7.140  0.00  0.00    -0.150 A 
ATOM     10  C   LIG    1       -1.248   4.744  -5.958  0.00  0.00    +0.110 A 
ATOM     11  C   LIG    1       -0.492   4.914  -4.794  0.00  0.00    -0.150 A 
ATOM     12  C   LIG    1        0.896   4.758  -4.843  0.00  0.00    +0.060 A 
ATOM     13  C   LIG    1        1.512   4.432  -6.028  0.00  0.00    +0.010 A 
ATOM     14  C   LIG    1        0.759   4.266  -7.193  0.00  0.00    +0.120 A 
ENDBRANCH   1  11
BRANCH   2  15
ATOM     15  C   LIG    1       -1.083   5.766  -1.140  0.00  0.00    +0.310 C 
BRANCH  15  16
ATOM     16  C   LIG    1       -1.269   7.260  -1.061  0.00  0.00    -0.100 A 
ATOM     17  C   LIG    1       -0.268   8.105  -1.501  0.00  0.00    +0.010 A 
ATOM     18  C   LIG    1       -0.440   9.475  -1.433  0.00  0.00    +0.000 A 
ATOM     19  C   LIG    1       -1.610   9.999  -0.916  0.00  0.00    +0.000 A 
ATOM     20  C   LIG    1       -2.609   9.154  -0.472  0.00  0.00    +0.000 A 
ATOM     21  C   LIG    1       -2.438   7.784  -0.544  0.00  0.00    +0.020 A 
ENDBRANCH  15  16
BRANCH  15  22
ATOM     22  C   LIG    1       -0.217   5.298   0.031  0.00  0.00    +0.120 C 
BRANCH  22  23
ATOM     23  C   LIG    1       -0.132   3.793   0.023  0.00  0.00    +0.130 A 
ATOM     24  C   LIG    1        1.106   3.179   0.008  0.00  0.00    -0.040 A 
ATOM     25  C   LIG    1        1.173   1.794   0.001  0.00  0.00    +0.060 A 
ATOM     26  C   LIG    1       -0.013   1.076   0.008  0.00  0.00    -0.040 A 
ATOM     27  C   LIG    1       -1.214   1.759   0.017  0.00  0.00    +0.270 A 
ATOM     28  N   LIG    1       -1.240   3.078   0.030  0.00  0.00    -0.480 NA
ENDBRANCH  22  23
ENDBRANCH  15  22
ENDBRANCH   2  15
TORSDOF 5
