REMARK  Name = ZINCrH000004tKXz.0
REMARK                            x       y       z     vdW  Elec       q    Type
REMARK                         _______ _______ _______ _____ _____    ______ ____
ROOT
ATOM      1  O   LIG    1       -1.457   2.304  -0.058  0.00  0.00    -0.520 OA
ATOM      2  C   LIG    1       -1.161   1.157   0.202  0.00  0.00    +0.520 C 
ATOM      3  N   LIG    1        0.133   0.780   0.212  0.00  0.00    -0.710 N 
ATOM      4  H   LIG    1        0.366  -0.152   0.344  0.00  0.00    +0.400 HD
ENDROOT
BRANCH   3   5
ATOM      5  C   LIG    1        1.188   1.779   0.018  0.00  0.00    +0.190 C 
ATOM      6  C   LIG    1        1.356   2.221  -1.445  0.00  0.00    +0.030 C 
ATOM      7  C   LIG    1        2.352   1.060  -1.600  0.00  0.00    +0.020 C 
ATOM      8  C   LIG    1        2.598   1.173  -0.086  0.00  0.00    +0.050 C 
BRANCH   5   9
ATOM      9  C   LIG    1        1.094   2.926   0.991  0.00  0.00    -0.070 A 
ATOM     10  C   LIG    1        1.694   4.135   0.693  0.00  0.00    +0.010 A 
ATOM     11  C   LIG    1        1.603   5.189   1.584  0.00  0.00    +0.000 A 
ATOM     12  C   LIG    1        0.922   5.030   2.776  0.00  0.00    +0.000 A 
ATOM     13  C   LIG    1        0.327   3.819   3.076  0.00  0.00    +0.000 A 
ATOM     14  C   LIG    1        0.413   2.767   2.183  0.00  0.00    +0.010 A 
ENDBRANCH   5   9
ENDBRANCH   3   5
BRANCH   2  15
ATOM     15  C   LIG    1       -2.240   0.152   0.514  0.00  0.00    +0.040 C 
BRANCH  15  16
ATOM     16  C   LIG    1       -3.608   0.832   0.435  0.00  0.00    +0.330 C 
BRANCH  16  17
ATOM     17  N   LIG    1       -4.657  -0.144   0.738  0.00  0.00    -0.550 N 
ATOM     18  C   LIG    1       -5.215  -0.867  -0.268  0.00  0.00    +0.590 A 
ATOM     19  N   LIG    1       -6.144  -1.754  -0.080  0.00  0.00    -0.520 NA
ATOM     20  C   LIG    1       -6.638  -2.016   1.157  0.00  0.00    +0.170 A 
ATOM     21  C   LIG    1       -7.641  -2.966   1.359  0.00  0.00    +0.050 A 
ATOM     22  C   LIG    1       -8.112  -3.200   2.631  0.00  0.00    +0.100 A 
ATOM     23  C   LIG    1       -7.603  -2.501   3.719  0.00  0.00    -0.110 A 
ATOM     24  C   LIG    1       -6.612  -1.558   3.544  0.00  0.00    +0.140 A 
ATOM     25 BR   LIG    1       -8.274  -2.846   5.452  0.00  0.00    -0.030 Br
ATOM     26  C   LIG    1       -6.122  -1.307   2.265  0.00  0.00    -0.190 A 
ATOM     27  C   LIG    1       -5.066  -0.314   2.017  0.00  0.00    +0.550 A 
ATOM     28  O   LIG    1       -4.578   0.330   2.928  0.00  0.00    -0.500 OA
ENDBRANCH  16  17
ENDBRANCH  15  16
ENDBRANCH   2  15
TORSDOF 5
