REMARK  Name = ZINCrD00000fN7l2.0
REMARK                            x       y       z     vdW  Elec       q    Type
REMARK                         _______ _______ _______ _____ _____    ______ ____
ROOT
ATOM      1  O   LIG    1        0.050   2.918   2.331  0.00  0.00    -0.530 OA
ATOM      2  C   LIG    1       -0.650   2.378   1.501  0.00  0.00    +0.540 C 
ATOM      3  C   LIG    1        0.036   1.705   0.356  0.00  0.00    +0.260 C 
ATOM      4  N   LIG    1       -0.752   1.821  -0.848  0.00  0.00    -0.560 NA
ATOM      5  C   LIG    1       -1.928   0.997  -0.923  0.00  0.00    +0.200 C 
ATOM      6  C   LIG    1       -2.184   0.624  -2.385  0.00  0.00    +0.030 C 
ATOM      7  C   LIG    1       -3.393  -0.306  -2.455  0.00  0.00    +0.030 C 
ATOM      8  C   LIG    1       -4.636   0.454  -2.031  0.00  0.00    +0.080 C 
ATOM      9  C   LIG    1       -4.396   1.369  -0.864  0.00  0.00    -0.040 A 
ATOM     10  C   LIG    1       -5.526   1.981  -0.334  0.00  0.00    -0.020 A 
ATOM     11  C   LIG    1       -5.437   2.739   0.813  0.00  0.00    +0.050 A 
ATOM     12  C   LIG    1       -4.224   2.862   1.443  0.00  0.00    -0.040 A 
ATOM     13  C   LIG    1       -3.070   2.259   0.919  0.00  0.00    +0.190 A 
ATOM     14  C   LIG    1       -3.153   1.568  -0.286  0.00  0.00    -0.090 A 
ATOM     15  N   LIG    1       -1.940   2.432   1.679  0.00  0.00    -0.650 N 
ATOM     16  H   LIG    1       -2.161   2.653   2.597  0.00  0.00    +0.400 HD
ENDROOT
BRANCH   4  17
ATOM     17  C   LIG    1        0.085   1.654  -2.043  0.00  0.00    +0.340 C 
BRANCH  17  18
ATOM     18  C   LIG    1        1.104   2.763  -2.103  0.00  0.00    +0.180 A 
ATOM     19  N   LIG    1        2.329   2.713  -1.655  0.00  0.00    -0.290 NA
ATOM     20  N   LIG    1        2.916   3.836  -1.874  0.00  0.00    -0.290 NA
ATOM     21  C   LIG    1        2.089   4.657  -2.463  0.00  0.00    +0.220 A 
ATOM     22  N   LIG    1        0.916   3.999  -2.625  0.00  0.00    -0.430 N 
BRANCH  21  23
ATOM     23  C   LIG    1        2.385   6.072  -2.885  0.00  0.00    +0.030 C 
ATOM     24  C   LIG    1        3.836   6.550  -2.790  0.00  0.00    +0.060 C 
ATOM     25  C   LIG    1        2.794   7.064  -1.794  0.00  0.00    +0.040 C 
ENDBRANCH  21  23
BRANCH  22  26
ATOM     26  C   LIG    1       -0.308   4.519  -3.240  0.00  0.00    +0.180 C 
ATOM     27  C   LIG    1       -0.804   5.890  -2.776  0.00  0.00    +0.050 C 
ATOM     28  C   LIG    1       -1.553   4.623  -2.357  0.00  0.00    +0.070 C 
ENDBRANCH  22  26
ENDBRANCH  17  18
ENDBRANCH   4  17
TORSDOF 4
