REMARK  Name = ZINCrH00000tj1jF.0
REMARK                            x       y       z     vdW  Elec       q    Type
REMARK                         _______ _______ _______ _____ _____    ______ ____
ROOT
ATOM      1  C   LIG    1       -4.816   4.862  -4.154  0.00  0.00    -0.010 C 
ATOM      2  C   LIG    1       -5.246   3.418  -3.881  0.00  0.00    +0.050 C 
ATOM      3  C   LIG    1       -4.013   2.581  -3.527  0.00  0.00    +0.290 C 
ATOM      4  N   LIG    1       -3.310   3.223  -2.408  0.00  0.00    -1.000 NA
ATOM      5  C   LIG    1       -2.936   4.639  -2.528  0.00  0.00    +0.290 C 
ATOM      6  C   LIG    1       -4.176   5.452  -2.895  0.00  0.00    +0.040 C 
ENDROOT
BRANCH   1   8
ATOM      7  N   LIG    1       -5.863   6.929  -5.018  0.00  0.00    -0.610 N 
ATOM      8  C   LIG    1       -6.022   5.681  -4.535  0.00  0.00    +0.520 C 
ATOM      9  O   LIG    1       -7.135   5.217  -4.408  0.00  0.00    -0.530 OA
ATOM     10  C   LIG    1       -7.037   7.759  -5.303  0.00  0.00    +0.280 C 
BRANCH   7  15
ATOM     11  C   LIG    1       -1.340  10.108  -6.522  0.00  0.00    +0.020 C 
ATOM     12  C   LIG    1       -2.745   9.557  -6.271  0.00  0.00    -0.020 C 
ATOM     13  C   LIG    1       -2.911   8.227  -7.009  0.00  0.00    +0.020 C 
ATOM     14  C   LIG    1       -4.316   7.677  -6.759  0.00  0.00    +0.010 C 
ATOM     15  C   LIG    1       -4.518   7.456  -5.258  0.00  0.00    +0.230 C 
ATOM     16  C   LIG    1       -4.352   8.787  -4.520  0.00  0.00    +0.010 C 
ATOM     17  C   LIG    1       -2.947   9.337  -4.771  0.00  0.00    +0.030 C 
ENDBRANCH   7  15
ENDBRANCH   1   8
BRANCH   4  18
ATOM     18  S   LIG    1       -2.952   2.369  -1.035  0.00  0.00    +2.690 S 
ATOM     19  O   LIG    1       -2.809   3.326   0.006  0.00  0.00    -0.950 OA
ATOM     20  O   LIG    1       -3.878   1.293  -0.979  0.00  0.00    -0.950 OA
BRANCH  18  21
ATOM     21  C   LIG    1       -1.363   1.647  -1.269  0.00  0.00    -0.680 A 
ATOM     22  C   LIG    1       -1.251   0.392  -1.839  0.00  0.00    +0.140 A 
ATOM     23  C   LIG    1       -0.005  -0.178  -2.018  0.00  0.00    +0.020 A 
ATOM     24  C   LIG    1        1.132   0.513  -1.638  0.00  0.00    +0.020 A 
ATOM     25  C   LIG    1        1.020   1.771  -1.073  0.00  0.00    +0.020 A 
ATOM     26 CL   LIG    1        2.698  -0.200  -1.869  0.00  0.00    -0.050 Cl
ATOM     27  C   LIG    1       -0.227   2.337  -0.889  0.00  0.00    +0.140 A 
ENDBRANCH  18  21
ENDBRANCH   4  18
TORSDOF 4
