REMARK  Name = ZINCrD0000074wUE.0
REMARK                            x       y       z     vdW  Elec       q    Type
REMARK                         _______ _______ _______ _____ _____    ______ ____
ROOT
ATOM      1  N   LIG    1        2.955  -1.515  -1.698  0.00  0.00    -0.650 N 
ATOM      2  H   LIG    1        3.489  -1.869  -0.970  0.00  0.00    +0.410 HD
ATOM      3  C   LIG    1        1.791  -0.888  -1.438  0.00  0.00    +0.520 C 
ATOM      4  O   LIG    1        1.124  -0.445  -2.349  0.00  0.00    -0.480 OA
ENDROOT
BRANCH   3   5
ATOM      5  C   LIG    1        1.319  -0.736  -0.015  0.00  0.00    +0.070 C 
ATOM      6  C   LIG    1        2.354   0.057   0.784  0.00  0.00    +0.100 C 
ATOM      7  C   LIG    1        2.337   1.500   0.355  0.00  0.00    +0.520 C 
ATOM      8  N   LIG    1        1.185   2.099   0.002  0.00  0.00    -0.660 N 
ATOM      9  H   LIG    1        1.189   3.033  -0.260  0.00  0.00    +0.420 HD
ATOM     10  C   LIG    1       -0.017   1.385   0.010  0.00  0.00    +0.180 A 
ATOM     11  C   LIG    1       -1.230   2.060   0.019  0.00  0.00    -0.020 A 
ATOM     12  C   LIG    1       -2.414   1.348   0.032  0.00  0.00    +0.050 A 
ATOM     13  C   LIG    1       -2.391  -0.035   0.024  0.00  0.00    -0.010 A 
ATOM     14  C   LIG    1       -1.184  -0.710   0.009  0.00  0.00    +0.060 A 
ATOM     15  O   LIG    1        3.373   2.129   0.328  0.00  0.00    -0.520 OA
ATOM     16  C   LIG    1        0.002  -0.004   0.002  0.00  0.00    -0.110 A 
ENDBRANCH   3   5
BRANCH   1  21
ATOM     17  C   LIG    1        3.186  -1.257  -6.677  0.00  0.00    +0.160 C 
ATOM     18  C   LIG    1        3.524  -1.556  -5.239  0.00  0.00    +0.100 A 
ATOM     19  N   LIG    1        4.593  -2.184  -4.819  0.00  0.00    -0.280 NA
ATOM     20  N   LIG    1        4.540  -2.263  -3.422  0.00  0.00    -0.340 N 
ATOM     21  C   LIG    1        3.392  -1.656  -3.015  0.00  0.00    +0.310 A 
ATOM     22  C   LIG    1        2.746  -1.216  -4.129  0.00  0.00    -0.080 A 
BRANCH  20  23
ATOM     23  C   LIG    1        5.498  -2.861  -2.591  0.00  0.00    +0.150 A 
ATOM     24  C   LIG    1        5.774  -2.316  -1.344  0.00  0.00    +0.010 A 
ATOM     25  C   LIG    1        6.715  -2.910  -0.525  0.00  0.00    +0.030 A 
ATOM     26  C   LIG    1        7.389  -4.042  -0.951  0.00  0.00    +0.100 A 
ATOM     27  C   LIG    1        7.119  -4.584  -2.196  0.00  0.00    +0.020 A 
ATOM     28  F   LIG    1        8.312  -4.618  -0.151  0.00  0.00    -0.130 F 
ATOM     29  C   LIG    1        6.175  -3.996  -3.016  0.00  0.00    +0.070 A 
ENDBRANCH  20  23
ENDBRANCH   1  21
TORSDOF 3
