REMARK  Name = ZINCqH0000005bZm.0
REMARK                            x       y       z     vdW  Elec       q    Type
REMARK                         _______ _______ _______ _____ _____    ______ ____
ROOT
ATOM      1  C   LIG    1        6.028   3.573   0.033  0.00  0.00    -0.260 A 
ATOM      2  C   LIG    1        5.293   3.493   1.217  0.00  0.00    +0.170 A 
ATOM      3  C   LIG    1        4.111   2.764   1.232  0.00  0.00    -0.070 A 
ATOM      4  C   LIG    1        3.683   2.120   0.085  0.00  0.00    +0.230 A 
ATOM      5  N   LIG    1        4.404   2.200  -1.071  0.00  0.00    -0.600 N 
ATOM      6  H   LIG    1        4.086   1.745  -1.865  0.00  0.00    +0.420 HD
ATOM      7  C   LIG    1        5.552   2.903  -1.123  0.00  0.00    +0.540 A 
ATOM      8  O   LIG    1        6.182   2.963  -2.164  0.00  0.00    -0.530 OA
ENDROOT
BRANCH   4   9
ATOM      9  C   LIG    1        2.429   1.343   0.110  0.00  0.00    -0.080 A 
ATOM     10  C   LIG    1        1.984   0.693  -1.044  0.00  0.00    +0.020 A 
ATOM     11  C   LIG    1        0.811  -0.033  -1.013  0.00  0.00    +0.020 A 
ATOM     12  C   LIG    1        0.076  -0.117   0.157  0.00  0.00    +0.030 A 
ATOM     13  C   LIG    1        0.511   0.524   1.303  0.00  0.00    +0.010 A 
ATOM     14  C   LIG    1        1.682   1.253   1.287  0.00  0.00    +0.060 A 
ENDBRANCH   4   9
BRANCH   1  17
ATOM     15  C   LIG    1        5.955   6.384  -0.124  0.00  0.00    +0.280 C 
ATOM     16  N   LIG    1        7.241   5.683  -0.140  0.00  0.00    -0.610 N 
ATOM     17  C   LIG    1        7.279   4.341  -0.016  0.00  0.00    +0.590 C 
ATOM     18  O   LIG    1        8.349   3.767   0.055  0.00  0.00    -0.520 OA
BRANCH  16  19
ATOM     19  C   LIG    1        8.486   6.440  -0.290  0.00  0.00    +0.290 C 
BRANCH  19  20
ATOM     20  C   LIG    1        8.828   6.569  -1.776  0.00  0.00    +0.000 C 
BRANCH  20  21
ATOM     21  C   LIG    1       10.129   7.359  -1.933  0.00  0.00    +0.070 C 
BRANCH  21  22
ATOM     22  C   LIG    1       10.466   7.486  -3.397  0.00  0.00    -0.080 A 
ATOM     23  C   LIG    1       11.251   6.529  -4.011  0.00  0.00    +0.000 A 
ATOM     24  C   LIG    1       11.557   6.642  -5.354  0.00  0.00    +0.000 A 
ATOM     25  C   LIG    1       11.085   7.719  -6.081  0.00  0.00    -0.010 A 
ATOM     26  C   LIG    1       10.304   8.680  -5.466  0.00  0.00    +0.000 A 
ATOM     27  C   LIG    1        9.994   8.563  -4.124  0.00  0.00    +0.000 A 
ENDBRANCH  21  22
ENDBRANCH  20  21
ENDBRANCH  19  20
ENDBRANCH  16  19
ENDBRANCH   1  17
TORSDOF 6
