REMARK  Name = ZINCrD000000CxtQ.0
REMARK                            x       y       z     vdW  Elec       q    Type
REMARK                         _______ _______ _______ _____ _____    ______ ____
ROOT
ATOM      1  O   LIG    1        0.837   2.526  -0.105  0.00  0.00    -0.520 OA
ATOM      2  C   LIG    1       -0.109   1.938   0.383  0.00  0.00    +0.600 C 
ATOM      3  N   LIG    1       -0.002   0.631   0.696  0.00  0.00    -0.610 N 
ATOM      4  C   LIG    1       -1.098  -0.067   1.382  0.00  0.00    +0.250 C 
ATOM      5  C   LIG    1       -0.548  -0.744   2.636  0.00  0.00    +0.030 C 
ATOM      6  C   LIG    1        0.629  -1.644   2.253  0.00  0.00    +0.000 C 
ATOM      7  C   LIG    1        1.741  -0.796   1.633  0.00  0.00    +0.040 C 
ATOM      8  C   LIG    1        1.216  -0.120   0.363  0.00  0.00    +0.290 C 
ENDROOT
BRANCH   7   9
ATOM      9  C   LIG    1        2.913  -1.678   1.286  0.00  0.00    -0.080 A 
ATOM     10  C   LIG    1        4.022  -1.710   2.111  0.00  0.00    +0.010 A 
ATOM     11  C   LIG    1        5.095  -2.523   1.795  0.00  0.00    +0.000 A 
ATOM     12  C   LIG    1        5.062  -3.296   0.649  0.00  0.00    +0.000 A 
ATOM     13  C   LIG    1        3.955  -3.260  -0.178  0.00  0.00    +0.000 A 
ATOM     14  C   LIG    1        2.881  -2.451   0.141  0.00  0.00    +0.000 A 
ENDBRANCH   7   9
BRANCH   2  15
ATOM     15  C   LIG    1       -1.374   2.652   0.627  0.00  0.00    -0.280 A 
ATOM     16  C   LIG    1       -2.647   2.124   0.562  0.00  0.00    +0.290 A 
ATOM     17  N   LIG    1       -3.515   3.104   0.855  0.00  0.00    -0.460 N 
ATOM     18  H   LIG    1       -4.480   3.005   0.885  0.00  0.00    +0.450 HD
ATOM     19  N   LIG    1       -2.819   4.289   1.107  0.00  0.00    -0.280 NA
ATOM     20  C   LIG    1       -1.531   4.066   0.982  0.00  0.00    +0.170 A 
BRANCH  20  21
ATOM     21  C   LIG    1       -0.442   5.055   1.163  0.00  0.00    -0.020 A 
ATOM     22  C   LIG    1        0.775   4.663   1.717  0.00  0.00    +0.060 A 
ATOM     23  C   LIG    1        1.787   5.587   1.879  0.00  0.00    +0.010 A 
ATOM     24  C   LIG    1        1.592   6.904   1.502  0.00  0.00    +0.010 A 
ATOM     25  C   LIG    1        0.384   7.300   0.956  0.00  0.00    +0.000 A 
ATOM     26  C   LIG    1       -0.633   6.383   0.785  0.00  0.00    +0.040 A 
ENDBRANCH  20  21
ENDBRANCH   2  15
BRANCH   6  27
ATOM     27  C   LIG    1        0.161  -2.691   1.240  0.00  0.00    +0.180 C 
BRANCH  27  28
ATOM     28  O   LIG    1       -0.851  -3.508   1.831  0.00  0.00    -0.570 OA
ATOM     29  H   LIG    1       -1.194  -4.195   1.244  0.00  0.00    +0.380 HD
ENDBRANCH  27  28
ENDBRANCH   6  27
TORSDOF 5
