REMARK  Name = ZINCpe00000RaEKZ.0
REMARK                            x       y       z     vdW  Elec       q    Type
REMARK                         _______ _______ _______ _____ _____    ______ ____
ROOT
ATOM      1  C   LIG    1       -1.340   4.952   3.998  0.00  0.00    +0.150 C 
ATOM      2  C   LIG    1       -0.278   5.870   4.631  0.00  0.00    +0.280 C 
ATOM      3  N   LIG    1       -1.030   6.987   4.021  0.00  0.00    -0.620 N 
ATOM      4  C   LIG    1       -0.712   8.239   3.635  0.00  0.00    +0.600 C 
ATOM      5  O   LIG    1       -1.561   8.958   3.146  0.00  0.00    -0.520 OA
ATOM      6  C   LIG    1       -2.266   6.182   4.002  0.00  0.00    +0.310 C 
ENDROOT
BRANCH   4   7
ATOM      7  C   LIG    1        0.671   8.738   3.807  0.00  0.00    +0.070 A 
ATOM      8  C   LIG    1        0.994  10.031   3.400  0.00  0.00    +0.080 A 
ATOM      9  C   LIG    1        2.291  10.488   3.572  0.00  0.00    +0.050 A 
ATOM     10  C   LIG    1        3.225   9.629   4.135  0.00  0.00    +0.080 A 
ATOM     11  C   LIG    1        2.834   8.350   4.512  0.00  0.00    +0.250 A 
ATOM     12  F   LIG    1        4.502  10.033   4.316  0.00  0.00    -0.120 F 
ATOM     13  N   LIG    1        1.594   7.947   4.341  0.00  0.00    -0.430 NA
ENDBRANCH   4   7
BRANCH   1  19
ATOM     14  C   LIG    1       -0.902   2.703   4.783  0.00  0.00    +0.250 C 
ATOM     15  C   LIG    1       -1.440   1.581   5.675  0.00  0.00    +0.250 C 
ATOM     16  O   LIG    1       -1.554   2.059   7.018  0.00  0.00    -0.370 OA
ATOM     17  C   LIG    1       -2.411   3.196   7.154  0.00  0.00    +0.240 C 
ATOM     18  C   LIG    1       -1.883   4.334   6.277  0.00  0.00    +0.170 C 
ATOM     19  N   LIG    1       -1.790   3.870   4.885  0.00  0.00    -0.520 NA
BRANCH  14  24
ATOM     20  C   LIG    1        0.629   1.063   0.306  0.00  0.00    +0.200 C 
ATOM     21  C   LIG    1       -0.221   1.536   1.457  0.00  0.00    +0.170 A 
ATOM     22  N   LIG    1       -1.512   1.686   1.448  0.00  0.00    -0.380 NA
ATOM     23  O   LIG    1       -1.896   2.079   2.530  0.00  0.00    +0.100 OA
ATOM     24  C   LIG    1       -0.855   2.229   3.353  0.00  0.00    +0.180 A 
ATOM     25  N   LIG    1        0.217   1.887   2.679  0.00  0.00    -0.470 NA
ENDBRANCH  14  24
ENDBRANCH   1  19
TORSDOF 3
