REMARK  Name = ZINCpe00000yy8fA.0
REMARK                            x       y       z     vdW  Elec       q    Type
REMARK                         _______ _______ _______ _____ _____    ______ ____
ROOT
ATOM      1  C   LIG    1       -0.789   0.590   2.349  0.00  0.00    +0.530 C 
ATOM      2  N   LIG    1        0.377   0.117   2.831  0.00  0.00    -0.610 N 
ATOM      3  C   LIG    1        1.667   0.651   2.373  0.00  0.00    +0.330 C 
ATOM      4  C   LIG    1        2.619  -0.489   2.139  0.00  0.00    -0.040 C 
ATOM      5  C   LIG    1        2.379  -1.720   2.521  0.00  0.00    -0.060 C 
ATOM      6  C   LIG    1        1.128  -2.161   3.221  0.00  0.00    +0.070 C 
ATOM      7  C   LIG    1        0.409  -0.954   3.842  0.00  0.00    +0.290 C 
ATOM      8  O   LIG    1       -1.840   0.196   2.808  0.00  0.00    -0.530 OA
ENDROOT
BRANCH   1  11
ATOM      9  N   LIG    1       -2.381   2.540  -0.297  0.00  0.00    -0.610 N 
ATOM     10  C   LIG    1       -2.158   2.324   1.137  0.00  0.00    +0.300 C 
ATOM     11  C   LIG    1       -0.787   1.610   1.240  0.00  0.00    -0.010 C 
ATOM     12  C   LIG    1       -0.689   0.924  -0.142  0.00  0.00    +0.080 C 
ATOM     13  C   LIG    1       -1.573   1.763  -1.040  0.00  0.00    +0.520 C 
ATOM     14  O   LIG    1       -1.556   1.737  -2.252  0.00  0.00    -0.520 OA
BRANCH   9  18
ATOM     15  C   LIG    1       -3.501   4.274  -4.063  0.00  0.00    +0.170 C 
ATOM     16  N   LIG    1       -3.906   4.322  -2.652  0.00  0.00    -0.480 NA
ATOM     17  C   LIG    1       -2.739   4.547  -1.772  0.00  0.00    +0.160 C 
ATOM     18  C   LIG    1       -3.358   3.482  -0.850  0.00  0.00    +0.250 C 
ATOM     19  C   LIG    1       -4.084   2.958  -2.102  0.00  0.00    +0.170 C 
ENDBRANCH   9  18
ENDBRANCH   1  11
BRANCH   5  20
ATOM     20  C   LIG    1        3.410  -2.741   2.242  0.00  0.00    -0.110 A 
ATOM     21  C   LIG    1        3.728  -3.091   0.925  0.00  0.00    +0.070 A 
ATOM     22  C   LIG    1        4.704  -4.050   0.718  0.00  0.00    -0.030 A 
ATOM     23  C   LIG    1        5.321  -4.635   1.809  0.00  0.00    +0.260 A 
ATOM     24  N   LIG    1        4.997  -4.289   3.041  0.00  0.00    -0.480 NA
ATOM     25  C   LIG    1        4.079  -3.378   3.288  0.00  0.00    +0.270 A 
ENDBRANCH   5  20
TORSDOF 3
