REMARK  Name = ZINCqH0000001Lrx.0
REMARK                            x       y       z     vdW  Elec       q    Type
REMARK                         _______ _______ _______ _____ _____    ______ ____
ROOT
ATOM      1  C   LIG    1        5.544   4.415  -0.133  0.00  0.00    +0.300 A 
ATOM      2  N   LIG    1        4.633   5.337  -0.129  0.00  0.00    -0.330 NA
ATOM      3  N   LIG    1        5.093   6.631  -0.239  0.00  0.00    -0.260 NA
ATOM      4  C   LIG    1        6.380   6.761  -0.332  0.00  0.00    -0.000 A 
ATOM      5  S   LIG    1        7.128   5.169  -0.276  0.00  0.00    +0.100 S 
ENDROOT
BRANCH   1   6
ATOM      6  N   LIG    1        5.308   3.049  -0.033  0.00  0.00    -0.620 N 
ATOM      7  H   LIG    1        6.053   2.432   0.042  0.00  0.00    +0.430 HD
BRANCH   6  11
ATOM      8  C   LIG    1        1.403   1.603  -0.057  0.00  0.00    -0.090 A 
ATOM      9  C   LIG    1        2.387   0.919   0.633  0.00  0.00    +0.040 A 
ATOM     10  C   LIG    1        3.684   1.393   0.638  0.00  0.00    -0.010 A 
ATOM     11  C   LIG    1        3.998   2.564  -0.041  0.00  0.00    +0.150 A 
ATOM     12  C   LIG    1        3.005   3.251  -0.728  0.00  0.00    +0.020 A 
ATOM     13  C   LIG    1        1.711   2.769  -0.734  0.00  0.00    +0.040 A 
BRANCH   8  15
ATOM     14  C   LIG    1       -0.537   1.009   1.370  0.00  0.00    +0.030 C 
ATOM     15  C   LIG    1       -0.011   1.080  -0.065  0.00  0.00    +0.020 C 
ATOM     16  C   LIG    1       -0.033  -0.318  -0.686  0.00  0.00    +0.040 C 
ENDBRANCH   8  15
ENDBRANCH   6  11
ENDBRANCH   1   6
BRANCH   4  17
ATOM     17  S   LIG    1        7.243   8.290  -0.482  0.00  0.00    +0.100 S 
BRANCH  17  18
ATOM     18  C   LIG    1        5.906   9.516  -0.469  0.00  0.00    +0.110 C 
BRANCH  18  19
ATOM     19  C   LIG    1        6.492  10.899  -0.592  0.00  0.00    +0.540 C 
ATOM     20  N   LIG    1        5.681  11.976  -0.605  0.00  0.00    -0.720 N 
ATOM     21  H   LIG    1        4.720  11.860  -0.535  0.00  0.00    +0.410 HD
ATOM     22  O   LIG    1        7.693  11.044  -0.680  0.00  0.00    -0.520 OA
BRANCH  20  23
ATOM     23  C   LIG    1        6.250  13.320  -0.725  0.00  0.00    +0.270 C 
BRANCH  23  24
ATOM     24  C   LIG    1        5.122  14.354  -0.714  0.00  0.00    +0.160 C 
ATOM     25  C   LIG    1        5.702  15.764  -0.961  0.00  0.00    +0.020 C 
ATOM     26  C   LIG    1        4.859  16.639   0.009  0.00  0.00    +0.010 C 
ATOM     27  C   LIG    1        4.642  15.653   1.184  0.00  0.00    +0.200 C 
ATOM     28  O   LIG    1        4.484  14.365   0.568  0.00  0.00    -0.380 OA
ENDBRANCH  23  24
ENDBRANCH  20  23
ENDBRANCH  18  19
ENDBRANCH  17  18
ENDBRANCH   4  17
TORSDOF 8
