REMARK  Name = ZINCpe000000YmCQ.0
REMARK                            x       y       z     vdW  Elec       q    Type
REMARK                         _______ _______ _______ _____ _____    ______ ____
ROOT
ATOM      1  C   LIG    1        4.099  -1.941  -0.047  0.00  0.00    +0.620 C 
ATOM      2  N   LIG    1        5.420  -2.210  -0.061  0.00  0.00    -0.640 N 
ATOM      3  C   LIG    1        6.661  -1.416  -0.068  0.00  0.00    +0.260 C 
ATOM      4  C   LIG    1        7.339  -2.598  -0.749  0.00  0.00    -0.110 C 
ATOM      5  C   LIG    1        8.822  -2.901  -0.557  0.00  0.00    +0.040 C 
ATOM      6  C   LIG    1        8.780  -3.544  -1.956  0.00  0.00    +0.030 C 
ATOM      7  C   LIG    1        7.569  -2.641  -2.257  0.00  0.00    +0.040 C 
ATOM      8  C   LIG    1        6.252  -3.425  -0.068  0.00  0.00    +0.260 C 
ATOM      9  O   LIG    1        3.293  -2.853  -0.044  0.00  0.00    -0.490 OA
ENDROOT
BRANCH   1  15
ATOM     10  C   LIG    1       -1.300   2.061   0.019  0.00  0.00    +0.330 C 
ATOM     11  N   LIG    1       -0.016   1.355   0.009  0.00  0.00    -0.550 N 
ATOM     12  C   LIG    1        0.002  -0.004   0.002  0.00  0.00    +0.590 A 
ATOM     13  N   LIG    1        1.098  -0.702  -0.012  0.00  0.00    -0.480 NA
ATOM     14  C   LIG    1        2.314  -0.113  -0.021  0.00  0.00    +0.100 A 
ATOM     15  C   LIG    1        3.635  -0.553  -0.035  0.00  0.00    -0.020 A 
ATOM     16  N   LIG    1        4.412   0.576  -0.036  0.00  0.00    -0.340 N 
ATOM     17  H   LIG    1        5.382   0.581  -0.045  0.00  0.00    +0.450 HD
ATOM     18  N   LIG    1        3.673   1.628  -0.024  0.00  0.00    -0.180 NA
ATOM     19  C   LIG    1        2.399   1.310  -0.014  0.00  0.00    -0.070 A 
ATOM     20  C   LIG    1        1.136   2.065   0.002  0.00  0.00    +0.590 A 
ATOM     21  O   LIG    1        1.128   3.282   0.009  0.00  0.00    -0.490 OA
ENDBRANCH   1  15
BRANCH   8  22
ATOM     22  C   LIG    1        5.691  -4.544  -0.949  0.00  0.00    +0.170 C 
ATOM     23  C   LIG    1        4.563  -5.285  -0.200  0.00  0.00    +0.030 C 
ATOM     24  C   LIG    1        4.819  -6.765  -0.602  0.00  0.00    +0.000 C 
ATOM     25  C   LIG    1        6.365  -6.781  -0.701  0.00  0.00    +0.200 C 
ATOM     26  O   LIG    1        6.721  -5.497  -1.238  0.00  0.00    -0.370 OA
ENDBRANCH   8  22
TORSDOF 2
