REMARK  Name = ZINCqH00000512X9.0
REMARK                            x       y       z     vdW  Elec       q    Type
REMARK                         _______ _______ _______ _____ _____    ______ ____
ROOT
ATOM      1  C   LIG    1       -0.551   3.522   2.968  0.00  0.00    +0.570 A 
ATOM      2  N   LIG    1       -0.033   2.307   3.063  0.00  0.00    -0.570 NA
ATOM      3  C   LIG    1        0.265   1.613   1.974  0.00  0.00    +0.250 A 
ATOM      4  C   LIG    1        0.032   2.184   0.739  0.00  0.00    -0.280 A 
ATOM      5  C   LIG    1        0.375   1.427  -0.526  0.00  0.00    +0.290 C 
ATOM      6  C   LIG    1        1.912   1.557  -0.696  0.00  0.00    +0.050 C 
ATOM      7  C   LIG    1        2.487   0.446   0.208  0.00  0.00    +0.050 C 
ATOM      8  C   LIG    1        1.258  -0.316   0.738  0.00  0.00    +0.260 C 
ATOM      9  N   LIG    1        0.175  -0.014  -0.228  0.00  0.00    -0.620 N 
ATOM     10  C   LIG    1       -0.765  -0.847  -0.718  0.00  0.00    +0.610 C 
ATOM     11  O   LIG    1       -0.715  -2.036  -0.466  0.00  0.00    -0.510 OA
ATOM     12  C   LIG    1       -0.513   3.453   0.668  0.00  0.00    +0.370 A 
ATOM     13  C   LIG    1        0.843   0.229   2.104  0.00  0.00    +0.120 C 
ATOM     14  N   LIG    1       -0.791   4.091   1.796  0.00  0.00    -0.570 NA
ENDROOT
BRANCH  10  15
ATOM     15  C   LIG    1       -1.850  -0.318  -1.557  0.00  0.00    +0.030 A 
ATOM     16  C   LIG    1       -2.748  -1.068  -2.249  0.00  0.00    +0.070 A 
ATOM     17  C   LIG    1       -3.621  -0.181  -2.924  0.00  0.00    -0.100 A 
ATOM     18  C   LIG    1       -4.720  -0.374  -3.772  0.00  0.00    +0.030 A 
ATOM     19  C   LIG    1       -5.385   0.717  -4.285  0.00  0.00    -0.060 A 
ATOM     20  C   LIG    1       -4.973   2.006  -3.968  0.00  0.00    +0.080 A 
ATOM     21  C   LIG    1       -3.894   2.213  -3.136  0.00  0.00    +0.030 A 
ATOM     22 CL   LIG    1       -6.747   0.482  -5.335  0.00  0.00    -0.050 Cl
ATOM     23 CL   LIG    1       -5.242  -1.981  -4.173  0.00  0.00    -0.040 Cl
ATOM     24  C   LIG    1       -3.207   1.127  -2.605  0.00  0.00    +0.130 A 
ATOM     25  N   LIG    1       -2.125   1.021  -1.762  0.00  0.00    -0.580 N 
ATOM     26  H   LIG    1       -1.634   1.763  -1.377  0.00  0.00    +0.420 HD
ENDBRANCH  10  15
BRANCH   1  27
ATOM     27  N   LIG    1       -0.849   4.219   4.127  0.00  0.00    -0.820 N 
ATOM     28  H   LIG    1       -1.228   5.110   4.073  0.00  0.00    +0.420 HD
ATOM     29  H   LIG    1       -0.677   3.816   4.992  0.00  0.00    +0.420 HD
ENDBRANCH   1  27
TORSDOF 2
