REMARK  Name = ZINCrD000000AkYK.0
REMARK                            x       y       z     vdW  Elec       q    Type
REMARK                         _______ _______ _______ _____ _____    ______ ____
ROOT
ATOM      1  N   LIG    1        3.417   2.295  -0.312  0.00  0.00    -0.570 N 
ATOM      2  C   LIG    1        3.929   3.072   0.651  0.00  0.00    +0.710 C 
ATOM      3  N   LIG    1        4.799   3.983   0.169  0.00  0.00    -0.710 N 
ATOM      4  H   LIG    1        5.289   4.647   0.678  0.00  0.00    +0.440 HD
ATOM      5  C   LIG    1        4.855   3.767  -1.277  0.00  0.00    +0.170 C 
ATOM      6  C   LIG    1        4.428   5.023  -2.047  0.00  0.00    +0.090 C 
ATOM      7  C   LIG    1        5.787   5.684  -2.371  0.00  0.00    +0.100 C 
ATOM      8  C   LIG    1        6.790   4.549  -2.375  0.00  0.00    -0.070 A 
ATOM      9  C   LIG    1        8.073   4.488  -2.891  0.00  0.00    +0.020 A 
ATOM     10  C   LIG    1        8.817   3.330  -2.775  0.00  0.00    +0.030 A 
ATOM     11  C   LIG    1        8.278   2.226  -2.142  0.00  0.00    +0.010 A 
ATOM     12  C   LIG    1        6.998   2.283  -1.626  0.00  0.00    +0.040 A 
ATOM     13  C   LIG    1        6.249   3.443  -1.740  0.00  0.00    -0.110 A 
ATOM     14  O   LIG    1        3.642   2.969   1.828  0.00  0.00    -0.530 OA
ATOM     15  C   LIG    1        3.910   2.620  -1.527  0.00  0.00    +0.540 C 
ATOM     16  O   LIG    1        3.646   2.102  -2.591  0.00  0.00    -0.450 OA
ENDROOT
BRANCH   1  17
ATOM     17  C   LIG    1        2.448   1.222  -0.076  0.00  0.00    +0.370 C 
BRANCH  17  19
ATOM     18  O   LIG    1        0.880   2.953  -0.417  0.00  0.00    -0.500 OA
ATOM     19  C   LIG    1        1.050   1.777  -0.175  0.00  0.00    +0.500 C 
ATOM     20  N   LIG    1       -0.011   0.966   0.007  0.00  0.00    -0.670 N 
ATOM     21  H   LIG    1        0.122   0.012   0.124  0.00  0.00    +0.420 HD
BRANCH  20  22
ATOM     22  C   LIG    1       -1.305   1.499   0.022  0.00  0.00    +0.170 A 
ATOM     23  C   LIG    1       -1.528   2.770   0.536  0.00  0.00    +0.050 A 
ATOM     24  C   LIG    1       -2.804   3.297   0.544  0.00  0.00    +0.070 A 
ATOM     25  C   LIG    1       -3.864   2.556   0.051  0.00  0.00    -0.050 A 
ATOM     26  C   LIG    1       -3.646   1.286  -0.457  0.00  0.00    -0.010 A 
ATOM     27 CL   LIG    1       -4.977   0.358  -1.074  0.00  0.00    -0.040 Cl
ATOM     28 CL   LIG    1       -5.468   3.219   0.069  0.00  0.00    -0.040 Cl
ATOM     29  C   LIG    1       -2.369   0.756  -0.472  0.00  0.00    +0.020 A 
ENDBRANCH  20  22
ENDBRANCH  17  19
ENDBRANCH   1  17
TORSDOF 3
