REMARK  Name = ZINCpk000000nMh2.0
REMARK                            x       y       z     vdW  Elec       q    Type
REMARK                         _______ _______ _______ _____ _____    ______ ____
ROOT
ATOM      1  N   LIG    1        4.947   2.057  -0.934  0.00  0.00    -0.700 N 
ATOM      2  H   LIG    1        4.809   1.119  -1.141  0.00  0.00    +0.420 HD
ATOM      3  C   LIG    1        3.945   2.940  -1.113  0.00  0.00    +0.570 C 
ATOM      4  O   LIG    1        4.143   4.128  -0.939  0.00  0.00    -0.550 OA
ENDROOT
BRANCH   3   5
ATOM      5  C   LIG    1        2.612   2.469  -1.517  0.00  0.00    -0.260 A 
ATOM      6  C   LIG    1        1.543   3.358  -1.609  0.00  0.00    +0.250 A 
ATOM      7  C   LIG    1        0.294   2.874  -1.997  0.00  0.00    -0.300 A 
ATOM      8  C   LIG    1        0.131   1.556  -2.278  0.00  0.00    +0.420 A 
ATOM      9  N   LIG    1        1.165   0.686  -2.190  0.00  0.00    -0.590 N 
ATOM     10  H   LIG    1        1.020  -0.251  -2.396  0.00  0.00    +0.430 HD
ATOM     11  C   LIG    1        2.392   1.100  -1.821  0.00  0.00    +0.540 A 
ATOM     12  O   LIG    1        3.310   0.302  -1.747  0.00  0.00    -0.520 OA
BRANCH   7  13
ATOM     13  C   LIG    1       -0.876   3.817  -2.110  0.00  0.00    +0.530 C 
ATOM     14  F   LIG    1       -0.585   4.810  -3.051  0.00  0.00    -0.170 F 
ATOM     15  F   LIG    1       -1.119   4.410  -0.866  0.00  0.00    -0.170 F 
ATOM     16  F   LIG    1       -2.010   3.107  -2.516  0.00  0.00    -0.180 F 
ENDBRANCH   7  13
ENDBRANCH   3   5
BRANCH   1  17
ATOM     17  C   LIG    1        6.244   2.513  -0.427  0.00  0.00    +0.270 C 
BRANCH  17  18
ATOM     18  C   LIG    1        7.232   1.344  -0.430  0.00  0.00    +0.170 C 
BRANCH  18  19
ATOM     19  N   LIG    1        6.665   0.223   0.331  0.00  0.00    -0.520 NA
ATOM     20  C   LIG    1        6.825   0.433   1.777  0.00  0.00    +0.140 C 
ATOM     21  C   LIG    1        6.170  -0.726   2.532  0.00  0.00    +0.220 C 
ATOM     22  O   LIG    1        6.750  -1.959   2.098  0.00  0.00    -0.380 OA
ATOM     23  C   LIG    1        6.612  -2.197   0.694  0.00  0.00    +0.220 C 
ATOM     24  C   LIG    1        7.272  -1.052  -0.079  0.00  0.00    +0.150 C 
ENDBRANCH  18  19
BRANCH  18  26
ATOM     25  C   LIG    1        9.578   0.663   0.092  0.00  0.00    +0.020 C 
ATOM     26  C   LIG    1        8.547   1.786   0.215  0.00  0.00    -0.040 C 
ATOM     27  C   LIG    1        9.068   3.038  -0.494  0.00  0.00    +0.030 C 
ENDBRANCH  18  26
ENDBRANCH  17  18
ENDBRANCH   1  17
TORSDOF 6
