REMARK  Name = ZINCrH000004o2tL.0
REMARK                            x       y       z     vdW  Elec       q    Type
REMARK                         _______ _______ _______ _____ _____    ______ ____
ROOT
ATOM      1  S   LIG    1        3.651  -1.388   1.817  0.00  0.00    +2.680 S 
ATOM      2  O   LIG    1        2.656  -1.183   2.810  0.00  0.00    -0.930 OA
ATOM      3  O   LIG    1        5.020  -1.612   2.123  0.00  0.00    -0.940 OA
ENDROOT
BRANCH   1   4
ATOM      4  C   LIG    1        3.122  -2.771   0.861  0.00  0.00    -0.700 A 
ATOM      5  C   LIG    1        4.026  -3.755   0.510  0.00  0.00    +0.250 A 
ATOM      6  C   LIG    1        3.611  -4.842  -0.237  0.00  0.00    -0.680 A 
ATOM      7  C   LIG    1        2.292  -4.940  -0.640  0.00  0.00    +0.200 A 
ATOM      8  C   LIG    1        1.388  -3.954  -0.294  0.00  0.00    +0.010 A 
ATOM      9  C   LIG    1        1.802  -2.868   0.456  0.00  0.00    +0.100 A 
ATOM     10 CL   LIG    1        0.667  -1.629   0.891  0.00  0.00    -0.020 Cl
BRANCH   6  11
ATOM     11  S   LIG    1        4.763  -6.099  -0.679  0.00  0.00    +2.500 S 
ATOM     12  O   LIG    1        3.964  -7.261  -0.855  0.00  0.00    -0.930 OA
ATOM     13  O   LIG    1        5.755  -6.039   0.338  0.00  0.00    -0.920 OA
ATOM     14  C   LIG    1        5.446  -5.549  -2.267  0.00  0.00    -0.240 C 
ENDBRANCH   6  11
ENDBRANCH   1   4
BRANCH   1  15
ATOM     15  N   LIG    1        3.603  -0.061   0.827  0.00  0.00    -0.980 NA
BRANCH  15  17
ATOM     16  C   LIG    1        2.711   1.809   2.126  0.00  0.00    +0.040 C 
ATOM     17  C   LIG    1        2.490   0.887   0.925  0.00  0.00    +0.270 C 
BRANCH  17  18
ATOM     18  C   LIG    1        2.419   1.723  -0.353  0.00  0.00    -0.050 C 
ATOM     19  C   LIG    1        1.247   2.697  -0.496  0.00  0.00    +0.030 C 
ATOM     20  C   LIG    1        1.285   1.417  -1.335  0.00  0.00    +0.010 C 
ENDBRANCH  17  18
ENDBRANCH  15  17
BRANCH  15  21
ATOM     21  C   LIG    1        4.674   0.165  -0.147  0.00  0.00    +0.340 C 
BRANCH  21  22
ATOM     22  C   LIG    1        5.729   1.051   0.464  0.00  0.00    -0.120 A 
ATOM     23  C   LIG    1        5.607   2.426   0.386  0.00  0.00    +0.020 A 
ATOM     24  C   LIG    1        6.573   3.238   0.951  0.00  0.00    -0.010 A 
ATOM     25  C   LIG    1        7.665   2.676   1.584  0.00  0.00    +0.010 A 
ATOM     26  C   LIG    1        7.790   1.302   1.656  0.00  0.00    +0.000 A 
ATOM     27  C   LIG    1        6.822   0.489   1.097  0.00  0.00    +0.050 A 
ENDBRANCH  21  22
ENDBRANCH  15  21
ENDBRANCH   1  15
TORSDOF 7
