REMARK  Name = ZINCkj00000a6Ttx.0
REMARK                            x       y       z     vdW  Elec       q    Type
REMARK                         _______ _______ _______ _____ _____    ______ ____
ROOT
ATOM      1  C   LIG    1       -3.893  -3.771  -2.250  0.00  0.00    +0.450 C 
ATOM      2  N   LIG    1       -4.907  -2.934  -2.329  0.00  0.00    -0.560 NA
ATOM      3  C   LIG    1       -4.747  -1.639  -2.062  0.00  0.00    +0.490 C 
ATOM      4  C   LIG    1       -3.488  -1.176  -1.692  0.00  0.00    -0.100 C 
ATOM      5  C   LIG    1       -2.443  -2.092  -1.627  0.00  0.00    +0.440 C 
ATOM      6  H   LIG    1       -5.782  -3.266  -2.584  0.00  0.00    +0.440 HD
ATOM      7  N   LIG    1       -2.685  -3.371  -1.909  0.00  0.00    -0.530 NA
ENDROOT
BRANCH   5   8
ATOM      8  N   LIG    1       -1.168  -1.681  -1.268  0.00  0.00    -0.450 NA
ATOM      9  C   LIG    1       -0.247  -2.795  -1.260  0.00  0.00    +0.210 C 
ATOM     10  C   LIG    1        1.224  -2.465  -1.349  0.00  0.00    +0.070 C 
ATOM     11  C   LIG    1        1.727  -1.862  -0.026  0.00  0.00    +0.120 C 
ATOM     12  C   LIG    1        1.289  -0.407  -0.013  0.00  0.00    +0.110 A 
ATOM     13  C   LIG    1        0.002  -0.004   0.002  0.00  0.00    -0.260 A 
ATOM     14  C   LIG    1       -0.017   1.389   0.010  0.00  0.00    +0.260 A 
ATOM     15  N   LIG    1        1.226   1.808   0.000  0.00  0.00    -0.290 NA
ATOM     16  N   LIG    1        2.069   0.685  -0.014  0.00  0.00    -0.360 N 
ATOM     17  C   LIG    1        3.534   0.703  -0.027  0.00  0.00    +0.360 C 
ATOM     18  C   LIG    1       -1.191  -0.944   0.010  0.00  0.00    +0.330 C 
ENDBRANCH   5   8
BRANCH   3  19
ATOM     19  N   LIG    1       -5.821  -0.766  -2.147  0.00  0.00    -0.810 NA
ATOM     20  H   LIG    1       -5.696   0.176  -1.951  0.00  0.00    +0.440 HD
ATOM     21  H   LIG    1       -6.696  -1.096  -2.402  0.00  0.00    +0.420 HD
ENDBRANCH   3  19
BRANCH   1  23
ATOM     22  C   LIG    1       -3.145  -5.677  -3.650  0.00  0.00    +0.080 C 
ATOM     23  C   LIG    1       -4.121  -5.228  -2.560  0.00  0.00    +0.150 C 
ENDBRANCH   1  23
TORSDOF 3
