REMARK  Name = ZINCkj00000a6Ttx.1
REMARK                            x       y       z     vdW  Elec       q    Type
REMARK                         _______ _______ _______ _____ _____    ______ ____
ROOT
ATOM      1  C   LIG    1       -0.987   3.275  -2.898  0.00  0.00    +0.450 C 
ATOM      2  N   LIG    1       -2.241   2.915  -3.083  0.00  0.00    -0.530 NA
ATOM      3  C   LIG    1       -2.832   2.050  -2.260  0.00  0.00    +0.500 C 
ATOM      4  C   LIG    1       -2.103   1.524  -1.198  0.00  0.00    -0.080 C 
ATOM      5  C   LIG    1       -0.784   1.934  -1.035  0.00  0.00    +0.410 C 
ATOM      6  N   LIG    1       -0.266   2.803  -1.902  0.00  0.00    -0.570 NA
ATOM      7  H   LIG    1        0.654   3.091  -1.798  0.00  0.00    +0.440 HD
ENDROOT
BRANCH   5   8
ATOM      8  N   LIG    1       -0.018   1.442   0.010  0.00  0.00    -0.470 NA
ATOM      9  C   LIG    1        0.222   0.024  -0.146  0.00  0.00    +0.220 C 
ATOM     10  C   LIG    1        0.623  -0.740   1.093  0.00  0.00    +0.080 C 
ATOM     11  C   LIG    1        2.067  -0.402   1.498  0.00  0.00    +0.120 C 
ATOM     12  C   LIG    1        2.021   0.940   2.208  0.00  0.00    +0.110 A 
ATOM     13  C   LIG    1        1.648   2.096   1.620  0.00  0.00    -0.260 A 
ATOM     14  C   LIG    1        1.726   3.111   2.570  0.00  0.00    +0.260 A 
ATOM     15  N   LIG    1        2.135   2.578   3.697  0.00  0.00    -0.280 NA
ATOM     16  N   LIG    1        2.327   1.203   3.488  0.00  0.00    -0.360 N 
ATOM     17  C   LIG    1        2.781   0.232   4.487  0.00  0.00    +0.360 C 
ATOM     18  C   LIG    1        1.225   2.221   0.167  0.00  0.00    +0.280 C 
ENDBRANCH   5   8
BRANCH   3  19
ATOM     19  N   LIG    1       -4.151   1.677  -2.461  0.00  0.00    -0.780 NA
ATOM     20  H   LIG    1       -4.575   1.047  -1.857  0.00  0.00    +0.430 HD
ATOM     21  H   LIG    1       -4.651   2.046  -3.207  0.00  0.00    +0.430 HD
ENDBRANCH   3  19
BRANCH   1  23
ATOM     22  C   LIG    1       -0.498   3.732  -5.286  0.00  0.00    +0.080 C 
ATOM     23  C   LIG    1       -0.359   4.255  -3.856  0.00  0.00    +0.150 C 
ENDBRANCH   1  23
TORSDOF 3
