REMARK  Name = ZINCqH0000007kHp.1
REMARK                            x       y       z     vdW  Elec       q    Type
REMARK                         _______ _______ _______ _____ _____    ______ ____
ROOT
ATOM      1  S   LIG    1       -1.772   3.902   5.754  0.00  0.00    +0.070 S 
ENDROOT
BRANCH   1   2
ATOM      2  C   LIG    1       -2.900   4.268   7.057  0.00  0.00    +0.250 A 
ATOM      3  N   LIG    1       -4.145   3.853   7.141  0.00  0.00    -0.530 NA
ATOM      4  C   LIG    1       -4.702   4.324   8.266  0.00  0.00    +0.280 A 
ATOM      5  N   LIG    1       -3.814   5.046   8.911  0.00  0.00    -0.300 NA
ATOM      6  N   LIG    1       -2.635   5.020   8.148  0.00  0.00    -0.460 N 
ATOM      7  H   LIG    1       -1.796   5.458   8.362  0.00  0.00    +0.450 HD
BRANCH   4   8
ATOM      8  C   LIG    1       -6.095   4.072   8.710  0.00  0.00    -0.030 A 
ATOM      9  C   LIG    1       -6.947   3.292   7.931  0.00  0.00    +0.060 A 
ATOM     10  C   LIG    1       -8.240   3.056   8.351  0.00  0.00    +0.000 A 
ATOM     11  C   LIG    1       -8.695   3.602   9.538  0.00  0.00    -0.070 A 
ATOM     12  C   LIG    1       -7.856   4.383  10.312  0.00  0.00    +0.000 A 
ATOM     13  C   LIG    1      -10.110   3.346   9.989  0.00  0.00    +0.090 C 
ATOM     14  C   LIG    1       -6.559   4.620   9.904  0.00  0.00    +0.050 A 
ENDBRANCH   4   8
ENDBRANCH   1   2
BRANCH   1  15
ATOM     15  C   LIG    1       -2.828   2.873   4.704  0.00  0.00    +0.110 C 
BRANCH  15  16
ATOM     16  C   LIG    1       -2.052   2.429   3.491  0.00  0.00    +0.420 C 
ATOM     17  O   LIG    1       -0.898   2.775   3.350  0.00  0.00    -0.410 OA
BRANCH  16  22
ATOM     18  C   LIG    1       -4.619   0.378   1.682  0.00  0.00    +0.080 A 
ATOM     19  C   LIG    1       -3.900  -0.029   0.564  0.00  0.00    +0.010 A 
ATOM     20  C   LIG    1       -2.588   0.366   0.396  0.00  0.00    -0.040 A 
ATOM     21  C   LIG    1       -1.973   1.164   1.348  0.00  0.00    +0.160 A 
ATOM     22  C   LIG    1       -2.692   1.579   2.480  0.00  0.00    -0.160 A 
ATOM     23  C   LIG    1       -4.024   1.178   2.639  0.00  0.00    +0.080 A 
BRANCH  18  25
ATOM     24  C   LIG    1       -6.467  -0.839   0.809  0.00  0.00    +0.250 C 
ATOM     25  O   LIG    1       -5.913  -0.012   1.835  0.00  0.00    -0.310 OA
ENDBRANCH  18  25
BRANCH  21  26
ATOM     26  O   LIG    1       -0.682   1.547   1.184  0.00  0.00    -0.290 OA
ATOM     27  C   LIG    1       -0.013   1.086   0.008  0.00  0.00    +0.250 C 
ENDBRANCH  21  26
ENDBRANCH  16  22
ENDBRANCH  15  16
ENDBRANCH   1  15
TORSDOF 7
