REMARK  Name = ZINCqH0000007kHp.0
REMARK                            x       y       z     vdW  Elec       q    Type
REMARK                         _______ _______ _______ _____ _____    ______ ____
ROOT
ATOM      1  S   LIG    1       -0.680  -5.052   1.304  0.00  0.00    +0.090 S 
ENDROOT
BRANCH   1   2
ATOM      2  C   LIG    1       -0.510  -6.785   1.034  0.00  0.00    +0.200 A 
ATOM      3  N   LIG    1        0.080  -7.341   0.000  0.00  0.00    -0.320 NA
ATOM      4  N   LIG    1       -0.005  -8.731   0.179  0.00  0.00    -0.470 N 
ATOM      5  H   LIG    1        0.338  -9.416  -0.416  0.00  0.00    +0.440 HD
ATOM      6  C   LIG    1       -0.662  -8.926   1.345  0.00  0.00    +0.340 A 
ATOM      7  N   LIG    1       -0.954  -7.744   1.849  0.00  0.00    -0.500 NA
BRANCH   6   8
ATOM      8  C   LIG    1       -0.990 -10.236   1.951  0.00  0.00    -0.050 A 
ATOM      9  C   LIG    1       -0.620 -11.417   1.308  0.00  0.00    +0.030 A 
ATOM     10  C   LIG    1       -0.924 -12.635   1.881  0.00  0.00    +0.010 A 
ATOM     11  C   LIG    1       -1.604 -12.686   3.084  0.00  0.00    -0.060 A 
ATOM     12  C   LIG    1       -1.978 -11.518   3.724  0.00  0.00    +0.010 A 
ATOM     13  C   LIG    1       -1.938 -14.020   3.701  0.00  0.00    +0.100 C 
ATOM     14  C   LIG    1       -1.675 -10.294   3.165  0.00  0.00    +0.080 A 
ENDBRANCH   6   8
ENDBRANCH   1   2
BRANCH   1  15
ATOM     15  C   LIG    1        0.132  -4.331  -0.148  0.00  0.00    +0.080 C 
BRANCH  15  16
ATOM     16  C   LIG    1        0.069  -2.827  -0.064  0.00  0.00    +0.420 C 
ATOM     17  O   LIG    1       -0.471  -2.295   0.882  0.00  0.00    -0.410 OA
BRANCH  16  22
ATOM     18  C   LIG    1        1.840  -1.838  -3.220  0.00  0.00    +0.080 A 
ATOM     19  C   LIG    1        1.779  -0.452  -3.139  0.00  0.00    +0.010 A 
ATOM     20  C   LIG    1        1.162   0.160  -2.066  0.00  0.00    -0.040 A 
ATOM     21  C   LIG    1        0.605  -0.606  -1.054  0.00  0.00    +0.160 A 
ATOM     22  C   LIG    1        0.661  -2.007  -1.128  0.00  0.00    -0.160 A 
ATOM     23  C   LIG    1        1.285  -2.617  -2.223  0.00  0.00    +0.080 A 
BRANCH  18  25
ATOM     24  C   LIG    1        2.999  -1.565  -5.278  0.00  0.00    +0.250 C 
ATOM     25  O   LIG    1        2.446  -2.429  -4.284  0.00  0.00    -0.310 OA
ENDBRANCH  18  25
BRANCH  21  26
ATOM     26  O   LIG    1        0.002  -0.004   0.002  0.00  0.00    -0.290 OA
ATOM     27  C   LIG    1       -0.017   1.425   0.010  0.00  0.00    +0.250 C 
ENDBRANCH  21  26
ENDBRANCH  16  22
ENDBRANCH  15  16
ENDBRANCH   1  15
TORSDOF 7
