REMARK  Name = ZINCrD00000fDnWU.0
REMARK                            x       y       z     vdW  Elec       q    Type
REMARK                         _______ _______ _______ _____ _____    ______ ____
ROOT
ATOM      1  O   LIG    1        1.261   0.646   2.310  0.00  0.00    -0.620 OA
ATOM      2  C   LIG    1        0.168   1.182   2.335  0.00  0.00    +0.690 C 
ATOM      3  N   LIG    1       -0.481   1.443   1.183  0.00  0.00    -0.720 N 
ATOM      4  H   LIG    1       -1.352   1.870   1.203  0.00  0.00    +0.400 HD
ENDROOT
BRANCH   2   5
ATOM      5  N   LIG    1       -0.389   1.512   3.507  0.00  0.00    -0.680 NA
ATOM      6  C   LIG    1        0.251   1.255   4.643  0.00  0.00    +0.500 A 
ATOM      7  C   LIG    1        1.514   0.637   4.771  0.00  0.00    -0.100 A 
ATOM      8  C   LIG    1        1.815   0.561   6.084  0.00  0.00    +0.340 A 
ATOM      9  N   LIG    1        0.790   1.098   6.806  0.00  0.00    -0.390 N 
ATOM     10  N   LIG    1       -0.196   1.536   5.912  0.00  0.00    -0.480 N 
ATOM     11  H   LIG    1       -1.038   1.958   6.145  0.00  0.00    +0.450 HD
BRANCH   9  12
ATOM     12  C   LIG    1        0.729   1.199   8.267  0.00  0.00    +0.250 C 
ATOM     13  C   LIG    1       -0.682   0.991   8.847  0.00  0.00    +0.230 C 
ATOM     14  O   LIG    1       -0.375   2.114   9.698  0.00  0.00    -0.360 OA
ATOM     15  C   LIG    1        0.607   2.644   8.785  0.00  0.00    +0.220 C 
ENDBRANCH   9  12
ENDBRANCH   2   5
BRANCH   3  16
ATOM     16  C   LIG    1        0.128   1.082  -0.099  0.00  0.00    +0.310 C 
BRANCH  16  17
ATOM     17  C   LIG    1       -0.749   1.594  -1.243  0.00  0.00    +0.200 C 
BRANCH  17  18
ATOM     18  C   LIG    1       -0.185   1.122  -2.558  0.00  0.00    -0.110 A 
ATOM     19  C   LIG    1        0.882   1.787  -3.132  0.00  0.00    +0.060 A 
ATOM     20  C   LIG    1        1.403   1.351  -4.336  0.00  0.00    +0.030 A 
ATOM     21  C   LIG    1        0.849   0.255  -4.972  0.00  0.00    -0.030 A 
ATOM     22  C   LIG    1       -0.223  -0.407  -4.401  0.00  0.00    +0.030 A 
ATOM     23 CL   LIG    1        1.497  -0.289  -6.488  0.00  0.00    -0.070 Cl
ATOM     24  C   LIG    1       -0.740   0.027  -3.194  0.00  0.00    +0.040 A 
ENDBRANCH  17  18
BRANCH  17  25
ATOM     25  O   LIG    1       -0.773   3.023  -1.221  0.00  0.00    -0.360 OA
BRANCH  25  26
ATOM     26  C   LIG    1       -1.970   3.592  -1.756  0.00  0.00    +0.190 C 
BRANCH  26  27
ATOM     27  C   LIG    1       -1.934   5.112  -1.583  0.00  0.00    -0.040 C 
ATOM     28  C   LIG    1       -2.995   5.746  -0.682  0.00  0.00    +0.020 C 
ATOM     29  C   LIG    1       -3.077   5.920  -2.200  0.00  0.00    +0.020 C 
ENDBRANCH  26  27
ENDBRANCH  25  26
ENDBRANCH  17  25
ENDBRANCH  16  17
ENDBRANCH   3  16
TORSDOF 8
