REMARK  Name = ZINCrH000004p02z.0
REMARK                            x       y       z     vdW  Elec       q    Type
REMARK                         _______ _______ _______ _____ _____    ______ ____
ROOT
ATOM      1  N   LIG    1       -4.790  -0.971   0.632  0.00  0.00    -0.500 NA
ATOM      2  C   LIG    1       -3.675  -0.015   0.618  0.00  0.00    +0.260 C 
ATOM      3  C   LIG    1       -3.719   0.854   1.842  0.00  0.00    -0.080 C 
ATOM      4  C   LIG    1       -4.789   0.970   2.602  0.00  0.00    -0.040 C 
ATOM      5  C   LIG    1       -6.073   0.243   2.312  0.00  0.00    +0.030 C 
ATOM      6  C   LIG    1       -6.061  -0.268   0.869  0.00  0.00    +0.220 C 
ENDROOT
BRANCH   4   7
ATOM      7  C   LIG    1       -4.727   1.853   3.781  0.00  0.00    -0.190 A 
ATOM      8  C   LIG    1       -3.941   1.695   4.913  0.00  0.00    +0.240 A 
ATOM      9  N   LIG    1       -4.166   2.697   5.754  0.00  0.00    -0.550 NA
ATOM     10  C   LIG    1       -5.062   3.552   5.287  0.00  0.00    +0.260 A 
ATOM     11  N   LIG    1       -5.605   4.711   5.782  0.00  0.00    -0.500 N 
ATOM     12  H   LIG    1       -5.325   5.038   6.651  0.00  0.00    +0.420 HD
ATOM     13  C   LIG    1       -6.519   5.396   5.077  0.00  0.00    +0.330 A 
ATOM     14  C   LIG    1       -6.943   4.977   3.853  0.00  0.00    -0.070 A 
ATOM     15  C   LIG    1       -6.430   3.809   3.296  0.00  0.00    +0.180 A 
ATOM     16  C   LIG    1       -5.488   3.085   4.014  0.00  0.00    -0.160 A 
ENDBRANCH   4   7
BRANCH   1  18
ATOM     17  C   LIG    1       -3.214  -2.682   1.397  0.00  0.00    +0.070 C 
ATOM     18  C   LIG    1       -4.572  -2.019   1.637  0.00  0.00    +0.140 C 
BRANCH  18  19
ATOM     19  C   LIG    1       -5.663  -3.054   1.528  0.00  0.00    +0.520 C 
ATOM     20  N   LIG    1       -5.872  -3.922   2.538  0.00  0.00    -0.560 N 
ATOM     21  C   LIG    1       -5.148  -3.763   3.802  0.00  0.00    +0.300 C 
ATOM     22  O   LIG    1       -6.352  -3.105   0.532  0.00  0.00    -0.490 OA
BRANCH  20  23
ATOM     23  C   LIG    1       -6.780  -4.974   2.379  0.00  0.00    +0.150 A 
ATOM     24  C   LIG    1       -7.379  -5.196   1.146  0.00  0.00    +0.020 A 
ATOM     25  C   LIG    1       -8.272  -6.239   0.992  0.00  0.00    +0.020 A 
ATOM     26  C   LIG    1       -8.577  -7.054   2.066  0.00  0.00    -0.030 A 
ATOM     27  C   LIG    1       -7.986  -6.833   3.296  0.00  0.00    +0.020 A 
ATOM     28  C   LIG    1       -7.088  -5.795   3.456  0.00  0.00    -0.040 A 
ENDBRANCH  20  23
ENDBRANCH  18  19
ENDBRANCH   1  18
TORSDOF 4
