REMARK  Name = ZINCqH0000008qES.0
REMARK                            x       y       z     vdW  Elec       q    Type
REMARK                         _______ _______ _______ _____ _____    ______ ____
ROOT
ATOM      1  C   LIG    1       -0.429  -0.060  -5.934  0.00  0.00    +0.040 C 
ATOM      2  C   LIG    1       -1.643   0.857  -5.771  0.00  0.00    +0.290 C 
ENDROOT
BRANCH   2   3
ATOM      3  C   LIG    1       -2.118   1.307  -7.129  0.00  0.00    -0.110 A 
ATOM      4  C   LIG    1       -1.472   2.344  -7.777  0.00  0.00    +0.020 A 
ATOM      5  C   LIG    1       -1.902   2.756  -9.023  0.00  0.00    -0.010 A 
ATOM      6  C   LIG    1       -2.991   2.134  -9.621  0.00  0.00    +0.150 A 
ATOM      7  C   LIG    1       -3.641   1.097  -8.965  0.00  0.00    +0.030 A 
ATOM      8  C   LIG    1       -3.203   0.686  -7.721  0.00  0.00    +0.040 A 
BRANCH   6   9
ATOM      9  N   LIG    1       -3.432   2.553 -10.881  0.00  0.00    -0.670 N 
ATOM     10  H   LIG    1       -2.791   2.852 -11.545  0.00  0.00    +0.410 HD
ATOM     11  C   LIG    1       -4.748   2.542 -11.172  0.00  0.00    +0.540 C 
ATOM     12  O   LIG    1       -5.542   2.087 -10.375  0.00  0.00    -0.520 OA
BRANCH  11  13
ATOM     13  C   LIG    1       -5.234   3.094 -12.487  0.00  0.00    -0.070 C 
ATOM     14  C   LIG    1       -6.051   4.387 -12.451  0.00  0.00    +0.060 C 
ATOM     15  C   LIG    1       -6.739   3.055 -12.757  0.00  0.00    +0.080 C 
ENDBRANCH  11  13
ENDBRANCH   6   9
ENDBRANCH   2   3
BRANCH   2  16
ATOM     16  N   LIG    1       -1.269   2.026  -4.972  0.00  0.00    -0.720 N 
ATOM     17  H   LIG    1       -0.998   2.848  -5.412  0.00  0.00    +0.400 HD
ATOM     18  C   LIG    1       -1.300   1.961  -3.627  0.00  0.00    +0.570 C 
ATOM     19  O   LIG    1       -1.639   0.931  -3.076  0.00  0.00    -0.520 OA
BRANCH  18  20
ATOM     20  C   LIG    1       -0.922   3.141  -2.820  0.00  0.00    -0.190 A 
ATOM     21  C   LIG    1       -0.413   4.290  -3.436  0.00  0.00    +0.100 A 
ATOM     22  C   LIG    1       -0.074   5.367  -2.636  0.00  0.00    -0.050 A 
ATOM     23  C   LIG    1       -0.248   5.275  -1.267  0.00  0.00    +0.290 A 
ATOM     24  N   LIG    1       -0.735   4.180  -0.714  0.00  0.00    -0.490 NA
ATOM     25  C   LIG    1       -1.067   3.128  -1.432  0.00  0.00    +0.220 A 
BRANCH  25  26
ATOM     26  C   LIG    1       -1.614   1.901  -0.750  0.00  0.00    +0.020 C 
ATOM     27  C   LIG    1       -0.637   1.051   0.066  0.00  0.00    +0.040 C 
ATOM     28  C   LIG    1       -1.681   1.913   0.780  0.00  0.00    +0.040 C 
ENDBRANCH  25  26
ENDBRANCH  18  20
ENDBRANCH   2  16
TORSDOF 6
