REMARK  Name = ZINCnE000001SBc6.0
REMARK                            x       y       z     vdW  Elec       q    Type
REMARK                         _______ _______ _______ _____ _____    ______ ____
ROOT
ATOM      1  O   LIG    1        1.537   0.577  -2.777  0.00  0.00    -0.600 OA
ATOM      2  C   LIG    1        0.419   0.635  -3.259  0.00  0.00    +0.680 C 
ATOM      3  N   LIG    1       -0.609   1.103  -2.523  0.00  0.00    -0.620 N 
ATOM      4  C   LIG    1       -2.073   1.326  -2.737  0.00  0.00    +0.280 C 
ATOM      5  C   LIG    1       -2.165   0.887  -1.301  0.00  0.00    -0.030 C 
ATOM      6  C   LIG    1       -3.061   1.516  -0.254  0.00  0.00    +0.020 C 
ATOM      7  C   LIG    1       -2.447   1.145   1.110  0.00  0.00    +0.000 C 
ATOM      8  C   LIG    1       -0.991   1.582   1.239  0.00  0.00    +0.010 C 
ATOM      9  C   LIG    1       -0.124   1.075   0.068  0.00  0.00    +0.050 C 
ATOM     10  C   LIG    1       -0.780   1.605  -1.189  0.00  0.00    +0.200 C 
ENDROOT
BRANCH   2  11
ATOM     11  N   LIG    1        0.213   0.237  -4.516  0.00  0.00    -0.710 NA
ATOM     12  C   LIG    1        1.234  -0.227  -5.246  0.00  0.00    +0.350 A 
ATOM     13  C   LIG    1        1.026  -0.649  -6.574  0.00  0.00    -0.060 A 
ATOM     14  C   LIG    1        2.106  -1.114  -7.273  0.00  0.00    +0.020 A 
ATOM     15  C   LIG    1        3.354  -1.144  -6.633  0.00  0.00    +0.040 A 
ATOM     16  N   LIG    1        3.478  -0.738  -5.400  0.00  0.00    -0.230 NA
ATOM     17  N   LIG    1        2.486  -0.291  -4.718  0.00  0.00    -0.320 NA
ENDBRANCH   2  11
BRANCH  10  18
ATOM     18  C   LIG    1       -0.918   3.105  -1.164  0.00  0.00    -0.070 A 
ATOM     19  C   LIG    1       -0.306   3.872  -2.138  0.00  0.00    +0.030 A 
ATOM     20  C   LIG    1       -0.437   5.248  -2.118  0.00  0.00    +0.000 A 
ATOM     21  C   LIG    1       -1.170   5.858  -1.117  0.00  0.00    -0.020 A 
ATOM     22  C   LIG    1       -1.778   5.092  -0.140  0.00  0.00    -0.010 A 
ATOM     23  C   LIG    1       -1.651   3.715  -0.163  0.00  0.00    +0.020 A 
ENDBRANCH  10  18
TORSDOF 2
