REMARK  Name = ZINCrD000000CDVb.0
REMARK                            x       y       z     vdW  Elec       q    Type
REMARK                         _______ _______ _______ _____ _____    ______ ____
ROOT
ATOM      1  O   LIG    1       -0.765   1.206   3.226  0.00  0.00    -0.520 OA
ATOM      2  C   LIG    1       -1.091   0.697   2.171  0.00  0.00    +0.560 C 
ATOM      3  N   LIG    1       -1.611   1.457   1.188  0.00  0.00    -0.610 N 
ATOM      4  C   LIG    1       -1.932   0.872  -0.121  0.00  0.00    +0.280 C 
ATOM      5  C   LIG    1       -3.390   1.193  -0.464  0.00  0.00    +0.030 C 
ATOM      6  C   LIG    1       -3.609   2.705  -0.381  0.00  0.00    +0.240 C 
ATOM      7  C   LIG    1       -3.331   3.186   1.045  0.00  0.00    +0.020 C 
ATOM      8  C   LIG    1       -1.872   2.887   1.405  0.00  0.00    +0.290 C 
ENDROOT
BRANCH   2   9
ATOM      9  C   LIG    1       -0.917  -0.757   1.967  0.00  0.00    -0.130 A 
ATOM     10  C   LIG    1       -0.265  -1.232   0.828  0.00  0.00    +0.080 A 
ATOM     11  C   LIG    1       -0.102  -2.590   0.646  0.00  0.00    +0.030 A 
ATOM     12  C   LIG    1       -0.592  -3.481   1.585  0.00  0.00    +0.090 A 
ATOM     13  C   LIG    1       -1.243  -3.017   2.714  0.00  0.00    -0.180 A 
ATOM     14  C   LIG    1       -1.408  -1.661   2.911  0.00  0.00    +0.120 A 
BRANCH  13  15
ATOM     15  C   LIG    1       -1.773  -3.994   3.731  0.00  0.00    +0.510 C 
ATOM     16  F   LIG    1       -1.751  -3.404   5.000  0.00  0.00    -0.170 F 
ATOM     17  F   LIG    1       -0.973  -5.141   3.737  0.00  0.00    -0.170 F 
ATOM     18  F   LIG    1       -3.087  -4.343   3.402  0.00  0.00    -0.170 F 
ENDBRANCH  13  15
ENDBRANCH   2   9
BRANCH   6  19
ATOM     19  N   LIG    1       -4.994   3.019  -0.740  0.00  0.00    -1.110 NA
ATOM     20  H   LIG    1       -5.708   2.409  -0.496  0.00  0.00    +0.420 HD
BRANCH  19  21
ATOM     21  S   LIG    1       -5.341   4.414  -1.563  0.00  0.00    +2.720 S 
ATOM     22  O   LIG    1       -4.667   5.461  -0.879  0.00  0.00    -0.940 OA
ATOM     23  O   LIG    1       -6.744   4.409  -1.788  0.00  0.00    -0.950 OA
BRANCH  21  24
ATOM     24  C   LIG    1       -4.583   4.286  -3.148  0.00  0.00    -0.800 A 
ATOM     25  C   LIG    1       -5.158   3.772  -4.237  0.00  0.00    +0.170 A 
ATOM     26  C   LIG    1       -4.367   3.778  -5.372  0.00  0.00    -0.010 A 
ATOM     27  C   LIG    1       -3.149   4.297  -5.207  0.00  0.00    +0.010 A 
ATOM     28  S   LIG    1       -2.955   4.825  -3.540  0.00  0.00    +0.210 S 
ENDBRANCH  21  24
ENDBRANCH  19  21
ENDBRANCH   6  19
TORSDOF 5
