REMARK  Name = ZINCkj000005h7Y5.0
REMARK                            x       y       z     vdW  Elec       q    Type
REMARK                         _______ _______ _______ _____ _____    ______ ____
ROOT
ATOM      1  C   LIG    1       -0.846   1.647  -1.194  0.00  0.00    -0.030 C 
ATOM      2  C   LIG    1       -0.049   1.105   0.022  0.00  0.00    +0.070 C 
ATOM      3  C   LIG    1       -0.783   1.729   1.228  0.00  0.00    +0.270 C 
ATOM      4  N   LIG    1       -2.144   2.071   0.775  0.00  0.00    -0.610 N 
ATOM      5  C   LIG    1       -3.098   2.656   1.528  0.00  0.00    +0.630 C 
ATOM      6  O   LIG    1       -4.190   2.892   1.049  0.00  0.00    -0.520 OA
ATOM      7  C   LIG    1       -2.291   1.667  -0.635  0.00  0.00    +0.260 C 
ENDROOT
BRANCH   5   8
ATOM      8  C   LIG    1       -2.815   3.009   2.934  0.00  0.00    -0.010 A 
ATOM      9  N   LIG    1       -1.681   2.814   3.584  0.00  0.00    -0.260 NA
ATOM     10  N   LIG    1       -1.784   3.243   4.795  0.00  0.00    -0.370 N 
ATOM     11  H   LIG    1       -1.079   3.206   5.460  0.00  0.00    +0.450 HD
ATOM     12  C   LIG    1       -3.011   3.750   5.001  0.00  0.00    +0.020 A 
ATOM     13  C   LIG    1       -3.583   4.365   6.252  0.00  0.00    +0.120 C 
ATOM     14  C   LIG    1       -4.841   5.156   5.869  0.00  0.00    +0.030 C 
ATOM     15  C   LIG    1       -5.760   4.278   5.015  0.00  0.00    +0.020 C 
ATOM     16  C   LIG    1       -5.123   4.057   3.637  0.00  0.00    +0.120 C 
ATOM     17  C   LIG    1       -3.697   3.624   3.838  0.00  0.00    -0.140 A 
ENDBRANCH   5   8
BRANCH   1  18
ATOM     18  C   LIG    1       -0.734   0.700  -2.390  0.00  0.00    +0.280 C 
BRANCH  18  20
ATOM     19  C   LIG    1       -0.715   2.501  -3.974  0.00  0.00    +0.320 C 
ATOM     20  N   LIG    1       -1.423   1.287  -3.546  0.00  0.00    -0.390 N 
ATOM     21  C   LIG    1       -1.442   0.318  -4.650  0.00  0.00    +0.320 C 
ATOM     22  H   LIG    1       -2.370   1.523  -3.289  0.00  0.00    +0.430 HD
ENDBRANCH  18  20
ENDBRANCH   1  18
TORSDOF 3
