REMARK  Name = ZINCpe000000WJDU.0
REMARK                            x       y       z     vdW  Elec       q    Type
REMARK                         _______ _______ _______ _____ _____    ______ ____
ROOT
ATOM      1  N   LIG    1        2.282   0.972   0.147  0.00  0.00    -0.520 N 
ATOM      2  C   LIG    1        3.465   1.832   0.021  0.00  0.00    +0.190 C 
ATOM      3  C   LIG    1        4.725   0.965  -0.034  0.00  0.00    +0.040 C 
ATOM      4  C   LIG    1        4.816   0.125   1.243  0.00  0.00    +0.230 C 
ATOM      5  C   LIG    1        3.550  -0.726   1.376  0.00  0.00    +0.050 C 
ATOM      6  C   LIG    1        2.325   0.190   1.390  0.00  0.00    +0.210 C 
ENDROOT
BRANCH   1  12
ATOM      7  C   LIG    1        0.173   1.450  -0.924  0.00  0.00    -0.640 A 
ATOM      8  C   LIG    1       -0.988   2.194  -1.000  0.00  0.00    +0.130 A 
ATOM      9  C   LIG    1       -1.222   3.209  -0.090  0.00  0.00    +0.000 A 
ATOM     10  C   LIG    1       -0.297   3.478   0.902  0.00  0.00    +0.070 A 
ATOM     11  C   LIG    1        0.869   2.742   0.981  0.00  0.00    -0.040 A 
ATOM     12  C   LIG    1        1.107   1.722   0.068  0.00  0.00    +0.180 A 
BRANCH   7  14
ATOM     13  C   LIG    1        1.897   0.732  -3.046  0.00  0.00    -0.250 C 
ATOM     14  S   LIG    1        0.470   0.158  -2.084  0.00  0.00    +2.510 S 
ATOM     15  O   LIG    1       -0.699   0.136  -2.892  0.00  0.00    -0.950 OA
ATOM     16  O   LIG    1        0.827  -0.959  -1.282  0.00  0.00    -0.920 OA
ENDBRANCH   7  14
ENDBRANCH   1  12
BRANCH   4  17
ATOM     17  N   LIG    1        5.989  -0.750   1.171  0.00  0.00    -0.480 N 
ATOM     18  C   LIG    1        6.224  -1.705   0.226  0.00  0.00    +0.390 A 
ATOM     19  N   LIG    1        7.360  -2.286   0.469  0.00  0.00    -0.440 NA
ATOM     20  C   LIG    1        7.912  -1.741   1.587  0.00  0.00    -0.160 A 
ATOM     21  C   LIG    1        7.041  -0.760   2.039  0.00  0.00    +0.370 A 
BRANCH  20  22
ATOM     22  C   LIG    1        9.187  -2.119   2.200  0.00  0.00    +0.620 C 
ATOM     23  O   LIG    1        9.572  -1.551   3.205  0.00  0.00    -0.570 OA
ATOM     24  N   LIG    1        9.935  -3.096   1.650  0.00  0.00    -0.840 N 
ATOM     25  H   LIG    1       10.780  -3.346   2.055  0.00  0.00    +0.400 HD
ATOM     26  H   LIG    1        9.629  -3.549   0.849  0.00  0.00    +0.410 HD
ENDBRANCH  20  22
BRANCH  21  27
ATOM     27  N   LIG    1        7.206   0.046   3.147  0.00  0.00    -0.830 N 
ATOM     28  H   LIG    1        7.997  -0.046   3.700  0.00  0.00    +0.430 HD
ATOM     29  H   LIG    1        6.530   0.704   3.373  0.00  0.00    +0.400 HD
ENDBRANCH  21  27
ENDBRANCH   4  17
TORSDOF 5
