REMARK  Name = ZINCrg00000aGqFc.0
REMARK                            x       y       z     vdW  Elec       q    Type
REMARK                         _______ _______ _______ _____ _____    ______ ____
ROOT
ATOM      1  C   LIG    1       -0.577  -1.133  -1.140  0.00  0.00    +0.200 C 
ATOM      2  N   LIG    1       -1.823  -0.690  -0.501  0.00  0.00    -0.540 NA
ATOM      3  C   LIG    1       -2.802  -1.783  -0.443  0.00  0.00    +0.170 C 
ATOM      4  C   LIG    1       -4.011  -1.338   0.386  0.00  0.00    +0.280 C 
ATOM      5  N   LIG    1       -4.521  -0.076  -0.171  0.00  0.00    -0.610 N 
ATOM      6  C   LIG    1       -3.569   1.024  -0.388  0.00  0.00    +0.300 C 
ATOM      7  C   LIG    1       -5.826   0.069  -0.475  0.00  0.00    +0.580 C 
ATOM      8  O   LIG    1       -6.244   1.142  -0.865  0.00  0.00    -0.530 OA
ATOM      9  C   LIG    1       -2.377   0.485  -1.187  0.00  0.00    +0.130 C 
ENDROOT
BRANCH   7  10
ATOM     10  C   LIG    1       -6.748  -1.075  -0.333  0.00  0.00    -0.240 A 
ATOM     11  C   LIG    1       -7.805  -1.219  -1.217  0.00  0.00    +0.400 A 
ATOM     12  N   LIG    1       -8.666  -2.240  -1.135  0.00  0.00    -0.490 N 
ATOM     13  H   LIG    1       -9.391  -2.309  -1.775  0.00  0.00    +0.430 HD
ATOM     14  C   LIG    1       -8.536  -3.189  -0.152  0.00  0.00    +0.250 A 
ATOM     15  N   LIG    1       -9.210  -4.275   0.180  0.00  0.00    -0.530 NA
ATOM     16  C   LIG    1       -8.665  -4.867   1.244  0.00  0.00    +0.220 A 
ATOM     17  C   LIG    1       -7.576  -4.180   1.675  0.00  0.00    -0.080 A 
ATOM     18  C   LIG    1       -7.433  -3.071   0.810  0.00  0.00    -0.160 A 
ATOM     19  C   LIG    1       -6.551  -2.006   0.700  0.00  0.00    +0.200 A 
ENDBRANCH   7  10
BRANCH   9  20
ATOM     20  C   LIG    1       -1.302   1.569  -1.292  0.00  0.00    +0.290 C 
BRANCH  20  21
ATOM     21  N   LIG    1       -0.766   1.857   0.041  0.00  0.00    -0.720 N 
ATOM     22  H   LIG    1       -1.154   1.431   0.822  0.00  0.00    +0.400 HD
ATOM     23  C   LIG    1        0.270   2.707   0.182  0.00  0.00    +0.590 C 
ATOM     24  O   LIG    1        0.756   3.241  -0.798  0.00  0.00    -0.530 OA
BRANCH  23  25
ATOM     25  C   LIG    1        0.810   2.991   1.516  0.00  0.00    -0.060 A 
ATOM     26  C   LIG    1        1.860   3.835   1.807  0.00  0.00    +0.050 A 
ATOM     27  C   LIG    1        2.037   3.807   3.194  0.00  0.00    -0.070 A 
ATOM     28  C   LIG    1        1.112   2.966   3.714  0.00  0.00    +0.200 A 
ATOM     29  N   LIG    1        0.357   2.467   2.705  0.00  0.00    -0.540 N 
ATOM     30  H   LIG    1       -0.380   1.843   2.805  0.00  0.00    +0.420 HD
ENDBRANCH  23  25
ENDBRANCH  20  21
ENDBRANCH   9  20
TORSDOF 4
