REMARK  Name = ZINCrg00000aGqFc.1
REMARK                            x       y       z     vdW  Elec       q    Type
REMARK                         _______ _______ _______ _____ _____    ______ ____
ROOT
ATOM      1  C   LIG    1        0.140   0.584   2.557  0.00  0.00    +0.200 C 
ATOM      2  N   LIG    1       -0.637   0.976   1.374  0.00  0.00    -0.540 NA
ATOM      3  C   LIG    1       -1.998   0.425   1.430  0.00  0.00    +0.170 C 
ATOM      4  C   LIG    1       -2.827   1.002   0.278  0.00  0.00    +0.280 C 
ATOM      5  N   LIG    1       -2.109   0.759  -0.982  0.00  0.00    -0.610 N 
ATOM      6  C   LIG    1       -0.696   1.161  -1.068  0.00  0.00    +0.300 C 
ATOM      7  C   LIG    1       -2.728   0.183  -2.032  0.00  0.00    +0.570 C 
ATOM      8  O   LIG    1       -2.143   0.059  -3.090  0.00  0.00    -0.530 OA
ATOM      9  C   LIG    1        0.049   0.578   0.138  0.00  0.00    +0.130 C 
ENDROOT
BRANCH   7  10
ATOM     10  C   LIG    1       -4.118  -0.298  -1.896  0.00  0.00    -0.210 A 
ATOM     11  C   LIG    1       -4.488  -1.551  -2.399  0.00  0.00    +0.360 A 
ATOM     12  N   LIG    1       -5.717  -1.998  -2.283  0.00  0.00    -0.500 NA
ATOM     13  C   LIG    1       -6.671  -1.286  -1.695  0.00  0.00    +0.300 A 
ATOM     14  N   LIG    1       -8.001  -1.520  -1.458  0.00  0.00    -0.580 N 
ATOM     15  H   LIG    1       -8.478  -2.325  -1.714  0.00  0.00    +0.420 HD
ATOM     16  C   LIG    1       -8.559  -0.453  -0.805  0.00  0.00    +0.250 A 
ATOM     17  C   LIG    1       -7.630   0.494  -0.600  0.00  0.00    -0.030 A 
ATOM     18  C   LIG    1       -6.378  -0.011  -1.168  0.00  0.00    -0.160 A 
ATOM     19  C   LIG    1       -5.083   0.494  -1.268  0.00  0.00    +0.140 A 
ENDBRANCH   7  10
BRANCH   9  20
ATOM     20  C   LIG    1        1.484   1.108   0.157  0.00  0.00    +0.290 C 
BRANCH  20  21
ATOM     21  N   LIG    1        1.467   2.555   0.382  0.00  0.00    -0.720 N 
ATOM     22  H   LIG    1        0.628   3.008   0.564  0.00  0.00    +0.400 HD
ATOM     23  C   LIG    1        2.616   3.258   0.336  0.00  0.00    +0.590 C 
ATOM     24  O   LIG    1        3.668   2.691   0.107  0.00  0.00    -0.530 OA
BRANCH  23  25
ATOM     25  C   LIG    1        2.599   4.708   0.561  0.00  0.00    -0.060 A 
ATOM     26  C   LIG    1        3.691   5.548   0.544  0.00  0.00    +0.050 A 
ATOM     27  C   LIG    1        3.221   6.839   0.805  0.00  0.00    -0.070 A 
ATOM     28  C   LIG    1        1.879   6.766   0.974  0.00  0.00    +0.190 A 
ATOM     29  N   LIG    1        1.488   5.477   0.823  0.00  0.00    -0.540 N 
ATOM     30  H   LIG    1        0.576   5.151   0.890  0.00  0.00    +0.420 HD
ENDBRANCH  23  25
ENDBRANCH  20  21
ENDBRANCH   9  20
TORSDOF 4
