REMARK  Name = ZINCnE000001TyDM.0
REMARK                            x       y       z     vdW  Elec       q    Type
REMARK                         _______ _______ _______ _____ _____    ______ ____
ROOT
ATOM      1  C   LIG    1       -5.146   2.251   5.005  0.00  0.00    -0.030 C 
ATOM      2  C   LIG    1       -4.808   3.184   6.170  0.00  0.00    +0.010 C 
ATOM      3  C   LIG    1       -3.363   3.671   6.032  0.00  0.00    +0.000 C 
ATOM      4  C   LIG    1       -3.213   4.451   4.728  0.00  0.00    +0.250 C 
ATOM      5  N   LIG    1       -3.676   3.614   3.613  0.00  0.00    -0.610 N 
ATOM      6  C   LIG    1       -2.884   3.390   2.546  0.00  0.00    +0.520 C 
ATOM      7  O   LIG    1       -3.304   2.759   1.600  0.00  0.00    -0.530 OA
ATOM      8  C   LIG    1       -5.019   3.020   3.686  0.00  0.00    +0.270 C 
ENDROOT
BRANCH   6   9
ATOM      9  C   LIG    1       -1.474   3.923   2.530  0.00  0.00    +0.000 C 
ATOM     10  C   LIG    1       -0.713   3.315   1.351  0.00  0.00    +0.040 C 
ATOM     11  C   LIG    1       -1.414   3.687   0.043  0.00  0.00    +0.040 C 
ATOM     12  C   LIG    1       -1.447   5.210  -0.102  0.00  0.00    +0.030 C 
ATOM     13  C   LIG    1       -2.209   5.819   1.077  0.00  0.00    -0.020 C 
ATOM     14  C   LIG    1       -1.507   5.446   2.384  0.00  0.00    +0.070 C 
BRANCH  13  15
ATOM     15  C   LIG    1       -2.242   7.341   0.931  0.00  0.00    +0.450 C 
ATOM     16  F   LIG    1       -2.939   7.898   2.010  0.00  0.00    -0.180 F 
ATOM     17  F   LIG    1       -0.934   7.837   0.916  0.00  0.00    -0.180 F 
ATOM     18  F   LIG    1       -2.884   7.682  -0.264  0.00  0.00    -0.180 F 
ENDBRANCH  13  15
ENDBRANCH   6   9
BRANCH   1  19
ATOM     19  C   LIG    1       -6.580   1.739   5.161  0.00  0.00    +0.030 C 
BRANCH  19  20
ATOM     20  C   LIG    1       -6.677   0.867   6.414  0.00  0.00    -0.070 C 
BRANCH  20  22
ATOM     21  O   LIG    1       -8.938   0.673   5.750  0.00  0.00    -0.700 OA
ATOM     22  C   LIG    1       -8.088   0.363   6.568  0.00  0.00    +0.490 C 
ATOM     23  O   LIG    1       -8.381  -0.354   7.509  0.00  0.00    -0.710 OA
ENDBRANCH  20  22
ENDBRANCH  19  20
ENDBRANCH   1  19
TORSDOF 5
