REMARK  Name = ZINCrD0000044DnS.0
REMARK                            x       y       z     vdW  Elec       q    Type
REMARK                         _______ _______ _______ _____ _____    ______ ____
ROOT
ATOM      1  C   LIG    1        5.964   0.429  -3.545  0.00  0.00    -0.040 C 
ATOM      2  C   LIG    1        4.471   0.722  -3.721  0.00  0.00    +0.320 C 
ATOM      3  N   LIG    1        3.763   0.317  -2.498  0.00  0.00    -0.620 N 
ATOM      4  C   LIG    1        3.949  -1.050  -1.994  0.00  0.00    +0.290 C 
ATOM      5  C   LIG    1        5.444  -1.325  -1.841  0.00  0.00    +0.030 C 
ATOM      6  C   LIG    1        2.962   1.186  -1.849  0.00  0.00    +0.530 C 
ATOM      7  O   LIG    1        2.821   2.313  -2.273  0.00  0.00    -0.520 OA
ATOM      8  C   LIG    1        6.151  -1.043  -3.169  0.00  0.00    +0.300 C 
ATOM      9  F   LIG    1        7.516  -1.321  -3.038  0.00  0.00    -0.190 F 
ATOM     10  F   LIG    1        5.603  -1.853  -4.169  0.00  0.00    -0.190 F 
ENDROOT
BRANCH   6  11
ATOM     11  C   LIG    1        2.243   0.756  -0.597  0.00  0.00    +0.020 C 
ATOM     12  C   LIG    1        0.878   1.471  -0.497  0.00  0.00    +0.050 C 
ATOM     13  C   LIG    1        0.710   1.762   1.015  0.00  0.00    +0.020 C 
ATOM     14  C   LIG    1        2.150   2.130   1.456  0.00  0.00    +0.050 C 
ATOM     15  C   LIG    1        3.045   1.179   0.642  0.00  0.00    -0.120 C 
ATOM     16  C   LIG    1        3.986   0.203   1.341  0.00  0.00    +0.030 C 
ATOM     17  C   LIG    1        4.553   1.396   0.568  0.00  0.00    +0.020 C 
ENDBRANCH   6  11
BRANCH   1  18
ATOM     18  C   LIG    1        6.699   0.718  -4.856  0.00  0.00    +0.290 C 
BRANCH  18  20
ATOM     19  C   LIG    1        8.992   0.758  -5.679  0.00  0.00    +0.590 C 
ATOM     20  N   LIG    1        8.140   0.553  -4.655  0.00  0.00    -0.730 N 
ATOM     21  H   LIG    1        8.482   0.296  -3.784  0.00  0.00    +0.400 HD
ATOM     22  O   LIG    1        8.563   1.079  -6.771  0.00  0.00    -0.540 OA
BRANCH  19  25
ATOM     23  C   LIG    1       11.227   1.156  -7.844  0.00  0.00    +0.190 C 
ATOM     24  C   LIG    1       11.428   0.760  -6.404  0.00  0.00    +0.090 A 
ATOM     25  C   LIG    1       10.442   0.592  -5.477  0.00  0.00    -0.250 A 
ATOM     26  C   LIG    1       11.128   0.216  -4.232  0.00  0.00    -0.030 A 
ATOM     27  C   LIG    1       12.437   0.186  -4.527  0.00  0.00    +0.180 A 
ATOM     28  O   LIG    1       12.604   0.514  -5.818  0.00  0.00    -0.170 OA
ENDBRANCH  19  25
ENDBRANCH  18  20
ENDBRANCH   1  18
TORSDOF 4
