REMARK  Name = ZINCrD000000BKmY.0
REMARK                            x       y       z     vdW  Elec       q    Type
REMARK                         _______ _______ _______ _____ _____    ______ ____
ROOT
ATOM      1  O   LIG    1        1.969  -1.194   1.112  0.00  0.00    -0.530 OA
ATOM      2  C   LIG    1        2.579  -0.426   1.830  0.00  0.00    +0.570 C 
ATOM      3  N   LIG    1        2.934   0.790   1.370  0.00  0.00    -0.730 N 
ATOM      4  H   LIG    1        3.421   1.402   1.943  0.00  0.00    +0.410 HD
ENDROOT
BRANCH   2   5
ATOM      5  C   LIG    1        2.933  -0.826   3.207  0.00  0.00    -0.170 A 
ATOM      6  C   LIG    1        3.643   0.057   4.032  0.00  0.00    +0.060 A 
ATOM      7  C   LIG    1        3.973  -0.297   5.307  0.00  0.00    +0.000 A 
ATOM      8  C   LIG    1        3.616  -1.549   5.803  0.00  0.00    +0.120 A 
ATOM      9  N   LIG    1        3.811  -2.170   7.014  0.00  0.00    -0.580 N 
ATOM     10  H   LIG    1        4.274  -1.779   7.771  0.00  0.00    +0.420 HD
ATOM     11  C   LIG    1        3.256  -3.419   6.994  0.00  0.00    +0.080 A 
ATOM     12  C   LIG    1        2.695  -3.645   5.792  0.00  0.00    -0.160 A 
ATOM     13  C   LIG    1        1.988  -4.917   5.400  0.00  0.00    +0.090 C 
ATOM     14  C   LIG    1        2.369  -6.013   6.404  0.00  0.00    +0.020 C 
ATOM     15  C   LIG    1        2.181  -5.481   7.828  0.00  0.00    +0.020 C 
ATOM     16  C   LIG    1        3.249  -4.423   8.124  0.00  0.00    +0.100 C 
ATOM     17  C   LIG    1        2.907  -2.449   4.981  0.00  0.00    -0.110 A 
ATOM     18  C   LIG    1        2.567  -2.082   3.681  0.00  0.00    +0.150 A 
ENDBRANCH   2   5
BRANCH   3  19
ATOM     19  C   LIG    1        2.583   1.187   0.004  0.00  0.00    +0.310 C 
ATOM     20  C   LIG    1        3.617   2.209  -0.509  0.00  0.00    -0.270 C 
ATOM     21  S   LIG    1        2.795   3.782  -0.041  0.00  0.00    +2.470 S 
ATOM     22  C   LIG    1        1.132   3.162  -0.001  0.00  0.00    -0.620 A 
ATOM     23  C   LIG    1       -0.076   3.828   0.019  0.00  0.00    +0.130 A 
ATOM     24  C   LIG    1       -1.262   3.118   0.031  0.00  0.00    +0.020 A 
ATOM     25  C   LIG    1       -1.220   1.737   0.017  0.00  0.00    +0.060 A 
ATOM     26  C   LIG    1       -0.013   1.076   0.008  0.00  0.00    +0.050 A 
ATOM     27  O   LIG    1        3.096   4.149   1.298  0.00  0.00    -0.920 OA
ATOM     28  O   LIG    1        2.824   4.723  -1.106  0.00  0.00    -0.920 OA
ATOM     29  C   LIG    1        1.195   1.780   0.000  0.00  0.00    -0.060 A 
ENDBRANCH   3  19
TORSDOF 2
