REMARK  Name = ZINCkj00000x9Crl.0
REMARK                            x       y       z     vdW  Elec       q    Type
REMARK                         _______ _______ _______ _____ _____    ______ ____
ROOT
ATOM      1  C   LIG    1       -0.689  -1.512  -3.175  0.00  0.00    +0.110 A 
ATOM      2  N   LIG    1       -1.025  -1.315  -1.923  0.00  0.00    -0.440 NA
ATOM      3  C   LIG    1       -0.068  -0.520  -1.412  0.00  0.00    +0.200 A 
ATOM      4  N   LIG    1        0.783  -0.274  -2.363  0.00  0.00    -0.340 NA
ATOM      5  O   LIG    1        0.447  -0.839  -3.383  0.00  0.00    +0.090 OA
ENDROOT
BRANCH   3   6
ATOM      6  C   LIG    1        0.002  -0.004   0.002  0.00  0.00    +0.160 C 
ATOM      7  C   LIG    1       -0.019   1.539   0.011  0.00  0.00    +0.070 C 
ATOM      8  C   LIG    1        1.484   1.891  -0.002  0.00  0.00    +0.080 C 
ATOM      9  C   LIG    1        2.174   0.703   0.634  0.00  0.00    -0.080 A 
ATOM     10  C   LIG    1        3.446   0.585   1.168  0.00  0.00    +0.020 A 
ATOM     11  C   LIG    1        3.866  -0.618   1.702  0.00  0.00    +0.030 A 
ATOM     12  C   LIG    1        3.015  -1.707   1.704  0.00  0.00    +0.010 A 
ATOM     13  C   LIG    1        1.746  -1.590   1.172  0.00  0.00    +0.020 A 
ATOM     14  C   LIG    1        1.323  -0.386   0.636  0.00  0.00    -0.110 A 
ENDBRANCH   3   6
BRANCH   1  15
ATOM     15  C   LIG    1       -1.440  -2.339  -4.187  0.00  0.00    +0.230 C 
ATOM     16  C   LIG    1       -1.484  -3.819  -3.743  0.00  0.00    +0.080 C 
ATOM     17  C   LIG    1       -1.289  -4.585  -5.077  0.00  0.00    +0.300 C 
ATOM     18  N   LIG    1       -0.312  -3.744  -5.814  0.00  0.00    -0.510 N 
ATOM     19  H   LIG    1        0.624  -3.923  -5.481  0.00  0.00    +0.440 HD
ATOM     20  H   LIG    1       -0.371  -3.929  -6.804  0.00  0.00    +0.440 HD
ATOM     21  C   LIG    1       -0.694  -2.343  -5.534  0.00  0.00    +0.320 C 
BRANCH  15  22
ATOM     22  O   LIG    1       -2.765  -1.832  -4.355  0.00  0.00    -0.520 OA
ATOM     23  H   LIG    1       -3.290  -1.826  -3.543  0.00  0.00    +0.410 HD
ENDBRANCH  15  22
ENDBRANCH   1  15
TORSDOF 3
