REMARK  Name = ZINCtj00000008nM.1
REMARK                            x       y       z     vdW  Elec       q    Type
REMARK                         _______ _______ _______ _____ _____    ______ ____
ROOT
ATOM      1  C   LIG    1        0.608   1.270  -0.059  0.00  0.00    +0.250 C 
ATOM      2  C   LIG    1        2.044   1.726  -0.322  0.00  0.00    +0.070 C 
ENDROOT
BRANCH   1   3
ATOM      3  C   LIG    1        0.127   1.850   1.246  0.00  0.00    +0.520 C 
ATOM      4  N   LIG    1        0.776   1.561   2.391  0.00  0.00    -0.750 N 
ATOM      5  H   LIG    1        1.552   0.980   2.376  0.00  0.00    +0.400 HD
ATOM      6  O   LIG    1       -0.843   2.577   1.265  0.00  0.00    -0.500 OA
BRANCH   4   7
ATOM      7  C   LIG    1        0.309   2.126   3.660  0.00  0.00    +0.320 C 
BRANCH   7   8
ATOM      8  C   LIG    1        1.272   1.728   4.780  0.00  0.00    +0.310 C 
BRANCH   8   9
ATOM      9  C   LIG    1        2.620   2.353   4.530  0.00  0.00    -0.110 A 
ATOM     10  C   LIG    1        3.092   3.466   5.121  0.00  0.00    +0.040 A 
ATOM     11  C   LIG    1        4.386   3.690   4.596  0.00  0.00    -0.050 A 
ATOM     12  C   LIG    1        4.626   2.702   3.715  0.00  0.00    +0.230 A 
ATOM     13  O   LIG    1        3.555   1.892   3.684  0.00  0.00    -0.180 OA
ENDBRANCH   8   9
BRANCH   8  14
ATOM     14  N   LIG    1        1.409   0.265   4.812  0.00  0.00    -0.390 N 
ATOM     15  C   LIG    1        0.089  -0.346   5.020  0.00  0.00    +0.330 C 
ATOM     16  C   LIG    1        2.305  -0.119   5.911  0.00  0.00    +0.330 C 
ATOM     17  H   LIG    1        1.794  -0.055   3.936  0.00  0.00    +0.420 HD
ENDBRANCH   8  14
ENDBRANCH   7   8
ENDBRANCH   4   7
ENDBRANCH   1   3
BRANCH   1  18
ATOM     18  N   LIG    1       -0.258   1.730  -1.147  0.00  0.00    -1.100 NA
ATOM     19  H   LIG    1       -0.636   2.623  -1.121  0.00  0.00    +0.430 HD
BRANCH  18  20
ATOM     20  S   LIG    1       -0.592   0.727  -2.421  0.00  0.00    +2.700 S 
ATOM     21  O   LIG    1        0.654   0.200  -2.855  0.00  0.00    -0.950 OA
ATOM     22  O   LIG    1       -1.473   1.443  -3.276  0.00  0.00    -0.940 OA
BRANCH  20  26
ATOM     23  C   LIG    1       -2.960  -2.771  -0.789  0.00  0.00    +0.210 A 
ATOM     24  C   LIG    1       -3.619  -1.636  -1.242  0.00  0.00    +0.010 A 
ATOM     25  C   LIG    1       -2.894  -0.571  -1.739  0.00  0.00    +0.160 A 
ATOM     26  C   LIG    1       -1.514  -0.634  -1.786  0.00  0.00    -0.700 A 
ATOM     27  C   LIG    1       -0.855  -1.765  -1.340  0.00  0.00    +0.130 A 
ATOM     28  C   LIG    1       -1.574  -2.832  -0.837  0.00  0.00    -0.030 A 
BRANCH  23  31
ATOM     29  C   LIG    1       -5.742  -5.232  -0.178  0.00  0.00    +0.110 C 
ATOM     30  C   LIG    1       -4.907  -4.139  -0.794  0.00  0.00    +0.510 C 
ATOM     31  N   LIG    1       -3.692  -3.853  -0.286  0.00  0.00    -0.680 N 
ATOM     32  H   LIG    1       -3.325  -4.396   0.429  0.00  0.00    +0.420 HD
ATOM     33  O   LIG    1       -5.328  -3.518  -1.747  0.00  0.00    -0.510 OA
ENDBRANCH  23  31
ENDBRANCH  20  26
ENDBRANCH  18  20
ENDBRANCH   1  18
TORSDOF 9
