REMARK  Name = ZINCtV00001bB3jr.0
REMARK                            x       y       z     vdW  Elec       q    Type
REMARK                         _______ _______ _______ _____ _____    ______ ____
ROOT
ATOM      1  C   LIG    1        1.463  -4.806  -0.039  0.00  0.00    +0.090 C 
ATOM      2  C   LIG    1        0.131  -4.102  -0.022  0.00  0.00    +0.140 C 
ATOM      3  N   LIG    1        0.082  -2.804  -0.015  0.00  0.00    -0.240 NA
ENDROOT
BRANCH   2   4
ATOM      4  C   LIG    1       -1.117  -4.886  -0.015  0.00  0.00    -0.010 A 
ATOM      5  C   LIG    1       -1.066  -6.282  -0.024  0.00  0.00    +0.030 A 
ATOM      6  C   LIG    1       -2.237  -7.010  -0.019  0.00  0.00    +0.080 A 
ATOM      7  C   LIG    1       -3.469  -6.364  -0.006  0.00  0.00    -0.140 A 
ATOM      8  S   LIG    1       -4.944  -7.326  -0.012  0.00  0.00    +0.030 S 
ATOM      9  C   LIG    1       -6.179  -6.176  -0.513  0.00  0.00    -0.160 A 
ATOM     10  C   LIG    1       -7.396  -6.649  -0.986  0.00  0.00    +0.070 A 
ATOM     11  C   LIG    1       -8.379  -5.762  -1.386  0.00  0.00    -0.010 A 
ATOM     12  C   LIG    1       -8.151  -4.401  -1.315  0.00  0.00    +0.050 A 
ATOM     13  C   LIG    1       -6.943  -3.923  -0.844  0.00  0.00    -0.030 A 
ATOM     14  C   LIG    1       -5.947  -4.806  -0.439  0.00  0.00    +0.190 A 
ATOM     15  N   LIG    1       -4.743  -4.288   0.032  0.00  0.00    -0.680 N 
ATOM     16  H   LIG    1       -4.750  -3.391   0.401  0.00  0.00    +0.410 HD
ATOM     17  C   LIG    1       -3.529  -4.971   0.008  0.00  0.00    +0.190 A 
ATOM     18  C   LIG    1       -2.353  -4.236   0.006  0.00  0.00    +0.020 A 
ENDBRANCH   2   4
BRANCH   3  19
ATOM     19  N   LIG    1        1.268  -2.058  -0.022  0.00  0.00    -0.570 N 
ATOM     20  H   LIG    1        2.126  -2.512  -0.032  0.00  0.00    +0.390 HD
BRANCH  19  21
ATOM     21  C   LIG    1        1.216  -0.675  -0.013  0.00  0.00    +0.270 A 
ATOM     22  C   LIG    1        0.002  -0.004   0.002  0.00  0.00    -0.080 A 
ATOM     23  C   LIG    1       -0.017   1.384   0.010  0.00  0.00    +0.330 A 
ATOM     24  N   LIG    1        1.089   2.092   0.003  0.00  0.00    -0.510 NA
ATOM     25  C   LIG    1        2.295   1.513  -0.012  0.00  0.00    +0.170 A 
ATOM     26  C   LIG    1        3.468   2.285  -0.019  0.00  0.00    +0.060 A 
ATOM     27  C   LIG    1        4.684   1.669  -0.036  0.00  0.00    -0.010 A 
ATOM     28  C   LIG    1        4.784   0.279  -0.044  0.00  0.00    +0.020 A 
ATOM     29  C   LIG    1        3.666  -0.501  -0.037  0.00  0.00    +0.050 A 
ATOM     30 CL   LIG    1        6.129   2.630  -0.046  0.00  0.00    -0.060 Cl
ATOM     31  C   LIG    1        2.401   0.101  -0.021  0.00  0.00    -0.140 A 
ENDBRANCH  19  21
ENDBRANCH   3  19
TORSDOF 3
