REMARK  Name = ZINCpe00000y5R7d.0
REMARK                            x       y       z     vdW  Elec       q    Type
REMARK                         _______ _______ _______ _____ _____    ______ ____
ROOT
ATOM      1  S   LIG    1       -1.234   4.662  -0.874  0.00  0.00    +2.720 S 
ATOM      2  O   LIG    1       -0.047   5.308  -0.436  0.00  0.00    -0.950 OA
ATOM      3  O   LIG    1       -2.411   5.367  -1.245  0.00  0.00    -0.960 OA
ENDROOT
BRANCH   1   7
ATOM      4  C   LIG    1       -0.013   1.086   0.008  0.00  0.00    +0.020 C 
ATOM      5  C   LIG    1       -0.730   1.580   1.268  0.00  0.00    +0.110 C 
ATOM      6  C   LIG    1       -0.691   3.111   1.303  0.00  0.00    +0.290 C 
ATOM      7  N   LIG    1       -1.674   3.622   0.336  0.00  0.00    -1.000 NA
ATOM      8  C   LIG    1       -3.064   3.171   0.492  0.00  0.00    +0.290 C 
ATOM      9  C   LIG    1       -3.087   1.646   0.536  0.00  0.00    +0.090 C 
ATOM     10  C   LIG    1       -4.460   1.194   1.105  0.00  0.00    +0.050 C 
ATOM     11  C   LIG    1       -5.320   1.176  -0.185  0.00  0.00    +0.210 C 
ATOM     12  O   LIG    1       -4.432   0.630  -1.180  0.00  0.00    -0.370 OA
ATOM     13  C   LIG    1       -3.097   1.074  -0.890  0.00  0.00    +0.180 C 
ATOM     14  C   LIG    1        0.040   1.053   2.493  0.00  0.00    +0.080 C 
ATOM     15  O   LIG    1       -2.058   1.094   1.321  0.00  0.00    -0.350 OA
ENDBRANCH   1   7
BRANCH   1  16
ATOM     16  C   LIG    1       -0.781   3.681  -2.266  0.00  0.00    -0.820 A 
ATOM     17  C   LIG    1       -1.612   3.263  -3.249  0.00  0.00    +0.370 A 
ATOM     18  N   LIG    1       -0.882   2.540  -4.124  0.00  0.00    -0.350 N 
ATOM     19  N   LIG    1        0.440   2.512  -3.664  0.00  0.00    -0.280 NA
ATOM     20  C   LIG    1        0.501   3.201  -2.553  0.00  0.00    +0.340 A 
BRANCH  18  21
ATOM     21  C   LIG    1       -1.385   1.897  -5.341  0.00  0.00    +0.250 C 
ATOM     22  C   LIG    1       -1.973   0.506  -5.016  0.00  0.00    +0.020 C 
ATOM     23  C   LIG    1       -3.457   0.619  -5.431  0.00  0.00    +0.210 C 
ATOM     24  O   LIG    1       -3.485   1.676  -6.416  0.00  0.00    -0.360 OA
ATOM     25  C   LIG    1       -2.583   2.687  -5.915  0.00  0.00    +0.220 C 
ENDBRANCH  18  21
ENDBRANCH   1  16
TORSDOF 3
