REMARK  Name = ZINCpe00000zfMMr.0
REMARK                            x       y       z     vdW  Elec       q    Type
REMARK                         _______ _______ _______ _____ _____    ______ ____
ROOT
ATOM      1  C   LIG    1        2.991   0.189  -4.113  0.00  0.00    +0.340 C 
ATOM      2  N   LIG    1        3.086   1.650  -4.086  0.00  0.00    -0.480 N 
ATOM      3  C   LIG    1        3.896   2.439  -4.855  0.00  0.00    +0.180 A 
ATOM      4  N   LIG    1        3.671   3.676  -4.511  0.00  0.00    -0.270 NA
ATOM      5  N   LIG    1        2.778   3.722  -3.588  0.00  0.00    -0.320 NA
ATOM      6  C   LIG    1        2.382   2.507  -3.291  0.00  0.00    +0.360 A 
ENDROOT
BRANCH   6   7
ATOM      7  N   LIG    1        1.431   2.159  -2.344  0.00  0.00    -0.440 N 
ATOM      8  C   LIG    1        0.888   3.357  -1.675  0.00  0.00    +0.240 C 
ATOM      9  C   LIG    1        1.112   3.170  -0.165  0.00  0.00    -0.010 C 
ATOM     10  C   LIG    1       -0.084   3.679   0.627  0.00  0.00    +0.060 C 
ATOM     11  C   LIG    1       -1.368   3.051   0.081  0.00  0.00    +0.070 C 
ATOM     12  C   LIG    1       -1.203   1.557   0.017  0.00  0.00    +0.530 C 
ATOM     13  N   LIG    1       -0.011   0.966   0.007  0.00  0.00    -0.710 N 
ATOM     14  H   LIG    1        0.002  -0.004   0.002  0.00  0.00    +0.400 HD
ATOM     15  O   LIG    1       -2.197   0.862   0.011  0.00  0.00    -0.550 OA
ATOM     16  C   LIG    1        1.273   1.647  -0.001  0.00  0.00    +0.250 C 
ATOM     17  C   LIG    1        2.020   1.250  -1.303  0.00  0.00    +0.200 C 
ENDBRANCH   6   7
BRANCH   3  18
ATOM     18  C   LIG    1        4.871   1.966  -5.901  0.00  0.00    +0.250 C 
BRANCH  18  19
ATOM     19  C   LIG    1        6.213   1.718  -5.261  0.00  0.00    -0.190 A 
ATOM     20  C   LIG    1        6.545   0.474  -4.845  0.00  0.00    +0.310 A 
ATOM     21  N   LIG    1        7.752   0.234  -4.271  0.00  0.00    -0.600 N 
ATOM     22  H   LIG    1        7.975  -0.665  -3.982  0.00  0.00    +0.420 HD
ATOM     23  C   LIG    1        8.641   1.230  -4.093  0.00  0.00    +0.520 A 
ATOM     24  C   LIG    1        8.326   2.536  -4.510  0.00  0.00    -0.160 A 
ATOM     25 CL   LIG    1        9.465   3.827  -4.285  0.00  0.00    -0.020 Cl
ATOM     26  O   LIG    1        9.720   0.999  -3.572  0.00  0.00    -0.520 OA
ATOM     27  C   LIG    1        7.116   2.778  -5.091  0.00  0.00    +0.160 A 
ENDBRANCH  18  19
ENDBRANCH   3  18
TORSDOF 3
