REMARK  Name = ZINCAx0000000hO8.0
REMARK                            x       y       z     vdW  Elec       q    Type
REMARK                         _______ _______ _______ _____ _____    ______ ____
ROOT
ATOM      1  C   LIG    1       -1.276  11.103  -2.202  0.00  0.00    +0.340 C 
ATOM      2  N   LIG    1       -1.738   9.719  -2.071  0.00  0.00    -0.550 N 
ATOM      3  C   LIG    1       -0.903   8.707  -2.386  0.00  0.00    +0.590 A 
ATOM      4  C   LIG    1       -1.355   7.375  -2.257  0.00  0.00    -0.140 A 
ATOM      5  C   LIG    1       -2.648   7.140  -1.808  0.00  0.00    +0.320 A 
ATOM      6  N   LIG    1       -3.457   8.222  -1.501  0.00  0.00    -0.510 N 
ATOM      7  C   LIG    1       -4.825   8.001  -1.027  0.00  0.00    +0.340 C 
ATOM      8  N   LIG    1       -2.823   5.816  -1.782  0.00  0.00    -0.490 NA
ATOM      9  C   LIG    1       -1.728   5.216  -2.174  0.00  0.00    +0.300 A 
ATOM     10  N   LIG    1       -0.792   6.135  -2.482  0.00  0.00    -0.390 N 
ATOM     11  O   LIG    1        0.226   8.939  -2.778  0.00  0.00    -0.490 OA
ATOM     12  C   LIG    1       -2.987   9.476  -1.639  0.00  0.00    +0.710 A 
ATOM     13  O   LIG    1       -3.712  10.414  -1.364  0.00  0.00    -0.530 OA
ENDROOT
BRANCH   9  14
ATOM     14  C   LIG    1       -1.544   3.724  -2.272  0.00  0.00    +0.310 C 
BRANCH  14  15
ATOM     15  N   LIG    1       -1.142   3.193  -0.963  0.00  0.00    -0.520 NA
ATOM     16  C   LIG    1       -1.183   1.724  -0.955  0.00  0.00    +0.190 C 
ATOM     17  C   LIG    1       -0.682   1.209   0.396  0.00  0.00    +0.200 C 
ATOM     18  N   LIG    1       -1.520   1.762   1.470  0.00  0.00    -0.490 N 
ATOM     19  C   LIG    1       -1.479   3.231   1.462  0.00  0.00    +0.210 C 
ATOM     20  C   LIG    1       -1.980   3.746   0.110  0.00  0.00    +0.180 C 
BRANCH  18  21
ATOM     21  C   LIG    1       -1.136   1.256   2.716  0.00  0.00    +0.090 A 
ATOM     22  C   LIG    1       -1.188  -0.109   2.959  0.00  0.00    +0.030 A 
ATOM     23  C   LIG    1       -0.802  -0.606   4.189  0.00  0.00    +0.030 A 
ATOM     24  C   LIG    1       -0.376   0.255   5.182  0.00  0.00    +0.010 A 
ATOM     25  C   LIG    1       -0.328   1.618   4.947  0.00  0.00    +0.000 A 
ATOM     26  C   LIG    1       -0.706   2.122   3.717  0.00  0.00    +0.050 A 
ATOM     27  F   LIG    1       -0.659   3.452   3.487  0.00  0.00    -0.140 F 
ENDBRANCH  18  21
ENDBRANCH  14  15
ENDBRANCH   9  14
BRANCH  10  28
ATOM     28  C   LIG    1        0.565   5.868  -2.964  0.00  0.00    +0.380 C 
BRANCH  28  29
ATOM     29  C   LIG    1        1.474   5.609  -1.790  0.00  0.00    -0.160 A 
ATOM     30  C   LIG    1        2.003   6.671  -1.077  0.00  0.00    +0.140 A 
ATOM     31  C   LIG    1        2.834   6.431   0.005  0.00  0.00    -0.020 A 
ATOM     32  C   LIG    1        3.143   5.133   0.365  0.00  0.00    +0.080 A 
ATOM     33  C   LIG    1        2.618   4.073  -0.351  0.00  0.00    +0.010 A 
ATOM     34  F   LIG    1        1.705   7.939  -1.432  0.00  0.00    -0.110 F 
ATOM     35  C   LIG    1        1.784   4.310  -1.429  0.00  0.00    +0.040 A 
ATOM     36 CL   LIG    1        1.127   2.978  -2.328  0.00  0.00    -0.040 Cl
ENDBRANCH  28  29
ENDBRANCH  10  28
TORSDOF 5
