REMARK  Name = ZINCvU000000042J.0
REMARK                            x       y       z     vdW  Elec       q    Type
REMARK                         _______ _______ _______ _____ _____    ______ ____
ROOT
ATOM      1  O   LIG    1       -1.342   2.889  -0.186  0.00  0.00    -0.520 OA
ATOM      2  C   LIG    1       -1.279   1.679  -0.093  0.00  0.00    +0.560 C 
ATOM      3  N   LIG    1       -0.080   1.063  -0.124  0.00  0.00    -0.670 N 
ATOM      4  H   LIG    1       -0.033   0.094  -0.118  0.00  0.00    +0.410 HD
ENDROOT
BRANCH   2   5
ATOM      5  C   LIG    1       -2.513   0.884   0.053  0.00  0.00    -0.150 A 
ATOM      6  C   LIG    1       -2.442  -0.508   0.154  0.00  0.00    +0.070 A 
ATOM      7  C   LIG    1       -3.595  -1.246   0.295  0.00  0.00    +0.020 A 
ATOM      8  C   LIG    1       -4.832  -0.609   0.326  0.00  0.00    +0.170 A 
ATOM      9  C   LIG    1       -4.907   0.777   0.221  0.00  0.00    -0.010 A 
ATOM     10  C   LIG    1       -3.757   1.521   0.085  0.00  0.00    +0.110 A 
BRANCH   8  11
ATOM     11  N   LIG    1       -5.998  -1.359   0.463  0.00  0.00    -0.660 N 
ATOM     12  H   LIG    1       -6.809  -1.083   0.008  0.00  0.00    +0.420 HD
ATOM     13  C   LIG    1       -5.998  -2.470   1.227  0.00  0.00    +0.610 C 
ATOM     14  O   LIG    1       -4.962  -2.863   1.729  0.00  0.00    -0.500 OA
BRANCH  13  15
ATOM     15  C   LIG    1       -7.248  -3.203   1.453  0.00  0.00    -0.090 A 
ATOM     16  C   LIG    1       -7.388  -4.337   2.201  0.00  0.00    +0.060 A 
ATOM     17  C   LIG    1       -8.745  -4.692   2.144  0.00  0.00    -0.070 A 
ATOM     18  C   LIG    1       -9.365  -3.772   1.372  0.00  0.00    +0.220 A 
ATOM     19  O   LIG    1       -8.460  -2.874   0.962  0.00  0.00    -0.170 OA
ENDBRANCH  13  15
ENDBRANCH   8  11
ENDBRANCH   2   5
BRANCH   3  20
ATOM     20  C   LIG    1        1.096   1.821  -0.171  0.00  0.00    +0.100 A 
ATOM     21  C   LIG    1        1.126   3.013  -0.882  0.00  0.00    +0.060 A 
ATOM     22  C   LIG    1        2.284   3.764  -0.922  0.00  0.00    -0.060 A 
ATOM     23  C   LIG    1        3.421   3.321  -0.262  0.00  0.00    +0.120 A 
ATOM     24  C   LIG    1        3.394   2.127   0.443  0.00  0.00    +0.010 A 
ATOM     25  C   LIG    1        2.235   1.379   0.490  0.00  0.00    +0.030 A 
BRANCH  23  26
ATOM     26  O   LIG    1        4.564   4.058  -0.307  0.00  0.00    -0.310 OA
BRANCH  26  27
ATOM     27  C   LIG    1        4.520   5.277  -1.052  0.00  0.00    +0.240 C 
BRANCH  27  28
ATOM     28  C   LIG    1        5.866   5.951  -0.990  0.00  0.00    -0.100 A 
ATOM     29  C   LIG    1        6.141   6.855   0.020  0.00  0.00    +0.020 A 
ATOM     30  C   LIG    1        7.377   7.470   0.080  0.00  0.00    +0.010 A 
ATOM     31  C   LIG    1        8.336   7.189  -0.875  0.00  0.00    +0.010 A 
ATOM     32  C   LIG    1        8.060   6.290  -1.889  0.00  0.00    +0.010 A 
ATOM     33  C   LIG    1        6.825   5.671  -1.946  0.00  0.00    +0.020 A 
ENDBRANCH  27  28
ENDBRANCH  26  27
ENDBRANCH  23  26
ENDBRANCH   3  20
TORSDOF 7
