REMARK  Name = ZINCrg000000qdBb.0
REMARK                            x       y       z     vdW  Elec       q    Type
REMARK                         _______ _______ _______ _____ _____    ______ ____
ROOT
ATOM      1  C   LIG    1       -2.408  -0.311  -0.091  0.00  0.00    +0.560 C 
ATOM      2  N   LIG    1       -2.428   1.032   0.019  0.00  0.00    -0.660 N 
ATOM      3  H   LIG    1       -3.273   1.500   0.103  0.00  0.00    +0.410 HD
ATOM      4  O   LIG    1       -1.347  -0.905  -0.099  0.00  0.00    -0.500 OA
ENDROOT
BRANCH   2   5
ATOM      5  C   LIG    1       -1.227   1.753   0.011  0.00  0.00    +0.150 A 
ATOM      6  C   LIG    1       -1.112   2.916   0.763  0.00  0.00    +0.010 A 
ATOM      7  C   LIG    1        0.071   3.628   0.765  0.00  0.00    +0.060 A 
ATOM      8  C   LIG    1        1.146   3.184   0.011  0.00  0.00    +0.080 A 
ATOM      9  N   LIG    1        2.438   3.671  -0.190  0.00  0.00    -0.640 N 
ATOM     10  H   LIG    1        2.812   4.471   0.210  0.00  0.00    +0.440 HD
ATOM     11  C   LIG    1        3.077   2.839  -1.034  0.00  0.00    +0.690 A 
ATOM     12  N   LIG    1        2.256   1.833  -1.389  0.00  0.00    -0.640 N 
ATOM     13  H   LIG    1        2.478   1.103  -1.988  0.00  0.00    +0.440 HD
ATOM     14  O   LIG    1        4.224   2.975  -1.418  0.00  0.00    -0.550 OA
ATOM     15  C   LIG    1        1.032   2.019  -0.751  0.00  0.00    +0.110 A 
ATOM     16  C   LIG    1       -0.157   1.307  -0.750  0.00  0.00    +0.030 A 
ENDBRANCH   2   5
BRANCH   1  20
ATOM     17  C   LIG    1       -6.053  -2.469  -0.406  0.00  0.00    -0.650 A 
ATOM     18  C   LIG    1       -4.847  -3.148  -0.416  0.00  0.00    +0.130 A 
ATOM     19  C   LIG    1       -3.660  -2.453  -0.314  0.00  0.00    +0.070 A 
ATOM     20  C   LIG    1       -3.676  -1.062  -0.201  0.00  0.00    -0.080 A 
ATOM     21  C   LIG    1       -4.896  -0.384  -0.185  0.00  0.00    +0.030 A 
ATOM     22  C   LIG    1       -6.076  -1.090  -0.294  0.00  0.00    +0.120 A 
BRANCH  17  23
ATOM     23  S   LIG    1       -7.565  -3.365  -0.537  0.00  0.00    +2.700 S 
ATOM     24  O   LIG    1       -7.248  -4.595  -1.173  0.00  0.00    -0.950 OA
ATOM     25  O   LIG    1       -8.528  -2.452  -1.046  0.00  0.00    -0.950 OA
BRANCH  23  26
ATOM     26  N   LIG    1       -8.045  -3.743   1.002  0.00  0.00    -1.110 NA
ATOM     27  H   LIG    1       -8.083  -4.670   1.284  0.00  0.00    +0.430 HD
BRANCH  26  28
ATOM     28  C   LIG    1       -8.413  -2.677   1.937  0.00  0.00    +0.300 C 
BRANCH  28  29
ATOM     29  C   LIG    1       -9.160  -3.280   3.129  0.00  0.00    +0.180 C 
BRANCH  29  31
ATOM     30  C   LIG    1       -8.883  -4.754   4.998  0.00  0.00    +0.200 C 
ATOM     31  O   LIG    1       -8.280  -4.137   3.859  0.00  0.00    -0.390 OA
ENDBRANCH  29  31
ENDBRANCH  28  29
ENDBRANCH  26  28
ENDBRANCH  23  26
ENDBRANCH  17  23
ENDBRANCH   1  20
TORSDOF 7
