REMARK  Name = ZINCkj000005f6qP.1
REMARK                            x       y       z     vdW  Elec       q    Type
REMARK                         _______ _______ _______ _____ _____    ______ ____
ROOT
ATOM      1  N   LIG    1       -2.444   1.640  -0.078  0.00  0.00    -0.580 N 
ATOM      2  C   LIG    1       -1.210   2.181  -0.026  0.00  0.00    +0.580 C 
ATOM      3  O   LIG    1       -1.078   3.382   0.098  0.00  0.00    -0.490 OA
ENDROOT
BRANCH   1   4
ATOM      4  C   LIG    1       -3.623   2.509  -0.128  0.00  0.00    +0.220 C 
ATOM      5  C   LIG    1       -3.530   3.479  -1.330  0.00  0.00    +0.020 C 
ATOM      6  C   LIG    1       -4.067   4.801  -0.723  0.00  0.00    +0.210 C 
ATOM      7  O   LIG    1       -3.550   4.786   0.625  0.00  0.00    -0.360 OA
ATOM      8  C   LIG    1       -3.662   3.435   1.103  0.00  0.00    +0.200 C 
ENDBRANCH   1   4
BRANCH   2   9
ATOM      9  C   LIG    1       -0.014   1.309  -0.120  0.00  0.00    -0.010 A 
ATOM     10  N   LIG    1        0.004   0.001  -0.179  0.00  0.00    -0.290 NA
ATOM     11  O   LIG    1        1.134  -0.423  -0.255  0.00  0.00    +0.140 OA
ATOM     12  C   LIG    1        2.038   0.566  -0.258  0.00  0.00    -0.120 A 
ATOM     13  C   LIG    1        1.345   1.725  -0.171  0.00  0.00    +0.080 A 
BRANCH  12  14
ATOM     14  C   LIG    1        3.535   0.416  -0.342  0.00  0.00    +0.410 C 
BRANCH  14  15
ATOM     15  N   LIG    1        4.093   0.306   1.013  0.00  0.00    -0.390 N 
ATOM     16  C   LIG    1        3.868   1.564   1.738  0.00  0.00    +0.320 C 
ATOM     17  C   LIG    1        5.535   0.041   0.929  0.00  0.00    +0.340 C 
ATOM     18  H   LIG    1        3.639  -0.450   1.503  0.00  0.00    +0.430 HD
ENDBRANCH  14  15
ENDBRANCH  12  14
ENDBRANCH   2   9
BRANCH   1  20
ATOM     19  C   LIG    1       -3.578  -0.226   1.023  0.00  0.00    +0.040 C 
ATOM     20  C   LIG    1       -2.606   0.184  -0.085  0.00  0.00    +0.230 C 
ATOM     21  C   LIG    1       -3.160  -0.261  -1.440  0.00  0.00    +0.030 C 
ENDBRANCH   1  20
TORSDOF 5
