REMARK  Name = ZINCtV000002P9dn.0
REMARK                            x       y       z     vdW  Elec       q    Type
REMARK                         _______ _______ _______ _____ _____    ______ ____
ROOT
ATOM      1  C   LIG    1       -2.423   4.126   0.259  0.00  0.00    -0.070 A 
ATOM      2  C   LIG    1       -3.652   3.489   0.364  0.00  0.00    +0.070 A 
ATOM      3  C   LIG    1       -4.818   4.259   0.490  0.00  0.00    +0.190 A 
ATOM      4  N   LIG    1       -4.795   5.575   0.501  0.00  0.00    -0.440 NA
ATOM      5  C   LIG    1       -3.660   6.269   0.399  0.00  0.00    +0.130 A 
ATOM      6  C   LIG    1       -3.666   7.676   0.413  0.00  0.00    +0.050 A 
ATOM      7  C   LIG    1       -2.492   8.357   0.307  0.00  0.00    +0.040 A 
ATOM      8  C   LIG    1       -1.279   7.684   0.184  0.00  0.00    +0.030 A 
ATOM      9  C   LIG    1       -1.234   6.321   0.167  0.00  0.00    +0.050 A 
ATOM     10  C   LIG    1       -2.422   5.589   0.273  0.00  0.00    -0.060 A 
ENDROOT
BRANCH   3  11
ATOM     11  C   LIG    1       -6.124   3.566   0.609  0.00  0.00    -0.060 A 
ATOM     12  C   LIG    1       -6.180   2.173   0.595  0.00  0.00    +0.030 A 
ATOM     13  C   LIG    1       -7.397   1.533   0.711  0.00  0.00    +0.010 A 
ATOM     14  C   LIG    1       -8.561   2.271   0.830  0.00  0.00    +0.030 A 
ATOM     15  C   LIG    1       -8.512   3.654   0.839  0.00  0.00    +0.000 A 
ATOM     16  C   LIG    1       -7.300   4.304   0.729  0.00  0.00    +0.070 A 
ENDBRANCH   3  11
BRANCH   1  18
ATOM     17  O   LIG    1       -0.098   3.933   0.152  0.00  0.00    -0.470 OA
ATOM     18  C   LIG    1       -1.167   3.358   0.130  0.00  0.00    +0.510 C 
BRANCH  18  19
ATOM     19  O   LIG    1       -1.208   2.018  -0.011  0.00  0.00    -0.280 OA
BRANCH  19  20
ATOM     20  C   LIG    1       -0.019   1.361  -0.008  0.00  0.00    +0.090 A 
ATOM     21  C   LIG    1        0.416   0.751  -1.150  0.00  0.00    +0.040 A 
ATOM     22  C   LIG    1        1.648   0.076  -1.151  0.00  0.00    -0.040 A 
ATOM     23  C   LIG    1        2.128  -0.563  -2.307  0.00  0.00    +0.030 A 
ATOM     24  C   LIG    1        3.327  -1.207  -2.271  0.00  0.00    +0.020 A 
ATOM     25  C   LIG    1        4.087  -1.244  -1.105  0.00  0.00    +0.020 A 
ATOM     26  C   LIG    1        3.654  -0.636   0.034  0.00  0.00    +0.030 A 
ATOM     27  C   LIG    1        2.422   0.039   0.036  0.00  0.00    -0.050 A 
ATOM     28  C   LIG    1        1.943   0.678   1.194  0.00  0.00    +0.060 A 
ATOM     29  C   LIG    1        0.746   1.323   1.162  0.00  0.00    +0.010 A 
ENDBRANCH  19  20
ENDBRANCH  18  19
ENDBRANCH   1  18
TORSDOF 4
