REMARK  Name = ZINCrg00000zXfgW.0
REMARK                            x       y       z     vdW  Elec       q    Type
REMARK                         _______ _______ _______ _____ _____    ______ ____
ROOT
ATOM      1  C   LIG    1       -1.468  -0.080  -0.209  0.00  0.00    +0.040 C 
ATOM      2  C   LIG    1       -0.672   0.597   0.909  0.00  0.00    -0.010 C 
ATOM      3  C   LIG    1       -0.421   2.077   0.567  0.00  0.00    +0.270 C 
ATOM      4  N   LIG    1        1.039   2.257   0.463  0.00  0.00    -0.610 N 
ATOM      5  C   LIG    1        1.640   1.194   1.302  0.00  0.00    +0.270 C 
ATOM      6  C   LIG    1        1.693   3.195  -0.250  0.00  0.00    +0.510 C 
ATOM      7  O   LIG    1        2.900   3.285  -0.171  0.00  0.00    -0.530 OA
ATOM      8  C   LIG    1        0.736  -0.033   1.023  0.00  0.00    -0.020 C 
ENDROOT
BRANCH   6   9
ATOM      9  C   LIG    1        0.924   4.132  -1.146  0.00  0.00    +0.120 C 
ATOM     10  C   LIG    1        1.878   4.791  -2.163  0.00  0.00    +0.040 C 
ATOM     11  C   LIG    1        1.343   6.238  -2.303  0.00  0.00    +0.020 C 
ATOM     12  C   LIG    1        0.914   6.585  -0.855  0.00  0.00    +0.020 C 
ATOM     13  C   LIG    1        0.311   5.272  -0.314  0.00  0.00    +0.050 C 
BRANCH   9  14
ATOM     14  O   LIG    1       -0.106   3.417  -1.831  0.00  0.00    -0.540 OA
ATOM     15  H   LIG    1        0.222   2.751  -2.450  0.00  0.00    +0.380 HD
ENDBRANCH   9  14
ENDBRANCH   6   9
BRANCH   8  16
ATOM     16  C   LIG    1        0.793  -1.024   2.187  0.00  0.00    +0.280 C 
BRANCH  16  17
ATOM     17  N   LIG    1        2.098  -1.691   2.197  0.00  0.00    -0.730 N 
ATOM     18  H   LIG    1        2.760  -1.469   1.524  0.00  0.00    +0.400 HD
ATOM     19  C   LIG    1        2.377  -2.612   3.141  0.00  0.00    +0.520 C 
ATOM     20  O   LIG    1        1.548  -2.889   3.982  0.00  0.00    -0.530 OA
BRANCH  19  21
ATOM     21  C   LIG    1        3.719  -3.297   3.151  0.00  0.00    +0.010 C 
ATOM     22  C   LIG    1        3.776  -4.290   4.316  0.00  0.00    +0.050 C 
ATOM     23  C   LIG    1        5.212  -4.802   4.482  0.00  0.00    +0.120 C 
ATOM     24  C   LIG    1        5.713  -5.261   3.135  0.00  0.00    +0.010 A 
ATOM     25  C   LIG    1        5.136  -4.927   1.961  0.00  0.00    -0.030 A 
ATOM     26  N   LIG    1        5.860  -5.524   0.975  0.00  0.00    -0.560 N 
ATOM     27  H   LIG    1        5.690  -5.471   0.021  0.00  0.00    +0.420 HD
ATOM     28  C   LIG    1        6.861  -6.207   1.577  0.00  0.00    +0.390 A 
ATOM     29  N   LIG    1        6.764  -6.042   2.870  0.00  0.00    -0.490 NA
ATOM     30  C   LIG    1        3.918  -4.050   1.829  0.00  0.00    +0.130 C 
ENDBRANCH  19  21
ENDBRANCH  16  17
ENDBRANCH   8  16
TORSDOF 5
