REMARK  Name = ZINCrg00000zXfgW.1
REMARK                            x       y       z     vdW  Elec       q    Type
REMARK                         _______ _______ _______ _____ _____    ______ ____
ROOT
ATOM      1  C   LIG    1       -7.526   2.398  -2.814  0.00  0.00    +0.050 C 
ATOM      2  C   LIG    1       -6.483   1.368  -3.254  0.00  0.00    +0.000 C 
ATOM      3  C   LIG    1       -7.144  -0.004  -3.538  0.00  0.00    +0.260 C 
ATOM      4  N   LIG    1       -6.065  -0.990  -3.341  0.00  0.00    -0.620 N 
ATOM      5  C   LIG    1       -5.055  -0.411  -2.443  0.00  0.00    +0.240 C 
ATOM      6  C   LIG    1       -6.013  -2.218  -3.894  0.00  0.00    +0.520 C 
ATOM      7  O   LIG    1       -6.948  -2.629  -4.548  0.00  0.00    -0.520 OA
ATOM      8  C   LIG    1       -5.522   1.016  -2.087  0.00  0.00    -0.010 C 
ENDROOT
BRANCH   6   9
ATOM      9  C   LIG    1       -4.793  -3.081  -3.699  0.00  0.00    +0.120 C 
ATOM     10  C   LIG    1       -3.695  -2.679  -4.705  0.00  0.00    +0.020 C 
ATOM     11  C   LIG    1       -3.032  -4.022  -5.100  0.00  0.00    +0.020 C 
ATOM     12  C   LIG    1       -4.237  -4.995  -5.159  0.00  0.00    +0.020 C 
ATOM     13  C   LIG    1       -5.137  -4.553  -3.987  0.00  0.00    +0.060 C 
BRANCH   9  14
ATOM     14  O   LIG    1       -4.306  -2.944  -2.362  0.00  0.00    -0.550 OA
ATOM     15  H   LIG    1       -3.849  -2.109  -2.194  0.00  0.00    +0.370 HD
ENDBRANCH   9  14
ENDBRANCH   6   9
BRANCH   8  16
ATOM     16  C   LIG    1       -4.336   1.982  -2.053  0.00  0.00    +0.280 C 
BRANCH  16  17
ATOM     17  N   LIG    1       -3.448   1.625  -0.944  0.00  0.00    -0.730 N 
ATOM     18  H   LIG    1       -3.665   0.872  -0.372  0.00  0.00    +0.400 HD
ATOM     19  C   LIG    1       -2.329   2.342  -0.719  0.00  0.00    +0.520 C 
ATOM     20  O   LIG    1       -2.058   3.284  -1.434  0.00  0.00    -0.530 OA
BRANCH  19  21
ATOM     21  C   LIG    1       -1.416   1.976   0.422  0.00  0.00    -0.010 C 
ATOM     22  C   LIG    1       -0.228   2.941   0.456  0.00  0.00    +0.080 C 
ATOM     23  C   LIG    1        0.822   2.425   1.447  0.00  0.00    +0.120 C 
ATOM     24  C   LIG    1        0.130   2.097   2.745  0.00  0.00    -0.020 A 
ATOM     25  C   LIG    1       -1.204   1.939   2.881  0.00  0.00    +0.000 A 
ATOM     26  N   LIG    1       -1.458   1.660   4.162  0.00  0.00    -0.480 NA
ATOM     27  C   LIG    1       -0.332   1.637   4.827  0.00  0.00    +0.390 A 
ATOM     28  N   LIG    1        0.683   1.905   3.974  0.00  0.00    -0.560 N 
ATOM     29  H   LIG    1        1.626   1.952   4.196  0.00  0.00    +0.420 HD
ATOM     30  C   LIG    1       -2.188   2.066   1.744  0.00  0.00    +0.140 C 
ENDBRANCH  19  21
ENDBRANCH  16  17
ENDBRANCH   8  16
TORSDOF 5
