REMARK  Name = ZINCrg00000zUJJW.0
REMARK                            x       y       z     vdW  Elec       q    Type
REMARK                         _______ _______ _______ _____ _____    ______ ____
ROOT
ATOM      1  N   LIG    1       -2.705   6.849  -0.325  0.00  0.00    -0.450 N 
ATOM      2  C   LIG    1       -1.669   6.249   0.327  0.00  0.00    +0.480 A 
ATOM      3  N   LIG    1       -1.855   4.962   0.366  0.00  0.00    -0.450 NA
ATOM      4  C   LIG    1       -3.024   4.656  -0.245  0.00  0.00    -0.060 A 
ATOM      5  C   LIG    1       -3.724   3.464  -0.501  0.00  0.00    +0.420 A 
ATOM      6  N   LIG    1       -4.885   3.537  -1.143  0.00  0.00    -0.520 NA
ATOM      7  C   LIG    1       -5.375   4.697  -1.541  0.00  0.00    +0.540 A 
ATOM      8  N   LIG    1       -4.752   5.837  -1.329  0.00  0.00    -0.530 NA
ATOM      9  C   LIG    1       -3.585   5.864  -0.695  0.00  0.00    +0.290 A 
ENDROOT
BRANCH   5  10
ATOM     10  N   LIG    1       -3.219   2.244  -0.088  0.00  0.00    -0.440 N 
ATOM     11  C   LIG    1       -3.101   2.190   1.387  0.00  0.00    +0.220 C 
ATOM     12  C   LIG    1       -3.396   0.743   1.805  0.00  0.00    -0.070 C 
ATOM     13  C   LIG    1       -3.719  -0.009   0.499  0.00  0.00    +0.040 C 
ATOM     14  C   LIG    1       -2.174   0.124   2.476  0.00  0.00    +0.020 C 
ATOM     15  C   LIG    1       -2.514  -1.300   2.928  0.00  0.00    +0.210 C 
ATOM     16  O   LIG    1       -3.649  -1.263   3.795  0.00  0.00    -0.380 OA
ATOM     17  C   LIG    1       -4.836  -0.752   3.185  0.00  0.00    +0.210 C 
ATOM     18  C   LIG    1       -4.598   0.696   2.745  0.00  0.00    +0.010 C 
ATOM     19  C   LIG    1       -4.133   1.135  -0.463  0.00  0.00    +0.170 C 
BRANCH  19  20
ATOM     20  C   LIG    1       -3.913   0.722  -1.919  0.00  0.00    +0.190 C 
BRANCH  20  21
ATOM     21  O   LIG    1       -4.409   1.745  -2.784  0.00  0.00    -0.550 OA
ATOM     22  H   LIG    1       -4.302   1.550  -3.726  0.00  0.00    +0.370 HD
ENDBRANCH  20  21
ENDBRANCH  19  20
ENDBRANCH   5  10
BRANCH   1  23
ATOM     23  C   LIG    1       -2.859   8.285  -0.571  0.00  0.00    +0.040 C 
ATOM     24  C   LIG    1       -2.812   9.219   0.640  0.00  0.00    +0.070 C 
ATOM     25  C   LIG    1       -4.141   8.954  -0.071  0.00  0.00    +0.080 C 
BRANCH  23  27
ATOM     26  C   LIG    1       -0.743   8.597  -1.863  0.00  0.00    +0.010 C 
ATOM     27  C   LIG    1       -2.259   8.798  -1.882  0.00  0.00    +0.260 C 
BRANCH  27  28
ATOM     28  O   LIG    1       -2.822   8.075  -2.978  0.00  0.00    -0.540 OA
ATOM     29  H   LIG    1       -2.661   7.122  -2.945  0.00  0.00    +0.370 HD
ENDBRANCH  27  28
ENDBRANCH  23  27
ENDBRANCH   1  23
TORSDOF 6
