REMARK  Name = ZINCvU00000003Pb.0
REMARK                            x       y       z     vdW  Elec       q    Type
REMARK                         _______ _______ _______ _____ _____    ______ ____
ROOT
ATOM      1  N   LIG    1        0.680   6.636  -0.283  0.00  0.00    -0.480 N 
ATOM      2  C   LIG    1        1.016   5.340   0.076  0.00  0.00    +0.190 A 
ATOM      3  C   LIG    1        2.382   5.146  -0.177  0.00  0.00    -0.100 A 
ATOM      4  C   LIG    1        2.892   6.417  -0.725  0.00  0.00    +0.110 A 
ATOM      5  N   LIG    1        4.084   6.807  -1.135  0.00  0.00    -0.380 NA
ATOM      6  C   LIG    1        4.252   8.050  -1.594  0.00  0.00    +0.060 A 
ATOM      7  C   LIG    1        5.512   8.491  -2.038  0.00  0.00    +0.070 A 
ATOM      8  C   LIG    1        5.657   9.762  -2.502  0.00  0.00    +0.030 A 
ATOM      9  C   LIG    1        4.572  10.638  -2.544  0.00  0.00    +0.060 A 
ATOM     10  C   LIG    1        3.339  10.247  -2.123  0.00  0.00    +0.040 A 
ATOM     11  C   LIG    1        3.148   8.941  -1.637  0.00  0.00    +0.130 A 
ATOM     12  N   LIG    1        1.945   8.535  -1.219  0.00  0.00    -0.460 NA
ATOM     13  C   LIG    1        2.976   3.917   0.098  0.00  0.00    +0.150 A 
ATOM     14  C   LIG    1        2.217   2.891   0.621  0.00  0.00    -0.120 A 
ATOM     15  C   LIG    1        0.865   3.080   0.867  0.00  0.00    +0.110 A 
ATOM     16 BR   LIG    1        3.020   1.220   0.997  0.00  0.00    -0.040 Br
ATOM     17  C   LIG    1        0.267   4.293   0.603  0.00  0.00    +0.010 A 
ATOM     18  C   LIG    1        1.786   7.304  -0.766  0.00  0.00    +0.330 A 
ENDROOT
BRANCH   1  19
ATOM     19  C   LIG    1       -0.660   7.215  -0.166  0.00  0.00    +0.350 C 
BRANCH  19  21
ATOM     20  N   LIG    1       -1.973   8.457   1.523  0.00  0.00    -0.570 N 
ATOM     21  C   LIG    1       -0.814   7.856   1.189  0.00  0.00    +0.500 C 
ATOM     22  O   LIG    1        0.106   7.833   1.979  0.00  0.00    -0.500 OA
BRANCH  20  23
ATOM     23  C   LIG    1       -2.155   8.957   2.818  0.00  0.00    +0.140 A 
ATOM     24  C   LIG    1       -2.539   8.105   3.845  0.00  0.00    +0.010 A 
ATOM     25  C   LIG    1       -2.712   8.601   5.122  0.00  0.00    +0.020 A 
ATOM     26  C   LIG    1       -2.514   9.946   5.377  0.00  0.00    +0.020 A 
ATOM     27  C   LIG    1       -2.136  10.797   4.355  0.00  0.00    +0.020 A 
ATOM     28  C   LIG    1       -1.956  10.307   3.076  0.00  0.00    +0.010 A 
ENDBRANCH  20  23
BRANCH  20  30
ATOM     29  C   LIG    1       -4.311   7.909   1.058  0.00  0.00    +0.030 C 
ATOM     30  C   LIG    1       -3.044   8.586   0.531  0.00  0.00    +0.220 C 
ATOM     31  C   LIG    1       -3.326  10.067   0.275  0.00  0.00    +0.030 C 
ENDBRANCH  20  30
ENDBRANCH  19  21
ENDBRANCH   1  19
TORSDOF 4
