REMARK  Name = ZINCpe000000Z8WW.0
REMARK                            x       y       z     vdW  Elec       q    Type
REMARK                         _______ _______ _______ _____ _____    ______ ____
ROOT
ATOM      1  O   LIG    1        3.683  -1.871  -3.701  0.00  0.00    -0.510 OA
ATOM      2  C   LIG    1        3.900  -2.446  -2.655  0.00  0.00    +0.510 C 
ATOM      3  N   LIG    1        3.681  -1.818  -1.483  0.00  0.00    -0.730 N 
ATOM      4  H   LIG    1        3.855  -2.278  -0.646  0.00  0.00    +0.400 HD
ENDROOT
BRANCH   2   5
ATOM      5  C   LIG    1        4.416  -3.862  -2.666  0.00  0.00    +0.220 C 
ATOM      6  C   LIG    1        3.404  -4.795  -1.968  0.00  0.00    +0.050 C 
ATOM      7  C   LIG    1        3.459  -6.080  -2.836  0.00  0.00    +0.040 C 
ATOM      8  C   LIG    1        3.667  -5.489  -4.253  0.00  0.00    +0.250 C 
ATOM      9  N   LIG    1        4.557  -4.331  -4.053  0.00  0.00    -0.600 N 
ATOM     10  C   LIG    1        5.367  -3.792  -4.986  0.00  0.00    +0.570 C 
ATOM     11  O   LIG    1        6.059  -2.836  -4.709  0.00  0.00    -0.520 OA
BRANCH  10  12
ATOM     12  C   LIG    1        5.411  -4.378  -6.373  0.00  0.00    -0.070 C 
ATOM     13  C   LIG    1        6.697  -5.090  -6.798  0.00  0.00    +0.060 C 
ATOM     14  C   LIG    1        6.350  -3.722  -7.388  0.00  0.00    +0.060 C 
ENDBRANCH  10  12
ENDBRANCH   2   5
BRANCH   3  15
ATOM     15  C   LIG    1        3.180  -0.442  -1.472  0.00  0.00    +0.250 C 
BRANCH  15  16
ATOM     16  C   LIG    1        3.019   0.031  -0.025  0.00  0.00    +0.320 C 
BRANCH  16  17
ATOM     17  N   LIG    1        2.518   1.407  -0.014  0.00  0.00    -0.540 N 
ATOM     18  C   LIG    1        3.274   2.521  -0.015  0.00  0.00    +0.680 A 
ATOM     19  N   LIG    1        2.480   3.608  -0.003  0.00  0.00    -0.640 N 
ATOM     20  H   LIG    1        2.780   4.531  -0.000  0.00  0.00    +0.440 HD
ATOM     21  C   LIG    1        1.153   3.183   0.008  0.00  0.00    +0.090 A 
ATOM     22  C   LIG    1       -0.060   3.853   0.022  0.00  0.00    +0.030 A 
ATOM     23  C   LIG    1       -1.241   3.135   0.030  0.00  0.00    +0.030 A 
ATOM     24  C   LIG    1       -1.217   1.752   0.017  0.00  0.00    +0.020 A 
ATOM     25  C   LIG    1       -0.013   1.076   0.008  0.00  0.00    +0.030 A 
ATOM     26  O   LIG    1        4.490   2.542  -0.027  0.00  0.00    -0.550 OA
ATOM     27  C   LIG    1        1.177   1.787   0.000  0.00  0.00    +0.090 A 
ENDBRANCH  16  17
ENDBRANCH  15  16
ENDBRANCH   3  15
TORSDOF 5
