REMARK  Name = ZINCDN0000000c1g.0
REMARK                            x       y       z     vdW  Elec       q    Type
REMARK                         _______ _______ _______ _____ _____    ______ ____
ROOT
ATOM      1  N   LIG    1       -1.763   2.318   3.120  0.00  0.00    -0.690 N 
ATOM      2  H   LIG    1       -2.656   1.940   3.129  0.00  0.00    +0.400 HD
ATOM      3  C   LIG    1       -1.594   3.644   2.949  0.00  0.00    +0.560 C 
ATOM      4  O   LIG    1       -0.475   4.104   2.829  0.00  0.00    -0.470 OA
ENDROOT
BRANCH   1   9
ATOM      5  C   LIG    1        2.743  -1.058   3.808  0.00  0.00    +0.080 C 
ATOM      6  C   LIG    1        1.547  -0.161   3.624  0.00  0.00    -0.020 A 
ATOM      7  C   LIG    1        0.404  -0.651   3.019  0.00  0.00    +0.010 A 
ATOM      8  C   LIG    1       -0.695   0.169   2.848  0.00  0.00    +0.030 A 
ATOM      9  C   LIG    1       -0.650   1.486   3.286  0.00  0.00    +0.150 A 
ATOM     10  C   LIG    1        0.499   1.975   3.894  0.00  0.00    +0.130 A 
ATOM     11  C   LIG    1        1.594   1.150   4.061  0.00  0.00    -0.660 A 
BRANCH  11  12
ATOM     12  S   LIG    1        3.052   1.769   4.832  0.00  0.00    +2.690 S 
ATOM     13  O   LIG    1        2.785   3.123   5.168  0.00  0.00    -0.940 OA
ATOM     14  O   LIG    1        4.140   1.374   4.008  0.00  0.00    -0.950 OA
BRANCH  12  15
ATOM     15  N   LIG    1        3.232   0.958   6.264  0.00  0.00    -1.000 NA
ATOM     16  C   LIG    1        2.541   1.410   7.482  0.00  0.00    +0.270 C 
ATOM     17  C   LIG    1        1.812   0.203   8.095  0.00  0.00    +0.220 C 
ATOM     18  O   LIG    1        2.738  -0.874   8.254  0.00  0.00    -0.380 OA
ATOM     19  C   LIG    1        3.291  -1.356   7.027  0.00  0.00    +0.210 C 
ATOM     20  C   LIG    1        4.092  -0.232   6.358  0.00  0.00    +0.260 C 
ENDBRANCH  12  15
ENDBRANCH  11  12
ENDBRANCH   1   9
BRANCH   3  21
ATOM     21  C   LIG    1       -2.766   4.537   2.908  0.00  0.00    -0.230 A 
ATOM     22  C   LIG    1       -4.054   4.013   3.046  0.00  0.00    +0.060 A 
ATOM     23  C   LIG    1       -5.145   4.853   3.006  0.00  0.00    -0.130 A 
ATOM     24  C   LIG    1       -4.973   6.217   2.830  0.00  0.00    +0.070 A 
ATOM     25  C   LIG    1       -3.708   6.750   2.692  0.00  0.00    -0.170 A 
ATOM     26  C   LIG    1       -2.595   5.920   2.735  0.00  0.00    +0.330 A 
BRANCH  26  27
ATOM     27  N   LIG    1       -1.320   6.454   2.602  0.00  0.00    -1.030 NA
BRANCH  27  28
ATOM     28  S   LIG    1       -1.123   8.085   2.399  0.00  0.00    +2.600 S 
ATOM     29  O   LIG    1       -1.547   8.695   3.611  0.00  0.00    -1.030 OA
ATOM     30  O   LIG    1       -1.683   8.403   1.133  0.00  0.00    -1.020 OA
BRANCH  28  31
ATOM     31  C   LIG    1        0.608   8.389   2.268  0.00  0.00    -0.620 A 
ATOM     32  C   LIG    1        1.165   8.696   1.041  0.00  0.00    +0.010 A 
ATOM     33  C   LIG    1        2.522   8.939   0.939  0.00  0.00    -0.130 A 
ATOM     34  C   LIG    1        3.323   8.866   2.063  0.00  0.00    +0.050 A 
ATOM     35  C   LIG    1        2.767   8.555   3.290  0.00  0.00    -0.130 A 
ATOM     36  C   LIG    1        3.641   8.475   4.515  0.00  0.00    +0.090 C 
ATOM     37  C   LIG    1        3.128   9.278  -0.398  0.00  0.00    +0.090 C 
ATOM     38  C   LIG    1        0.292   8.769  -0.185  0.00  0.00    +0.110 C 
ATOM     39  C   LIG    1        1.409   8.316   3.392  0.00  0.00    +0.030 A 
ATOM     40  C   LIG    1        0.803   7.977   4.730  0.00  0.00    +0.100 C 
ENDBRANCH  28  31
ENDBRANCH  27  28
ENDBRANCH  26  27
ENDBRANCH   3  21
TORSDOF 7
