REMARK  Name = ZINCpe000000W0dD.0
REMARK                            x       y       z     vdW  Elec       q    Type
REMARK                         _______ _______ _______ _____ _____    ______ ____
ROOT
ATOM      1  C   LIG    1        1.430   3.804   1.612  0.00  0.00    +0.500 C 
ATOM      2  N   LIG    1        2.007   5.015   1.738  0.00  0.00    -0.720 N 
ATOM      3  H   LIG    1        2.128   5.579   0.958  0.00  0.00    +0.400 HD
ATOM      4  O   LIG    1        1.279   3.100   2.588  0.00  0.00    -0.520 OA
ENDROOT
BRANCH   2   5
ATOM      5  C   LIG    1        2.453   5.481   3.054  0.00  0.00    +0.290 C 
ATOM      6  C   LIG    1        3.879   4.992   3.312  0.00  0.00    +0.040 C 
BRANCH   5   7
ATOM      7  C   LIG    1        2.424   6.987   3.090  0.00  0.00    -0.130 A 
ATOM      8  C   LIG    1        2.575   7.709   1.922  0.00  0.00    +0.050 A 
ATOM      9  C   LIG    1        2.549   9.092   1.954  0.00  0.00    -0.020 A 
ATOM     10  C   LIG    1        2.372   9.754   3.155  0.00  0.00    +0.050 A 
ATOM     11  C   LIG    1        2.220   9.037   4.325  0.00  0.00    -0.070 A 
ATOM     12  C   LIG    1        2.240   7.650   4.295  0.00  0.00    +0.140 A 
BRANCH  12  13
ATOM     13  O   LIG    1        2.086   6.942   5.444  0.00  0.00    -0.310 OA
ATOM     14  C   LIG    1        1.901   7.690   6.648  0.00  0.00    +0.250 C 
ENDBRANCH  12  13
ENDBRANCH   5   7
ENDBRANCH   2   5
BRANCH   1  15
ATOM     15  C   LIG    1        0.972   3.325   0.259  0.00  0.00    +0.360 C 
BRANCH  15  20
ATOM     16  C   LIG    1       -1.070   0.251   0.679  0.00  0.00    +0.130 C 
ATOM     17  N   LIG    1        0.298  -0.239   0.435  0.00  0.00    -0.710 N 
ATOM     18  H   LIG    1        0.584  -1.165   0.396  0.00  0.00    +0.440 HD
ATOM     19  C   LIG    1        1.073   0.849   0.277  0.00  0.00    +0.710 C 
ATOM     20  N   LIG    1        0.382   1.990   0.388  0.00  0.00    -0.560 N 
ATOM     21  O   LIG    1        2.268   0.802   0.059  0.00  0.00    -0.540 OA
ATOM     22  C   LIG    1       -1.564  -0.198   2.056  0.00  0.00    +0.100 C 
ATOM     23  C   LIG    1       -0.923   1.758   0.630  0.00  0.00    +0.540 C 
ATOM     24  O   LIG    1       -1.799   2.584   0.775  0.00  0.00    -0.450 OA
BRANCH  16  25
ATOM     25  C   LIG    1       -2.022  -0.233  -0.417  0.00  0.00    +0.210 C 
BRANCH  25  27
ATOM     26  C   LIG    1       -3.014  -2.213  -1.335  0.00  0.00    +0.210 C 
ATOM     27  O   LIG    1       -2.142  -1.656  -0.349  0.00  0.00    -0.380 OA
ENDBRANCH  25  27
ENDBRANCH  16  25
ENDBRANCH  15  20
ENDBRANCH   1  15
TORSDOF 7
