REMARK  Name = ZINCkj00000GeQY2.1
REMARK                            x       y       z     vdW  Elec       q    Type
REMARK                         _______ _______ _______ _____ _____    ______ ____
ROOT
ATOM      1  N   LIG    1       -0.016   1.335   0.009  0.00  0.00    -0.560 N 
ATOM      2  C   LIG    1        0.002  -0.004   0.002  0.00  0.00    +0.700 C 
ATOM      3  N   LIG    1        1.256  -0.501  -0.013  0.00  0.00    -0.720 N 
ATOM      4  H   LIG    1        1.512  -1.436  -0.020  0.00  0.00    +0.450 HD
ATOM      5  C   LIG    1        2.151   0.656  -0.015  0.00  0.00    +0.100 C 
ATOM      6  C   LIG    1        3.062   0.663  -1.247  0.00  0.00    +0.110 C 
ATOM      7  C   LIG    1        4.498   0.668  -0.673  0.00  0.00    +0.290 C 
ATOM      8  N   LIG    1        4.360   0.086   0.688  0.00  0.00    -0.390 N 
ATOM      9  H   LIG    1        4.308  -0.921   0.637  0.00  0.00    +0.430 HD
ATOM     10  C   LIG    1        3.083   0.650   1.203  0.00  0.00    +0.320 C 
ATOM     11  O   LIG    1       -0.999  -0.694   0.008  0.00  0.00    -0.500 OA
ATOM     12  C   LIG    1        1.234   1.849   0.000  0.00  0.00    +0.540 C 
ATOM     13  O   LIG    1        1.548   3.020   0.003  0.00  0.00    -0.440 OA
ENDROOT
BRANCH   1  15
ATOM     14  C   LIG    1       -2.068   1.828  -1.227  0.00  0.00    +0.060 C 
ATOM     15  C   LIG    1       -1.239   2.143   0.020  0.00  0.00    +0.250 C 
ATOM     16  C   LIG    1       -2.055   1.815   1.272  0.00  0.00    +0.060 C 
ENDBRANCH   1  15
BRANCH   8  17
ATOM     17  C   LIG    1        5.484   0.499   1.539  0.00  0.00    +0.290 C 
BRANCH  17  18
ATOM     18  C   LIG    1        6.779  -0.120   1.009  0.00  0.00    +0.080 C 
BRANCH  18  19
ATOM     19  C   LIG    1        7.950   0.311   1.896  0.00  0.00    +0.470 C 
ATOM     20  F   LIG    1        8.059   1.706   1.879  0.00  0.00    -0.170 F 
ATOM     21  F   LIG    1        9.134  -0.255   1.411  0.00  0.00    -0.160 F 
ATOM     22  F   LIG    1        7.727  -0.124   3.206  0.00  0.00    -0.170 F 
ENDBRANCH  18  19
ENDBRANCH  17  18
ENDBRANCH   8  17
TORSDOF 4
