REMARK  Name = ZINCkj00000GeQY2.0
REMARK                            x       y       z     vdW  Elec       q    Type
REMARK                         _______ _______ _______ _____ _____    ______ ____
ROOT
ATOM      1  N   LIG    1       -0.541   1.205   8.248  0.00  0.00    -0.560 N 
ATOM      2  C   LIG    1       -0.528  -0.076   7.856  0.00  0.00    +0.700 C 
ATOM      3  N   LIG    1       -0.755  -0.211   6.533  0.00  0.00    -0.720 N 
ATOM      4  H   LIG    1       -0.790  -1.039   6.029  0.00  0.00    +0.450 HD
ATOM      5  C   LIG    1       -0.935   1.144   6.012  0.00  0.00    +0.100 C 
ATOM      6  C   LIG    1       -2.317   1.315   5.364  0.00  0.00    +0.120 C 
ATOM      7  C   LIG    1       -2.002   1.187   3.850  0.00  0.00    +0.290 C 
ATOM      8  N   LIG    1       -0.681   1.855   3.717  0.00  0.00    -0.390 N 
ATOM      9  H   LIG    1       -0.798   2.857   3.680  0.00  0.00    +0.440 HD
ATOM     10  C   LIG    1        0.089   1.475   4.924  0.00  0.00    +0.310 C 
ATOM     11  O   LIG    1       -0.333  -1.011   8.607  0.00  0.00    -0.500 OA
ATOM     12  C   LIG    1       -0.780   2.039   7.212  0.00  0.00    +0.530 C 
ATOM     13  O   LIG    1       -0.852   3.249   7.243  0.00  0.00    -0.440 OA
ENDROOT
BRANCH   1  15
ATOM     14  C   LIG    1       -1.395   1.034  10.534  0.00  0.00    +0.060 C 
ATOM     15  C   LIG    1       -0.324   1.646   9.628  0.00  0.00    +0.250 C 
ATOM     16  C   LIG    1        1.060   1.193  10.096  0.00  0.00    +0.060 C 
ENDBRANCH   1  15
BRANCH   8  17
ATOM     17  C   LIG    1        0.007   1.381   2.508  0.00  0.00    +0.290 C 
BRANCH  17  18
ATOM     18  C   LIG    1       -0.733   1.888   1.268  0.00  0.00    +0.080 C 
BRANCH  18  19
ATOM     19  C   LIG    1       -0.017   1.395   0.010  0.00  0.00    +0.470 C 
ATOM     20  F   LIG    1       -0.694   1.858  -1.124  0.00  0.00    -0.160 F 
ATOM     21  F   LIG    1        1.296   1.879  -0.000  0.00  0.00    -0.170 F 
ATOM     22  F   LIG    1        0.002  -0.004   0.002  0.00  0.00    -0.170 F 
ENDBRANCH  18  19
ENDBRANCH  17  18
ENDBRANCH   8  17
TORSDOF 4
