REMARK  Name = ZINCpe00000I6jQE.0
REMARK                            x       y       z     vdW  Elec       q    Type
REMARK                         _______ _______ _______ _____ _____    ______ ____
ROOT
ATOM      1  N   LIG    1       -6.872   6.583  -1.650  0.00  0.00    -0.720 N 
ATOM      2  H   LIG    1       -7.091   6.047  -2.429  0.00  0.00    +0.410 HD
ATOM      3  C   LIG    1       -7.668   7.610  -1.293  0.00  0.00    +0.530 C 
ATOM      4  O   LIG    1       -7.394   8.280  -0.320  0.00  0.00    -0.540 OA
ENDROOT
BRANCH   3   5
ATOM      5  C   LIG    1       -8.898   7.927  -2.104  0.00  0.00    -0.070 C 
ATOM      6  C   LIG    1       -9.834   6.717  -2.105  0.00  0.00    +0.040 C 
ATOM      7  C   LIG    1      -11.083   7.039  -2.928  0.00  0.00    +0.000 C 
ATOM      8  C   LIG    1      -10.675   7.369  -4.365  0.00  0.00    +0.020 C 
ATOM      9  C   LIG    1       -9.739   8.579  -4.365  0.00  0.00    +0.000 C 
ATOM     10  C   LIG    1      -10.459   9.781  -3.751  0.00  0.00    +0.010 C 
ATOM     11  C   LIG    1      -10.867   9.451  -2.313  0.00  0.00    -0.020 C 
ATOM     12  C   LIG    1      -11.803   8.241  -2.314  0.00  0.00    +0.010 C 
ATOM     13  C   LIG    1       -8.490   8.257  -3.542  0.00  0.00    +0.040 C 
ATOM     14  C   LIG    1       -9.618   9.129  -1.490  0.00  0.00    +0.050 C 
ENDBRANCH   3   5
BRANCH   1  15
ATOM     15  C   LIG    1       -5.676   6.274  -0.862  0.00  0.00    +0.300 C 
BRANCH  15  17
ATOM     16  O   LIG    1       -5.416   4.557  -2.459  0.00  0.00    -0.530 OA
ATOM     17  C   LIG    1       -4.967   5.090  -1.466  0.00  0.00    +0.510 C 
ATOM     18  N   LIG    1       -3.833   4.625  -0.905  0.00  0.00    -0.730 N 
ATOM     19  H   LIG    1       -3.474   5.052  -0.112  0.00  0.00    +0.410 HD
BRANCH  18  20
ATOM     20  C   LIG    1       -3.144   3.474  -1.493  0.00  0.00    +0.290 C 
BRANCH  20  21
ATOM     21  C   LIG    1       -1.895   3.152  -0.670  0.00  0.00    +0.010 C 
ATOM     22  C   LIG    1       -2.300   2.631   0.720  0.00  0.00    +0.070 C 
ATOM     23  C   LIG    1       -1.059   2.001   1.395  0.00  0.00    -0.310 C 
ATOM     24  S   LIG    1       -0.017   1.417   0.010  0.00  0.00    +2.390 S 
ATOM     25  O   LIG    1        1.205   2.141   0.002  0.00  0.00    -0.930 OA
ATOM     26  O   LIG    1        0.002  -0.004   0.002  0.00  0.00    -0.930 OA
ATOM     27  C   LIG    1       -1.088   2.017  -1.351  0.00  0.00    -0.310 C 
ENDBRANCH  20  21
ENDBRANCH  18  20
ENDBRANCH  15  17
ENDBRANCH   1  15
TORSDOF 5
