REMARK  Name = ZINCrH000004qp9T.0
REMARK                            x       y       z     vdW  Elec       q    Type
REMARK                         _______ _______ _______ _____ _____    ______ ____
ROOT
ATOM      1  C   LIG    1       -2.365   3.420  -4.060  0.00  0.00    +0.090 C 
ATOM      2  C   LIG    1       -3.160   3.981  -2.909  0.00  0.00    -0.170 A 
ATOM      3  C   LIG    1       -4.266   4.763  -3.154  0.00  0.00    +0.130 A 
ATOM      4  C   LIG    1       -5.003   5.282  -2.086  0.00  0.00    -0.200 A 
ATOM      5  C   LIG    1       -4.614   5.006  -0.772  0.00  0.00    +0.080 A 
ATOM      6  C   LIG    1       -3.511   4.218  -0.534  0.00  0.00    -0.070 A 
ATOM      7  C   LIG    1       -2.776   3.707  -1.599  0.00  0.00    +0.240 A 
ENDROOT
BRANCH   4   8
ATOM      8  C   LIG    1       -6.189   6.120  -2.345  0.00  0.00    +0.560 C 
ATOM      9  N   LIG    1       -6.899   6.621  -1.315  0.00  0.00    -0.720 N 
ATOM     10  H   LIG    1       -6.630   6.430  -0.402  0.00  0.00    +0.400 HD
ATOM     11  O   LIG    1       -6.526   6.360  -3.489  0.00  0.00    -0.540 OA
BRANCH   9  12
ATOM     12  C   LIG    1       -8.076   7.453  -1.572  0.00  0.00    +0.230 C 
ATOM     13  C   LIG    1       -7.655   8.928  -1.736  0.00  0.00    +0.010 C 
ATOM     14  C   LIG    1       -8.800   9.726  -1.062  0.00  0.00    +0.010 C 
ATOM     15  C   LIG    1       -9.161   8.844   0.159  0.00  0.00    +0.020 C 
ATOM     16  C   LIG    1       -9.033   7.399  -0.368  0.00  0.00    +0.020 C 
ENDBRANCH   9  12
ENDBRANCH   4   8
BRANCH   7  17
ATOM     17  N   LIG    1       -1.658   2.917  -1.355  0.00  0.00    -0.740 N 
ATOM     18  H   LIG    1       -1.147   2.556  -2.097  0.00  0.00    +0.400 HD
BRANCH  17  19
ATOM     19  C   LIG    1       -1.252   2.628   0.022  0.00  0.00    +0.370 C 
BRANCH  19  20
ATOM     20  C   LIG    1       -0.022   1.758   0.012  0.00  0.00    -0.260 A 
ATOM     21  C   LIG    1        1.244   2.186   0.002  0.00  0.00    +0.240 A 
ATOM     22  N   LIG    1        2.146   1.226  -0.012  0.00  0.00    -0.440 NA
ATOM     23  C   LIG    1        1.712   0.011  -0.014  0.00  0.00    +0.020 A 
ATOM     24  S   LIG    1        0.002  -0.004   0.002  0.00  0.00    +0.200 S 
BRANCH  23  25
ATOM     25  C   LIG    1        2.585  -1.217  -0.030  0.00  0.00    +0.430 C 
ATOM     26  O   LIG    1        1.922  -2.290   0.660  0.00  0.00    -0.370 OA
ATOM     27  C   LIG    1        2.983  -3.009   1.333  0.00  0.00    +0.230 C 
ATOM     28  C   LIG    1        3.935  -1.857   1.740  0.00  0.00    +0.210 C 
ATOM     29  O   LIG    1        3.824  -0.936   0.635  0.00  0.00    -0.360 OA
ENDBRANCH  23  25
ENDBRANCH  19  20
ENDBRANCH  17  19
ENDBRANCH   7  17
TORSDOF 6
