REMARK  Name = ZINCvU0000000CET.0
REMARK                            x       y       z     vdW  Elec       q    Type
REMARK                         _______ _______ _______ _____ _____    ______ ____
ROOT
ATOM      1  C   LIG    1        2.409  -4.203  -0.257  0.00  0.00    -0.280 A 
ATOM      2  C   LIG    1        3.514  -4.953  -0.382  0.00  0.00    +0.200 A 
ATOM      3  C   LIG    1        3.293  -6.334  -0.477  0.00  0.00    -0.230 A 
ATOM      4  C   LIG    1        1.950  -6.671  -0.433  0.00  0.00    +0.040 A 
ATOM      5  N   LIG    1        1.867  -8.032  -0.539  0.00  0.00    -0.340 N 
ATOM      6  N   LIG    1        3.165  -8.539  -0.650  0.00  0.00    -0.260 NA
ATOM      7  C   LIG    1        4.016  -7.559  -0.616  0.00  0.00    +0.140 A 
ATOM      8  C   LIG    1        5.515  -7.692  -0.707  0.00  0.00    +0.170 C 
ATOM      9  S   LIG    1        0.976  -5.217  -0.262  0.00  0.00    +0.180 S 
ENDROOT
BRANCH   1  12
ATOM     10  N   LIG    1        1.230  -2.083  -0.021  0.00  0.00    -0.660 N 
ATOM     11  H   LIG    1        0.401  -2.579   0.064  0.00  0.00    +0.410 HD
ATOM     12  C   LIG    1        2.400  -2.742  -0.138  0.00  0.00    +0.600 C 
ATOM     13  O   LIG    1        3.448  -2.124  -0.144  0.00  0.00    -0.510 OA
BRANCH  10  17
ATOM     14  C   LIG    1        1.170   2.088  -0.027  0.00  0.00    +0.090 A 
ATOM     15  C   LIG    1        0.148   1.381   0.585  0.00  0.00    -0.010 A 
ATOM     16  C   LIG    1        0.168  -0.002   0.587  0.00  0.00    -0.110 A 
ATOM     17  C   LIG    1        1.212  -0.683  -0.024  0.00  0.00    +0.150 A 
ATOM     18  C   LIG    1        2.237   0.023  -0.639  0.00  0.00    -0.020 A 
ATOM     19  C   LIG    1       -0.944  -0.769   1.253  0.00  0.00    +0.090 C 
ATOM     20  C   LIG    1        2.217   1.408  -0.641  0.00  0.00    +0.120 A 
BRANCH  14  22
ATOM     21  C   LIG    1        0.043   4.081   0.619  0.00  0.00    +0.230 C 
ATOM     22  O   LIG    1        1.149   3.449  -0.029  0.00  0.00    -0.310 OA
ENDBRANCH  14  22
BRANCH  20  23
ATOM     23  O   LIG    1        3.221   2.102  -1.242  0.00  0.00    -0.300 OA
ATOM     24  C   LIG    1        4.263   1.338  -1.851  0.00  0.00    +0.240 C 
ENDBRANCH  20  23
ENDBRANCH  10  17
ENDBRANCH   1  12
BRANCH   5  25
ATOM     25  C   LIG    1        0.632  -8.821  -0.537  0.00  0.00    +0.390 C 
BRANCH  25  26
ATOM     26  C   LIG    1        0.133  -8.976  -1.951  0.00  0.00    -0.130 A 
ATOM     27  C   LIG    1       -0.742  -8.046  -2.481  0.00  0.00    +0.030 A 
ATOM     28  C   LIG    1       -1.196  -8.185  -3.779  0.00  0.00    +0.010 A 
ATOM     29  C   LIG    1       -0.784  -9.261  -4.543  0.00  0.00    -0.070 A 
ATOM     30  C   LIG    1        0.087 -10.194  -4.012  0.00  0.00    +0.010 A 
ATOM     31  C   LIG    1       -1.283  -9.416  -5.957  0.00  0.00    +0.090 C 
ATOM     32  C   LIG    1        0.545 -10.051  -2.715  0.00  0.00    +0.050 A 
ENDBRANCH  25  26
ENDBRANCH   5  25
TORSDOF 6
