REMARK  Name = ZINCpe00000VVGXP.0
REMARK                            x       y       z     vdW  Elec       q    Type
REMARK                         _______ _______ _______ _____ _____    ______ ____
ROOT
ATOM      1  N   LIG    1       -5.710   9.974  -0.586  0.00  0.00    -0.520 NA
ATOM      2  C   LIG    1       -6.753   8.948  -0.729  0.00  0.00    +0.170 C 
ATOM      3  C   LIG    1       -6.530   7.850   0.316  0.00  0.00    +0.300 C 
ATOM      4  N   LIG    1       -5.151   7.356   0.189  0.00  0.00    -0.610 N 
ATOM      5  C   LIG    1       -4.057   8.339   0.191  0.00  0.00    +0.270 C 
ATOM      6  C   LIG    1       -4.895   6.037   0.078  0.00  0.00    +0.590 C 
ATOM      7  O   LIG    1       -5.813   5.248  -0.041  0.00  0.00    -0.510 OA
ATOM      8  C   LIG    1       -4.377   9.419  -0.855  0.00  0.00    +0.170 C 
ENDROOT
BRANCH   6   9
ATOM      9  C   LIG    1       -3.506   5.552   0.101  0.00  0.00    -0.030 A 
ATOM     10  C   LIG    1       -3.038   4.359  -0.414  0.00  0.00    +0.040 A 
ATOM     11  C   LIG    1       -1.655   4.355  -0.145  0.00  0.00    +0.100 A 
ATOM     12  N   LIG    1       -1.368   5.482   0.475  0.00  0.00    -0.240 NA
ATOM     13  N   LIG    1       -2.423   6.197   0.631  0.00  0.00    -0.370 N 
ATOM     14  H   LIG    1       -2.448   7.066   1.062  0.00  0.00    +0.450 HD
BRANCH  11  15
ATOM     15  C   LIG    1       -0.699   3.283  -0.499  0.00  0.00    +0.050 A 
ATOM     16  C   LIG    1        0.635   3.288  -0.240  0.00  0.00    -0.020 A 
ATOM     17  C   LIG    1        1.151   2.078  -0.748  0.00  0.00    -0.060 A 
ATOM     18  C   LIG    1        0.117   1.403  -1.286  0.00  0.00    +0.180 A 
ATOM     19  O   LIG    1       -0.999   2.136  -1.138  0.00  0.00    -0.170 OA
ENDBRANCH  11  15
ENDBRANCH   6   9
BRANCH   1  20
ATOM     20  C   LIG    1       -5.985  11.128  -1.452  0.00  0.00    +0.160 C 
BRANCH  20  21
ATOM     21  C   LIG    1       -4.768  12.055  -1.468  0.00  0.00    +0.220 C 
BRANCH  21  22
ATOM     22  O   LIG    1       -4.498  12.509  -0.140  0.00  0.00    -0.540 OA
ATOM     23  H   LIG    1       -5.227  13.002   0.263  0.00  0.00    +0.380 HD
ENDBRANCH  21  22
BRANCH  21  24
ATOM     24  C   LIG    1       -5.054  13.257  -2.370  0.00  0.00    +0.140 C 
BRANCH  24  25
ATOM     25  O   LIG    1       -3.878  14.062  -2.478  0.00  0.00    -0.380 OA
BRANCH  25  27
ATOM     26  C   LIG    1       -2.724  16.000  -3.346  0.00  0.00    +0.040 C 
ATOM     27  C   LIG    1       -4.038  15.217  -3.303  0.00  0.00    +0.160 C 
ENDBRANCH  25  27
ENDBRANCH  24  25
ENDBRANCH  21  24
ENDBRANCH  20  21
ENDBRANCH   1  20
TORSDOF 8
