REMARK  Name = ZINCrH000004pOPw.0
REMARK                            x       y       z     vdW  Elec       q    Type
REMARK                         _______ _______ _______ _____ _____    ______ ____
ROOT
ATOM      1  C   LIG    1       -6.979  -4.482  -0.955  0.00  0.00    +0.520 C 
ATOM      2  N   LIG    1       -6.129  -4.337  -1.991  0.00  0.00    -0.670 N 
ATOM      3  H   LIG    1       -6.396  -4.615  -2.881  0.00  0.00    +0.410 HD
ATOM      4  O   LIG    1       -6.683  -4.047   0.137  0.00  0.00    -0.500 OA
ENDROOT
BRANCH   2   5
ATOM      5  C   LIG    1       -4.859  -3.782  -1.783  0.00  0.00    +0.110 A 
ATOM      6  C   LIG    1       -4.191  -4.006  -0.587  0.00  0.00    +0.060 A 
ATOM      7  C   LIG    1       -2.940  -3.459  -0.382  0.00  0.00    +0.000 A 
ATOM      8  C   LIG    1       -2.350  -2.686  -1.371  0.00  0.00    +0.120 A 
ATOM      9  C   LIG    1       -3.019  -2.458  -2.565  0.00  0.00    -0.060 A 
ATOM     10  C   LIG    1       -4.268  -3.009  -2.773  0.00  0.00    +0.030 A 
BRANCH   8  11
ATOM     11  O   LIG    1       -1.118  -2.147  -1.169  0.00  0.00    -0.310 OA
BRANCH  11  12
ATOM     12  C   LIG    1       -0.571  -1.362  -2.230  0.00  0.00    +0.240 C 
BRANCH  12  13
ATOM     13  C   LIG    1        0.789  -0.852  -1.829  0.00  0.00    -0.100 A 
ATOM     14  C   LIG    1        1.918  -1.599  -2.109  0.00  0.00    +0.020 A 
ATOM     15  C   LIG    1        3.165  -1.131  -1.741  0.00  0.00    +0.010 A 
ATOM     16  C   LIG    1        3.284   0.083  -1.091  0.00  0.00    +0.020 A 
ATOM     17  C   LIG    1        2.155   0.830  -0.811  0.00  0.00    +0.010 A 
ATOM     18  C   LIG    1        0.907   0.363  -1.180  0.00  0.00    +0.020 A 
ENDBRANCH  12  13
ENDBRANCH  11  12
ENDBRANCH   8  11
ENDBRANCH   2   5
BRANCH   1  19
ATOM     19  C   LIG    1       -8.296  -5.186  -1.155  0.00  0.00    +0.180 C 
ATOM     20  C   LIG    1       -9.254  -4.270  -1.919  0.00  0.00    +0.030 C 
BRANCH  19  24
ATOM     21  C   LIG    1      -11.645  -7.861   1.264  0.00  0.00    +0.060 C 
ATOM     22  C   LIG    1      -10.479  -6.881   1.405  0.00  0.00    +0.160 C 
ATOM     23  C   LIG    1       -9.944  -6.520   0.016  0.00  0.00    +0.160 C 
ATOM     24  N   LIG    1       -8.876  -5.519   0.153  0.00  0.00    -0.520 NA
ATOM     25  C   LIG    1       -9.374  -4.314   0.831  0.00  0.00    +0.180 C 
ATOM     26  C   LIG    1       -9.915  -4.697   2.211  0.00  0.00    +0.160 C 
ATOM     27  C   LIG    1      -10.507  -3.461   2.890  0.00  0.00    +0.060 C 
ATOM     28  O   LIG    1      -10.930  -5.693   2.061  0.00  0.00    -0.380 OA
ENDBRANCH  19  24
ENDBRANCH   1  19
TORSDOF 6
