REMARK  Name = ZINCpk00000kapIF.0
REMARK                            x       y       z     vdW  Elec       q    Type
REMARK                         _______ _______ _______ _____ _____    ______ ____
ROOT
ATOM      1  C   LIG    1        1.353   4.460   1.937  0.00  0.00    +0.560 C 
ATOM      2  N   LIG    1        0.364   3.678   1.460  0.00  0.00    -0.610 N 
ATOM      3  C   LIG    1       -0.198   2.509   2.146  0.00  0.00    +0.260 C 
ATOM      4  C   LIG    1       -0.936   1.682   1.081  0.00  0.00    +0.010 C 
ATOM      5  C   LIG    1       -0.013   1.086   0.008  0.00  0.00    +0.040 C 
ATOM      6  C   LIG    1       -0.957   1.694  -1.042  0.00  0.00    +0.040 C 
ATOM      7  C   LIG    1       -1.351   2.734   0.020  0.00  0.00    +0.140 C 
ATOM      8  C   LIG    1       -0.318   3.862   0.175  0.00  0.00    +0.290 C 
ATOM      9  O   LIG    1        1.744   5.407   1.287  0.00  0.00    -0.530 OA
ENDROOT
BRANCH   7  10
ATOM     10  N   LIG    1       -2.749   3.170   0.006  0.00  0.00    -0.710 N 
ATOM     11  H   LIG    1       -3.376   2.813   0.654  0.00  0.00    +0.400 HD
ATOM     12  C   LIG    1       -3.166   4.069  -0.909  0.00  0.00    +0.520 C 
ATOM     13  O   LIG    1       -2.382   4.515  -1.720  0.00  0.00    -0.530 OA
BRANCH  12  14
ATOM     14  C   LIG    1       -4.604   4.517  -0.924  0.00  0.00    +0.060 C 
BRANCH  14  15
ATOM     15  C   LIG    1       -4.810   5.531  -2.051  0.00  0.00    +0.160 C 
BRANCH  15  16
ATOM     16  C   LIG    1       -6.249   5.980  -2.066  0.00  0.00    -0.220 A 
ATOM     17  C   LIG    1       -6.756   7.016  -1.391  0.00  0.00    +0.210 A 
ATOM     18  N   LIG    1       -8.047   7.208  -1.574  0.00  0.00    -0.470 NA
ATOM     19  C   LIG    1       -8.659   6.385  -2.358  0.00  0.00    +0.220 A 
ATOM     20  S   LIG    1       -7.560   5.228  -2.971  0.00  0.00    +0.120 S 
ENDBRANCH  15  16
ENDBRANCH  14  15
ENDBRANCH  12  14
ENDBRANCH   7  10
BRANCH   1  23
ATOM     21  C   LIG    1        3.089   5.085   3.763  0.00  0.00    +0.010 C 
ATOM     22  C   LIG    1        1.706   5.147   4.416  0.00  0.00    +0.070 C 
ATOM     23  C   LIG    1        1.972   4.160   3.278  0.00  0.00    -0.050 C 
BRANCH  21  24
ATOM     24  C   LIG    1        4.225   4.456   4.573  0.00  0.00    +0.200 C 
BRANCH  24  26
ATOM     25  C   LIG    1        6.336   4.956   5.591  0.00  0.00    +0.200 C 
ATOM     26  O   LIG    1        5.225   5.443   4.837  0.00  0.00    -0.390 OA
ENDBRANCH  24  26
ENDBRANCH  21  24
ENDBRANCH   1  23
TORSDOF 7
