REMARK  Name = ZINCpe00000MJKCp.0
REMARK                            x       y       z     vdW  Elec       q    Type
REMARK                         _______ _______ _______ _____ _____    ______ ____
ROOT
ATOM      1  O   LIG    1        1.875   0.741   3.177  0.00  0.00    -0.490 OA
ATOM      2  C   LIG    1        2.484   1.262   2.266  0.00  0.00    +0.520 C 
ATOM      3  N   LIG    1        3.350   2.263   2.521  0.00  0.00    -0.660 N 
ATOM      4  H   LIG    1        3.887   2.633   1.803  0.00  0.00    +0.420 HD
ENDROOT
BRANCH   2   5
ATOM      5  C   LIG    1        2.272   0.790   0.851  0.00  0.00    +0.040 C 
ATOM      6  C   LIG    1        1.818   1.987  -0.009  0.00  0.00    -0.270 C 
ATOM      7  S   LIG    1       -0.013   1.827   0.001  0.00  0.00    +2.390 S 
ATOM      8  C   LIG    1        0.011  -0.011  -0.003  0.00  0.00    -0.270 C 
ATOM      9  O   LIG    1       -0.531   2.299   1.237  0.00  0.00    -0.900 OA
ATOM     10  O   LIG    1       -0.545   2.304  -1.228  0.00  0.00    -0.910 OA
ATOM     11  C   LIG    1        1.249  -0.340   0.855  0.00  0.00    +0.030 C 
BRANCH  11  12
ATOM     12  C   LIG    1        1.909  -1.608   0.308  0.00  0.00    +0.470 C 
ATOM     13  F   LIG    1        1.011  -2.676   0.396  0.00  0.00    -0.170 F 
ATOM     14  F   LIG    1        3.054  -1.898   1.058  0.00  0.00    -0.170 F 
ATOM     15  F   LIG    1        2.266  -1.408  -1.030  0.00  0.00    -0.180 F 
ENDBRANCH  11  12
ENDBRANCH   2   5
BRANCH   3  16
ATOM     16  C   LIG    1        3.475   2.767   3.820  0.00  0.00    +0.110 A 
ATOM     17  C   LIG    1        3.728   4.116   4.030  0.00  0.00    +0.290 A 
ATOM     18  N   LIG    1        3.842   4.599   5.251  0.00  0.00    -0.430 NA
ATOM     19  C   LIG    1        3.732   3.830   6.316  0.00  0.00    +0.310 A 
ATOM     20  C   LIG    1        3.484   2.471   6.190  0.00  0.00    +0.020 A 
ATOM     21  C   LIG    1        3.352   1.923   4.919  0.00  0.00    +0.090 A 
BRANCH  20  22
ATOM     22  O   LIG    1        3.373   1.685   7.293  0.00  0.00    -0.650 OA
BRANCH  22  23
ATOM     23  S   LIG    1        4.690   1.083   7.760  0.00  0.00    +2.740 S 
ATOM     24  F   LIG    1        4.970  -0.214   6.847  0.00  0.00    -0.480 F 
ATOM     25  O   LIG    1        4.467   0.604   9.079  0.00  0.00    -0.910 OA
ATOM     26  O   LIG    1        5.701   2.027   7.436  0.00  0.00    -0.940 OA
ENDBRANCH  22  23
ENDBRANCH  20  22
ENDBRANCH   3  16
TORSDOF 5
