REMARK  Name = ZINCvU0000000DHs.0
REMARK                            x       y       z     vdW  Elec       q    Type
REMARK                         _______ _______ _______ _____ _____    ______ ____
ROOT
ATOM      1  N   LIG    1        4.712   2.449  -2.757  0.00  0.00    -0.540 N 
ATOM      2  C   LIG    1        5.774   1.635  -2.526  0.00  0.00    +0.590 A 
ATOM      3  N   LIG    1        5.759   0.738  -1.586  0.00  0.00    -0.500 NA
ATOM      4  C   LIG    1        4.685   0.566  -0.785  0.00  0.00    +0.070 A 
ATOM      5  C   LIG    1        3.562   1.365  -0.965  0.00  0.00    -0.220 A 
ATOM      6  C   LIG    1        2.502   1.046  -0.019  0.00  0.00    +0.010 A 
ATOM      7  C   LIG    1        2.801   0.066   0.833  0.00  0.00    -0.040 A 
ATOM      8  S   LIG    1        4.413  -0.558   0.540  0.00  0.00    +0.220 S 
ATOM      9  C   LIG    1        3.600   2.345  -2.003  0.00  0.00    +0.550 A 
ATOM     10  O   LIG    1        2.643   3.073  -2.205  0.00  0.00    -0.500 OA
ENDROOT
BRANCH   6  11
ATOM     11  C   LIG    1        1.201   1.756  -0.002  0.00  0.00    -0.050 A 
ATOM     12  C   LIG    1        0.009   1.032   0.005  0.00  0.00    +0.020 A 
ATOM     13  C   LIG    1       -1.200   1.698   0.016  0.00  0.00    -0.010 A 
ATOM     14  C   LIG    1       -1.230   3.081   0.031  0.00  0.00    -0.080 A 
ATOM     15  C   LIG    1       -0.051   3.805   0.025  0.00  0.00    +0.000 A 
ATOM     16  C   LIG    1       -2.553   3.803   0.049  0.00  0.00    +0.090 C 
ATOM     17  C   LIG    1        1.164   3.149   0.008  0.00  0.00    +0.060 A 
ENDBRANCH   6  11
BRANCH   1  18
ATOM     18  C   LIG    1        4.776   3.445  -3.829  0.00  0.00    +0.330 C 
BRANCH  18  19
ATOM     19  C   LIG    1        4.261   2.827  -5.130  0.00  0.00    +0.060 C 
BRANCH  19  22
ATOM     20  N   LIG    1        3.921   3.530  -7.477  0.00  0.00    -0.670 N 
ATOM     21  H   LIG    1        3.650   2.621  -7.679  0.00  0.00    +0.410 HD
ATOM     22  C   LIG    1        4.326   3.852  -6.233  0.00  0.00    +0.520 C 
ATOM     23  O   LIG    1        4.744   4.967  -6.001  0.00  0.00    -0.520 OA
BRANCH  20  27
ATOM     24  C   LIG    1        3.832   6.443 -10.461  0.00  0.00    +0.130 A 
ATOM     25  C   LIG    1        4.826   6.470  -9.494  0.00  0.00    -0.040 A 
ATOM     26  C   LIG    1        4.856   5.506  -8.506  0.00  0.00    +0.080 A 
ATOM     27  C   LIG    1        3.890   4.509  -8.479  0.00  0.00    +0.110 A 
ATOM     28  C   LIG    1        2.898   4.479  -9.450  0.00  0.00    +0.040 A 
ATOM     29  C   LIG    1        2.866   5.447 -10.435  0.00  0.00    -0.050 A 
ATOM     30 CL   LIG    1        1.622   5.413 -11.646  0.00  0.00    -0.050 Cl
BRANCH  24  32
ATOM     31  C   LIG    1        4.829   8.389 -11.399  0.00  0.00    +0.240 C 
ATOM     32  O   LIG    1        3.804   7.393 -11.433  0.00  0.00    -0.300 OA
ENDBRANCH  24  32
ENDBRANCH  20  27
ENDBRANCH  19  22
ENDBRANCH  18  19
ENDBRANCH   1  18
TORSDOF 6
