REMARK  Name = ZINCvU0000000BnO.0
REMARK                            x       y       z     vdW  Elec       q    Type
REMARK                         _______ _______ _______ _____ _____    ______ ____
ROOT
ATOM      1  C   LIG    1       -0.777   1.744   1.328  0.00  0.00    +0.010 C 
ATOM      2  C   LIG    1        0.430   1.429   0.411  0.00  0.00    +0.040 C 
ATOM      3  C   LIG    1       -0.172   1.636  -1.002  0.00  0.00    +0.220 C 
ATOM      4  O   LIG    1       -1.518   1.133  -0.872  0.00  0.00    -0.360 OA
ATOM      5  C   LIG    1       -2.004   1.560   0.412  0.00  0.00    +0.270 C 
ENDROOT
BRANCH   5   6
ATOM      6  C   LIG    1       -2.920   0.511   0.988  0.00  0.00    -0.250 A 
ATOM      7  C   LIG    1       -3.937   0.731   1.853  0.00  0.00    +0.260 A 
ATOM      8  N   LIG    1       -4.512  -0.463   2.124  0.00  0.00    -0.320 N 
ATOM      9  N   LIG    1       -3.819  -1.447   1.407  0.00  0.00    -0.290 NA
ATOM     10  C   LIG    1       -2.866  -0.862   0.727  0.00  0.00    +0.300 A 
BRANCH   8  11
ATOM     11  C   LIG    1       -5.605  -0.678   2.976  0.00  0.00    +0.130 A 
ATOM     12  C   LIG    1       -6.094  -1.962   3.170  0.00  0.00    +0.060 A 
ATOM     13  C   LIG    1       -7.171  -2.171   4.010  0.00  0.00    +0.040 A 
ATOM     14  C   LIG    1       -7.762  -1.103   4.658  0.00  0.00    +0.040 A 
ATOM     15  C   LIG    1       -7.279   0.179   4.469  0.00  0.00    +0.030 A 
ATOM     16  C   LIG    1       -6.198   0.395   3.634  0.00  0.00    +0.080 A 
ATOM     17  F   LIG    1       -5.721   1.646   3.454  0.00  0.00    -0.130 F 
ENDBRANCH   8  11
ENDBRANCH   5   6
BRANCH   1  18
ATOM     18  C   LIG    1       -0.829   0.776   2.482  0.00  0.00    +0.480 C 
ATOM     19  O   LIG    1       -1.053   1.180   3.599  0.00  0.00    -0.510 OA
BRANCH  18  20
ATOM     20  O   LIG    1       -0.627  -0.533   2.269  0.00  0.00    -0.330 OA
BRANCH  20  29
ATOM     21  C   LIG    1        3.501   0.880   4.829  0.00  0.00    +0.100 C 
ATOM     22  C   LIG    1        2.691  -0.386   4.716  0.00  0.00    -0.090 A 
ATOM     23  C   LIG    1        3.208  -1.583   5.175  0.00  0.00    +0.010 A 
ATOM     24  C   LIG    1        2.461  -2.738   5.066  0.00  0.00    +0.000 A 
ATOM     25  C   LIG    1        1.194  -2.708   4.500  0.00  0.00    -0.070 A 
ATOM     26  C   LIG    1        0.436  -4.007   4.406  0.00  0.00    +0.080 C 
ATOM     27  C   LIG    1       -1.051  -3.746   4.177  0.00  0.00    +0.040 C 
ATOM     28  C   LIG    1       -1.195  -2.782   2.993  0.00  0.00    +0.050 C 
ATOM     29  C   LIG    1       -0.692  -1.407   3.428  0.00  0.00    +0.230 C 
ATOM     30  C   LIG    1        0.677  -1.515   4.046  0.00  0.00    -0.100 A 
ATOM     31  C   LIG    1        1.431  -0.354   4.154  0.00  0.00    +0.010 A 
ENDBRANCH  20  29
ENDBRANCH  18  20
ENDBRANCH   1  18
TORSDOF 5
