REMARK  Name = ZINCrg00000fRFEx.0
REMARK                            x       y       z     vdW  Elec       q    Type
REMARK                         _______ _______ _______ _____ _____    ______ ____
ROOT
ATOM      1  C   LIG    1        8.373   9.408  -2.972  0.00  0.00    +0.000 C 
ATOM      2  C   LIG    1        9.006   9.814  -1.639  0.00  0.00    +0.030 C 
ATOM      3  C   LIG    1        8.070   9.431  -0.491  0.00  0.00    +0.010 C 
ATOM      4  C   LIG    1        7.864   7.917  -0.488  0.00  0.00    +0.260 C 
ATOM      5  N   LIG    1        7.395   7.495  -1.815  0.00  0.00    -0.630 N 
ATOM      6  C   LIG    1        6.270   6.765  -1.946  0.00  0.00    +0.710 C 
ATOM      7  N   LIG    1        5.511   6.496  -0.865  0.00  0.00    -0.740 N 
ATOM      8  H   LIG    1        5.812   6.764   0.017  0.00  0.00    +0.400 HD
ATOM      9  O   LIG    1        5.939   6.349  -3.040  0.00  0.00    -0.580 OA
ATOM     10  C   LIG    1        8.174   7.889  -2.997  0.00  0.00    +0.300 C 
ENDROOT
BRANCH   7  11
ATOM     11  C   LIG    1        4.233   5.799  -1.023  0.00  0.00    +0.250 C 
ATOM     12  C   LIG    1        3.311   6.149   0.149  0.00  0.00    +0.030 C 
ATOM     13  C   LIG    1        2.000   5.373   0.010  0.00  0.00    +0.210 C 
ATOM     14  N   LIG    1        2.282   3.932  -0.000  0.00  0.00    -0.480 N 
ATOM     15  C   LIG    1        3.127   3.564  -1.144  0.00  0.00    +0.200 C 
ATOM     16  C   LIG    1        4.471   4.287  -1.040  0.00  0.00    +0.030 C 
BRANCH  14  17
ATOM     17  C   LIG    1        1.104   3.194   0.007  0.00  0.00    +0.310 A 
ATOM     18  C   LIG    1        1.161   1.804  -0.001  0.00  0.00    -0.050 A 
ATOM     19  C   LIG    1       -0.018   1.082   0.006  0.00  0.00    +0.090 A 
ATOM     20  C   LIG    1       -1.220   1.776   0.016  0.00  0.00    -0.070 A 
ATOM     21  C   LIG    1       -1.204   3.157   0.029  0.00  0.00    +0.290 A 
ATOM     22  N   LIG    1       -0.063   3.820   0.022  0.00  0.00    -0.520 NA
ENDBRANCH  14  17
ENDBRANCH   7  11
BRANCH   1  23
ATOM     23  C   LIG    1        9.295   9.821  -4.122  0.00  0.00    -0.350 C 
BRANCH  23  24
ATOM     24  S   LIG    1        8.482   9.470  -5.705  0.00  0.00    +2.600 S 
ATOM     25  O   LIG    1        7.367  10.331  -5.895  0.00  0.00    -0.950 OA
ATOM     26  O   LIG    1        8.367   8.068  -5.907  0.00  0.00    -0.940 OA
BRANCH  24  28
ATOM     27  C   LIG    1       10.863   9.272  -6.972  0.00  0.00    +0.290 C 
ATOM     28  N   LIG    1        9.575   9.959  -6.848  0.00  0.00    -1.130 NA
ATOM     29  H   LIG    1        9.363  10.701  -7.436  0.00  0.00    +0.420 HD
ENDBRANCH  24  28
ENDBRANCH  23  24
ENDBRANCH   1  23
TORSDOF 5
