REMARK  Name = ZINCpk00000y6vHI.0
REMARK                            x       y       z     vdW  Elec       q    Type
REMARK                         _______ _______ _______ _____ _____    ______ ____
ROOT
ATOM      1  C   LIG    1        3.122   0.830   2.198  0.00  0.00    +0.290 C 
ENDROOT
BRANCH   1   2
ATOM      2  C   LIG    1        3.042   2.146   1.421  0.00  0.00    -0.040 C 
ATOM      3  C   LIG    1        4.459   2.670   1.096  0.00  0.00    +0.000 C 
ATOM      4  C   LIG    1        4.504   2.696  -0.448  0.00  0.00    +0.200 C 
ATOM      5  O   LIG    1        3.122   2.792  -0.858  0.00  0.00    -0.360 OA
ATOM      6  C   LIG    1        2.399   1.917   0.035  0.00  0.00    +0.250 C 
BRANCH   6   7
ATOM      7  C   LIG    1        0.939   2.289   0.067  0.00  0.00    -0.240 A 
ATOM      8  C   LIG    1       -0.103   1.426   0.058  0.00  0.00    +0.100 A 
ATOM      9  N   LIG    1       -1.239   2.152   0.088  0.00  0.00    -0.370 N 
ATOM     10  N   LIG    1       -0.884   3.507   0.126  0.00  0.00    -0.300 NA
ATOM     11  C   LIG    1       -2.604   1.619   0.086  0.00  0.00    +0.360 C 
ATOM     12  C   LIG    1       -0.010  -0.078   0.014  0.00  0.00    +0.140 C 
ATOM     13  C   LIG    1        0.422   3.588   0.110  0.00  0.00    +0.100 A 
ATOM     14  C   LIG    1        1.228   4.861   0.134  0.00  0.00    +0.160 C 
ENDBRANCH   6   7
ENDBRANCH   1   2
BRANCH   1  16
ATOM     15  C   LIG    1        3.778   0.073   4.420  0.00  0.00    +0.600 C 
ATOM     16  N   LIG    1        3.624   1.091   3.550  0.00  0.00    -0.710 N 
ATOM     17  H   LIG    1        3.845   1.996   3.819  0.00  0.00    +0.410 HD
ATOM     18  O   LIG    1        3.412  -1.047   4.117  0.00  0.00    -0.510 OA
BRANCH  15  24
ATOM     19  N   LIG    1        3.757   0.720   6.882  0.00  0.00    -0.270 N 
ATOM     20  N   LIG    1        4.641   0.813   7.812  0.00  0.00    -0.060 NA
ATOM     21  N   LIG    1        5.806   0.510   7.362  0.00  0.00    -0.270 NA
ATOM     22  C   LIG    1        5.713   0.191   6.070  0.00  0.00    +0.030 A 
ATOM     23  C   LIG    1        6.839  -0.226   5.160  0.00  0.00    +0.170 C 
ATOM     24  C   LIG    1        4.390   0.316   5.736  0.00  0.00    -0.070 A 
BRANCH  19  26
ATOM     25  C   LIG    1        1.617  -0.254   7.557  0.00  0.00    +0.060 C 
ATOM     26  C   LIG    1        2.325   0.994   7.025  0.00  0.00    +0.320 C 
ENDBRANCH  19  26
ENDBRANCH  15  24
ENDBRANCH   1  16
TORSDOF 5
