REMARK  Name = ZINCpk00000y6vVG.0
REMARK                            x       y       z     vdW  Elec       q    Type
REMARK                         _______ _______ _______ _____ _____    ______ ____
ROOT
ATOM      1  C   LIG    1       -6.278   2.553  -1.198  0.00  0.00    -0.010 C 
ATOM      2  C   LIG    1       -7.043   2.500  -2.532  0.00  0.00    +0.050 C 
ATOM      3  C   LIG    1       -8.253   1.569  -2.310  0.00  0.00    +0.110 C 
ATOM      4  C   LIG    1       -8.489   1.612  -0.780  0.00  0.00    +0.020 C 
ATOM      5  C   LIG    1       -7.049   1.651  -0.212  0.00  0.00    +0.170 C 
ENDROOT
BRANCH   3   6
ATOM      6  C   LIG    1       -9.461   2.089  -3.045  0.00  0.00    +0.320 A 
ATOM      7  N   LIG    1       -9.889   1.671  -4.209  0.00  0.00    -0.560 NA
ATOM      8  C   LIG    1      -10.985   2.352  -4.559  0.00  0.00    +0.480 A 
ATOM      9  N   LIG    1      -11.265   3.216  -3.613  0.00  0.00    -0.370 NA
ATOM     10  N   LIG    1      -10.288   3.057  -2.617  0.00  0.00    -0.480 N 
ATOM     11  H   LIG    1      -10.222   3.550  -1.784  0.00  0.00    +0.440 HD
BRANCH   8  12
ATOM     12  N   LIG    1      -11.711   2.173  -5.738  0.00  0.00    -0.600 N 
ATOM     13  C   LIG    1      -12.899   2.991  -5.998  0.00  0.00    +0.300 C 
ATOM     14  C   LIG    1      -11.287   1.167  -6.715  0.00  0.00    +0.300 C 
ENDBRANCH   8  12
ENDBRANCH   3   6
BRANCH   5  15
ATOM     15  O   LIG    1       -6.485   0.338  -0.189  0.00  0.00    -0.550 OA
ATOM     16  H   LIG    1       -6.931  -0.271   0.415  0.00  0.00    +0.380 HD
ENDBRANCH   5  15
BRANCH   1  17
ATOM     17  C   LIG    1       -4.855   2.023  -1.390  0.00  0.00    +0.300 C 
BRANCH  17  19
ATOM     18  C   LIG    1       -2.827   1.755  -0.066  0.00  0.00    +0.560 C 
ATOM     19  N   LIG    1       -4.111   2.159  -0.135  0.00  0.00    -0.720 N 
ATOM     20  H   LIG    1       -4.542   2.539   0.646  0.00  0.00    +0.400 HD
ATOM     21  O   LIG    1       -2.287   1.278  -1.045  0.00  0.00    -0.530 OA
BRANCH  18  28
ATOM     22  C   LIG    1       -0.003   1.128  -0.002  0.00  0.00    +0.120 C 
ATOM     23  C   LIG    1       -0.713   1.592   1.243  0.00  0.00    -0.020 A 
ATOM     24  C   LIG    1       -0.017   1.727   2.426  0.00  0.00    +0.000 A 
ATOM     25  C   LIG    1       -0.668   2.153   3.571  0.00  0.00    +0.040 A 
ATOM     26  C   LIG    1       -2.020   2.446   3.536  0.00  0.00    -0.010 A 
ATOM     27  C   LIG    1       -2.728   2.315   2.359  0.00  0.00    +0.040 A 
ATOM     28  C   LIG    1       -2.076   1.892   1.200  0.00  0.00    -0.140 A 
ENDBRANCH  18  28
ENDBRANCH  17  19
ENDBRANCH   1  17
TORSDOF 6
