REMARK  Name = ZINCpk00000e1DfM.0
REMARK                            x       y       z     vdW  Elec       q    Type
REMARK                         _______ _______ _______ _____ _____    ______ ____
ROOT
ATOM      1  C   LIG    1       -4.890  -1.200   1.642  0.00  0.00    +0.160 C 
ATOM      2  C   LIG    1       -3.982  -0.393   0.751  0.00  0.00    +0.170 A 
ATOM      3  N   LIG    1       -3.044   0.427   1.152  0.00  0.00    -0.280 NA
ATOM      4  N   LIG    1       -2.430   0.977   0.019  0.00  0.00    -0.350 N 
ATOM      5  C   LIG    1       -3.035   0.463  -1.072  0.00  0.00    +0.220 A 
ATOM      6  C   LIG    1       -2.700   0.781  -2.507  0.00  0.00    +0.160 C 
ATOM      7  C   LIG    1       -3.994  -0.392  -0.648  0.00  0.00    -0.820 A 
ENDROOT
BRANCH   7   8
ATOM      8  S   LIG    1       -5.074  -1.331  -1.675  0.00  0.00    +2.720 S 
ATOM      9  O   LIG    1       -5.503  -2.441  -0.898  0.00  0.00    -0.950 OA
ATOM     10  O   LIG    1       -4.418  -1.467  -2.928  0.00  0.00    -0.960 OA
BRANCH   8  11
ATOM     11  N   LIG    1       -6.419  -0.405  -1.950  0.00  0.00    -1.010 NA
ATOM     12  C   LIG    1       -7.565  -0.489  -1.040  0.00  0.00    +0.300 C 
ATOM     13  C   LIG    1       -6.463   0.499  -3.102  0.00  0.00    +0.290 C 
ENDBRANCH   8  11
ENDBRANCH   7   8
BRANCH   4  14
ATOM     14  C   LIG    1       -1.330   1.944   0.019  0.00  0.00    +0.370 C 
BRANCH  14  15
ATOM     15  C   LIG    1       -0.014   1.209   0.009  0.00  0.00    +0.500 C 
ATOM     16  N   LIG    1        1.143   1.898   0.001  0.00  0.00    -0.610 N 
ATOM     17  C   LIG    1        1.124   3.363   0.009  0.00  0.00    +0.290 C 
ATOM     18  O   LIG    1        0.002  -0.004   0.002  0.00  0.00    -0.510 OA
BRANCH  16  19
ATOM     19  C   LIG    1        2.422   1.183  -0.015  0.00  0.00    +0.340 C 
BRANCH  19  20
ATOM     20  C   LIG    1        2.847   0.946  -1.441  0.00  0.00    -0.110 A 
ATOM     21  C   LIG    1        2.462  -0.211  -2.093  0.00  0.00    +0.030 A 
ATOM     22  C   LIG    1        2.848  -0.426  -3.403  0.00  0.00    +0.000 A 
ATOM     23  C   LIG    1        3.627   0.509  -4.057  0.00  0.00    +0.010 A 
ATOM     24  C   LIG    1        4.016   1.663  -3.403  0.00  0.00    +0.000 A 
ATOM     25  C   LIG    1        3.626   1.881  -2.095  0.00  0.00    +0.010 A 
ENDBRANCH  19  20
ENDBRANCH  16  19
ENDBRANCH  14  15
ENDBRANCH   4  14
TORSDOF 6
