REMARK  Name = ZINCrH00000tj1nA.0
REMARK                            x       y       z     vdW  Elec       q    Type
REMARK                         _______ _______ _______ _____ _____    ______ ____
ROOT
ATOM      1  C   LIG    1        0.400   4.156  -1.214  0.00  0.00    -0.010 C 
ATOM      2  C   LIG    1        1.285   2.926  -1.426  0.00  0.00    +0.060 C 
ATOM      3  C   LIG    1        1.924   2.520  -0.097  0.00  0.00    +0.020 C 
ATOM      4  C   LIG    1        0.824   2.156   0.905  0.00  0.00    +0.270 C 
ATOM      5  N   LIG    1       -0.115   3.282   1.006  0.00  0.00    -0.610 N 
ATOM      6  C   LIG    1       -0.416   3.820   2.205  0.00  0.00    +0.570 C 
ATOM      7  O   LIG    1       -1.112   4.814   2.267  0.00  0.00    -0.530 OA
ATOM      8  C   LIG    1       -0.718   3.811  -0.225  0.00  0.00    +0.300 C 
ENDROOT
BRANCH   6   9
ATOM      9  C   LIG    1        0.101   3.200   3.443  0.00  0.00    -0.130 A 
ATOM     10  C   LIG    1        0.225   1.812   3.533  0.00  0.00    +0.060 A 
ATOM     11  C   LIG    1        0.713   1.241   4.689  0.00  0.00    +0.020 A 
ATOM     12  C   LIG    1        1.069   2.039   5.763  0.00  0.00    -0.010 A 
ATOM     13  C   LIG    1        0.943   3.416   5.682  0.00  0.00    +0.030 A 
ATOM     14 CL   LIG    1        1.676   1.312   7.218  0.00  0.00    -0.060 Cl
ATOM     15  C   LIG    1        0.462   4.000   4.529  0.00  0.00    +0.090 A 
ENDBRANCH   6   9
BRANCH   1  18
ATOM     16  N   LIG    1       -1.024   5.644  -2.585  0.00  0.00    -0.630 N 
ATOM     17  H   LIG    1       -1.226   6.142  -1.778  0.00  0.00    +0.430 HD
ATOM     18  C   LIG    1       -0.204   4.576  -2.529  0.00  0.00    +0.510 C 
ATOM     19  O   LIG    1        0.049   3.952  -3.538  0.00  0.00    -0.450 OA
BRANCH  16  23
ATOM     20  C   LIG    1       -2.744   7.015  -5.724  0.00  0.00    -0.370 A 
ATOM     21  C   LIG    1       -1.966   5.914  -5.983  0.00  0.00    +0.210 A 
ATOM     22  N   LIG    1       -1.365   5.431  -4.929  0.00  0.00    -0.490 NA
ATOM     23  C   LIG    1       -1.577   6.028  -3.792  0.00  0.00    +0.290 A 
ATOM     24  C   LIG    1       -1.815   5.319  -7.360  0.00  0.00    +0.180 C 
ATOM     25  S   LIG    1       -2.630   7.359  -4.000  0.00  0.00    +0.190 S 
BRANCH  20  27
ATOM     26  C   LIG    1       -4.307   8.934  -6.229  0.00  0.00    +0.070 C 
ATOM     27  C   LIG    1       -3.498   7.741  -6.668  0.00  0.00    +0.430 C 
ATOM     28  O   LIG    1       -3.497   7.403  -7.835  0.00  0.00    -0.460 OA
ENDBRANCH  20  27
ENDBRANCH  16  23
ENDBRANCH   1  18
TORSDOF 4
