REMARK  Name = ZINCpk00000Kbuvv.0
REMARK                            x       y       z     vdW  Elec       q    Type
REMARK                         _______ _______ _______ _____ _____    ______ ____
ROOT
ATOM      1  C   LIG    1       -3.356   2.115   0.045  0.00  0.00    -0.010 A 
ATOM      2  C   LIG    1       -3.877   2.595   1.232  0.00  0.00    +0.030 A 
ATOM      3  C   LIG    1       -4.728   3.685   1.222  0.00  0.00    +0.070 A 
ATOM      4  C   LIG    1       -5.065   4.288   0.025  0.00  0.00    +0.020 A 
ATOM      5  C   LIG    1       -4.548   3.805  -1.162  0.00  0.00    +0.090 A 
ATOM      6  C   LIG    1       -3.694   2.719  -1.153  0.00  0.00    -0.660 A 
ENDROOT
BRANCH   6   7
ATOM      7  S   LIG    1       -3.035   2.102  -2.666  0.00  0.00    +2.690 S 
ATOM      8  O   LIG    1       -3.819   0.969  -3.013  0.00  0.00    -0.950 OA
ATOM      9  O   LIG    1       -1.625   2.050  -2.498  0.00  0.00    -0.940 OA
BRANCH   7  10
ATOM     10  N   LIG    1       -3.325   3.245  -3.829  0.00  0.00    -1.000 NA
ATOM     11  C   LIG    1       -4.498   3.146  -4.713  0.00  0.00    +0.270 C 
ATOM     12  C   LIG    1       -5.233   4.495  -4.686  0.00  0.00    +0.210 C 
ATOM     13  O   LIG    1       -4.304   5.541  -4.980  0.00  0.00    -0.370 OA
ATOM     14  C   LIG    1       -3.249   5.673  -4.024  0.00  0.00    +0.210 C 
ATOM     15  C   LIG    1       -2.415   4.387  -4.012  0.00  0.00    +0.280 C 
ENDBRANCH   7  10
ENDBRANCH   6   7
BRANCH   1  16
ATOM     16  C   LIG    1       -2.424   0.931   0.056  0.00  0.00    +0.310 C 
BRANCH  16  19
ATOM     17  O   LIG    1       -0.279  -0.678  -0.245  0.00  0.00    -0.530 OA
ATOM     18  C   LIG    1       -0.033   0.507  -0.136  0.00  0.00    +0.550 C 
ATOM     19  N   LIG    1       -1.039   1.398  -0.035  0.00  0.00    -0.700 N 
ATOM     20  H   LIG    1       -0.846   2.349  -0.021  0.00  0.00    +0.410 HD
BRANCH  18  21
ATOM     21  C   LIG    1        1.364   0.971  -0.121  0.00  0.00    +0.030 C 
ATOM     22  C   LIG    1        2.357   0.087  -0.124  0.00  0.00    +0.010 C 
BRANCH  22  23
ATOM     23  C   LIG    1        3.788   0.561  -0.108  0.00  0.00    +0.500 C 
ATOM     24  F   LIG    1        4.446   0.094  -1.251  0.00  0.00    -0.170 F 
ATOM     25  F   LIG    1        4.430   0.070   1.033  0.00  0.00    -0.170 F 
ATOM     26  F   LIG    1        3.815   1.960  -0.093  0.00  0.00    -0.180 F 
ENDBRANCH  22  23
ENDBRANCH  18  21
ENDBRANCH  16  19
ENDBRANCH   1  16
TORSDOF 6
