REMARK  Name = ZINCrD000000AeZ8.2
REMARK                            x       y       z     vdW  Elec       q    Type
REMARK                         _______ _______ _______ _____ _____    ______ ____
ROOT
ATOM      1  C   LIG    1        1.723   9.549  -6.048  0.00  0.00    +0.220 C 
ATOM      2  C   LIG    1        0.343   8.957  -5.707  0.00  0.00    +0.060 C 
ATOM      3  C   LIG    1        0.781   9.000  -4.243  0.00  0.00    -0.110 C 
ATOM      4  C   LIG    1       -0.238   9.177  -3.118  0.00  0.00    +0.030 C 
ATOM      5  C   LIG    1       -0.128   7.658  -2.895  0.00  0.00    +0.000 C 
ATOM      6  C   LIG    1        1.273   7.739  -3.529  0.00  0.00    +0.040 C 
ATOM      7  C   LIG    1        1.747  10.124  -4.620  0.00  0.00    +0.020 C 
ENDROOT
BRANCH   1  10
ATOM      8  O   LIG    1        3.927   9.930  -7.551  0.00  0.00    -0.540 OA
ATOM      9  C   LIG    1        3.819   8.827  -7.058  0.00  0.00    +0.520 C 
ATOM     10  N   LIG    1        2.752   8.534  -6.289  0.00  0.00    -0.710 N 
ATOM     11  H   LIG    1        2.666   7.652  -5.895  0.00  0.00    +0.400 HD
BRANCH   9  12
ATOM     12  C   LIG    1        4.878   7.784  -7.306  0.00  0.00    +0.050 C 
BRANCH  12  13
ATOM     13  C   LIG    1        5.970   8.369  -8.204  0.00  0.00    +0.200 C 
BRANCH  13  14
ATOM     14  N   LIG    1        7.002   7.352  -8.446  0.00  0.00    -0.530 NA
ATOM     15  C   LIG    1        7.767   7.069  -7.212  0.00  0.00    +0.180 C 
ATOM     16  C   LIG    1        9.203   6.757  -7.700  0.00  0.00    +0.030 C 
ATOM     17  C   LIG    1        9.359   7.756  -8.876  0.00  0.00    +0.160 C 
ATOM     18  F   LIG    1       10.291   7.284  -9.807  0.00  0.00    -0.200 F 
ATOM     19  C   LIG    1        7.944   7.793  -9.491  0.00  0.00    +0.180 C 
ENDBRANCH  13  14
ENDBRANCH  12  13
ENDBRANCH   9  12
ENDBRANCH   1  10
BRANCH   5  20
ATOM     20  C   LIG    1       -0.109   7.256  -1.419  0.00  0.00    +0.170 C 
BRANCH  20  21
ATOM     21  O   LIG    1       -0.089   5.831  -1.314  0.00  0.00    -0.380 OA
BRANCH  21  22
ATOM     22  C   LIG    1       -0.070   5.347   0.031  0.00  0.00    +0.220 C 
BRANCH  22  23
ATOM     23  C   LIG    1       -0.050   3.840   0.022  0.00  0.00    -0.090 A 
ATOM     24  C   LIG    1        1.156   3.165   0.008  0.00  0.00    +0.020 A 
ATOM     25  C   LIG    1        1.175   1.783   0.000  0.00  0.00    +0.000 A 
ATOM     26  C   LIG    1       -0.013   1.076   0.008  0.00  0.00    +0.010 A 
ATOM     27  C   LIG    1       -1.219   1.751   0.017  0.00  0.00    +0.000 A 
ATOM     28  C   LIG    1       -1.238   3.133   0.029  0.00  0.00    +0.020 A 
ENDBRANCH  22  23
ENDBRANCH  21  22
ENDBRANCH  20  21
ENDBRANCH   5  20
TORSDOF 8
