REMARK  Name = ZINCpk00000eaA37.0
REMARK                            x       y       z     vdW  Elec       q    Type
REMARK                         _______ _______ _______ _____ _____    ______ ____
ROOT
ATOM      1  N   LIG    1       -2.672   2.871  -5.091  0.00  0.00    -0.340 N 
ATOM      2  N   LIG    1       -3.097   4.148  -5.499  0.00  0.00    -0.060 NA
ATOM      3  N   LIG    1       -3.619   4.007  -6.670  0.00  0.00    -0.020 NA
ATOM      4  N   LIG    1       -3.564   2.777  -7.035  0.00  0.00    -0.310 NA
ATOM      5  C   LIG    1       -2.992   2.048  -6.113  0.00  0.00    +0.270 A 
ENDROOT
BRANCH   1   9
ATOM      6  C   LIG    1       -0.806   1.849  -1.505  0.00  0.00    -0.660 A 
ATOM      7  C   LIG    1       -1.686   0.965  -2.102  0.00  0.00    +0.170 A 
ATOM      8  C   LIG    1       -2.311   1.303  -3.286  0.00  0.00    -0.020 A 
ATOM      9  C   LIG    1       -2.045   2.527  -3.885  0.00  0.00    +0.190 A 
ATOM     10  C   LIG    1       -1.156   3.411  -3.286  0.00  0.00    +0.040 A 
ATOM     11  C   LIG    1       -0.539   3.069  -2.098  0.00  0.00    +0.160 A 
BRANCH   6  13
ATOM     12  C   LIG    1       -1.139   2.031   1.296  0.00  0.00    -0.240 C 
ATOM     13  S   LIG    1       -0.017   1.417   0.010  0.00  0.00    +2.500 S 
ATOM     14  O   LIG    1        1.190   2.166   0.002  0.00  0.00    -0.930 OA
ATOM     15  O   LIG    1        0.002  -0.004   0.002  0.00  0.00    -0.930 OA
ENDBRANCH   6  13
ENDBRANCH   1   9
BRANCH   5  16
ATOM     16  C   LIG    1       -2.740   0.563  -6.176  0.00  0.00    -0.110 C 
BRANCH  16  17
ATOM     17  S   LIG    1       -4.166  -0.323  -5.489  0.00  0.00    +1.370 S 
ATOM     18  O   LIG    1       -5.266  -0.213  -6.382  0.00  0.00    -0.780 OA
BRANCH  17  19
ATOM     19  C   LIG    1       -3.695  -2.013  -5.646  0.00  0.00    -0.250 A 
ATOM     20  C   LIG    1       -3.011  -2.630  -4.616  0.00  0.00    +0.070 A 
ATOM     21  C   LIG    1       -2.646  -3.961  -4.748  0.00  0.00    +0.080 A 
ATOM     22  C   LIG    1       -2.984  -4.625  -5.919  0.00  0.00    -0.050 A 
ATOM     23  C   LIG    1       -3.670  -3.941  -6.907  0.00  0.00    +0.270 A 
ATOM     24 CL   LIG    1       -2.553  -6.292  -6.140  0.00  0.00    -0.040 Cl
ATOM     25  N   LIG    1       -4.005  -2.677  -6.743  0.00  0.00    -0.400 NA
ENDBRANCH  17  19
ENDBRANCH  16  17
ENDBRANCH   5  16
TORSDOF 5
