REMARK  Name = ZINCtV00000vAPM0.0
REMARK                            x       y       z     vdW  Elec       q    Type
REMARK                         _______ _______ _______ _____ _____    ______ ____
ROOT
ATOM      1  C   LIG    1        0.562  -3.587  -2.277  0.00  0.00    +0.500 A 
ATOM      2  C   LIG    1        1.417  -3.642  -3.409  0.00  0.00    -0.220 A 
ATOM      3  C   LIG    1        0.992  -4.373  -4.515  0.00  0.00    +0.120 A 
ATOM      4  S   LIG    1        2.212  -4.300  -5.773  0.00  0.00    +0.190 S 
ATOM      5  C   LIG    1        3.275  -3.293  -4.790  0.00  0.00    -0.210 A 
ATOM      6  C   LIG    1        4.642  -2.626  -4.912  0.00  0.00    +0.130 C 
ATOM      7  C   LIG    1        4.664  -1.563  -3.796  0.00  0.00    +0.050 C 
ATOM      8  C   LIG    1        3.681  -2.168  -2.774  0.00  0.00    +0.080 C 
ATOM      9  N   LIG    1       -0.200  -4.982  -4.476  0.00  0.00    -0.520 NA
ATOM     10  C   LIG    1       -0.967  -4.900  -3.404  0.00  0.00    +0.420 A 
ATOM     11  C   LIG    1        2.739  -3.040  -3.604  0.00  0.00    -0.080 A 
ATOM     12  N   LIG    1       -0.600  -4.219  -2.323  0.00  0.00    -0.580 NA
ENDROOT
BRANCH  10  13
ATOM     13  C   LIG    1       -2.280  -5.590  -3.406  0.00  0.00    -0.040 A 
ATOM     14  C   LIG    1       -3.106  -5.524  -2.285  0.00  0.00    +0.100 A 
ATOM     15  C   LIG    1       -4.329  -6.164  -2.294  0.00  0.00    +0.020 A 
ATOM     16  C   LIG    1       -4.730  -6.879  -3.409  0.00  0.00    -0.020 A 
ATOM     17  C   LIG    1       -3.911  -6.951  -4.523  0.00  0.00    +0.020 A 
ATOM     18 CL   LIG    1       -6.267  -7.687  -3.411  0.00  0.00    -0.070 Cl
ATOM     19  C   LIG    1       -2.689  -6.311  -4.527  0.00  0.00    +0.090 A 
ENDBRANCH  10  13
BRANCH   1  20
ATOM     20  N   LIG    1        0.935  -2.882  -1.147  0.00  0.00    -0.690 N 
ATOM     21  H   LIG    1        1.789  -2.422  -1.122  0.00  0.00    +0.410 HD
BRANCH  20  22
ATOM     22  C   LIG    1        0.041  -2.829   0.012  0.00  0.00    +0.340 C 
BRANCH  22  28
ATOM     23  C   LIG    1        0.626  -0.618   1.042  0.00  0.00    +0.150 A 
ATOM     24  C   LIG    1        1.207   0.138   2.048  0.00  0.00    -0.080 A 
ATOM     25  C   LIG    1        1.841  -0.488   3.104  0.00  0.00    +0.060 A 
ATOM     26  C   LIG    1        1.896  -1.869   3.157  0.00  0.00    -0.030 A 
ATOM     27  C   LIG    1        1.317  -2.626   2.155  0.00  0.00    +0.070 A 
ATOM     28  C   LIG    1        0.677  -2.004   1.101  0.00  0.00    -0.150 A 
BRANCH  23  30
ATOM     29  C   LIG    1       -0.017   1.425   0.010  0.00  0.00    +0.250 C 
ATOM     30  O   LIG    1        0.002  -0.004   0.002  0.00  0.00    -0.310 OA
ENDBRANCH  23  30
ENDBRANCH  22  28
ENDBRANCH  20  22
ENDBRANCH   1  20
TORSDOF 5
