REMARK  Name = ZINCtV00001bB3qK.0
REMARK                            x       y       z     vdW  Elec       q    Type
REMARK                         _______ _______ _______ _____ _____    ______ ____
ROOT
ATOM      1  C   LIG    1        1.094   1.906   0.002  0.00  0.00    -0.220 A 
ATOM      2  C   LIG    1       -0.013   1.076   0.008  0.00  0.00    +0.290 A 
ATOM      3  N   LIG    1       -1.110   1.854   0.017  0.00  0.00    -0.300 N 
ATOM      4  N   LIG    1       -0.733   3.199   0.025  0.00  0.00    -0.270 NA
ATOM      5  C   LIG    1        0.578   3.281   0.013  0.00  0.00    +0.150 A 
ENDROOT
BRANCH   5   6
ATOM      6  C   LIG    1        1.384   4.524   0.012  0.00  0.00    -0.020 A 
ATOM      7  C   LIG    1        0.930   5.652  -0.670  0.00  0.00    +0.070 A 
ATOM      8  C   LIG    1        1.684   6.808  -0.667  0.00  0.00    +0.030 A 
ATOM      9  C   LIG    1        2.889   6.849   0.010  0.00  0.00    +0.060 A 
ATOM     10  C   LIG    1        3.346   5.733   0.690  0.00  0.00    -0.090 A 
ATOM     11 BR   LIG    1        4.994   5.799   1.614  0.00  0.00    -0.040 Br
ATOM     12  C   LIG    1        2.597   4.573   0.698  0.00  0.00    +0.070 A 
ENDBRANCH   5   6
BRANCH   3  13
ATOM     13  C   LIG    1       -2.430   1.386   0.020  0.00  0.00    +0.150 A 
ATOM     14  C   LIG    1       -2.685   0.021   0.007  0.00  0.00    -0.010 A 
ATOM     15  C   LIG    1       -3.987  -0.438   0.016  0.00  0.00    +0.050 A 
ATOM     16  C   LIG    1       -5.038   0.462   0.025  0.00  0.00    +0.010 A 
ATOM     17  C   LIG    1       -4.788   1.821   0.031  0.00  0.00    +0.050 A 
ATOM     18  C   LIG    1       -3.487   2.286   0.029  0.00  0.00    +0.030 A 
ENDBRANCH   3  13
BRANCH   1  20
ATOM     19  C   LIG    1        2.823   0.180  -0.022  0.00  0.00    -0.140 C 
ATOM     20  C   LIG    1        2.502   1.495  -0.013  0.00  0.00    +0.190 C 
BRANCH  19  22
ATOM     21  O   LIG    1        5.062   0.625  -0.040  0.00  0.00    -0.460 OA
ATOM     22  C   LIG    1        4.181  -0.217  -0.036  0.00  0.00    +0.430 C 
BRANCH  22  23
ATOM     23  C   LIG    1        4.532  -1.653  -0.046  0.00  0.00    -0.170 A 
ATOM     24  C   LIG    1        3.525  -2.621  -0.036  0.00  0.00    +0.090 A 
ATOM     25  C   LIG    1        3.857  -3.958  -0.051  0.00  0.00    -0.030 A 
ATOM     26  C   LIG    1        5.189  -4.344  -0.065  0.00  0.00    +0.130 A 
ATOM     27  C   LIG    1        6.193  -3.388  -0.070  0.00  0.00    -0.020 A 
ATOM     28  F   LIG    1        5.510  -5.657  -0.074  0.00  0.00    -0.130 F 
ATOM     29  C   LIG    1        5.872  -2.047  -0.060  0.00  0.00    +0.120 A 
ENDBRANCH  22  23
ENDBRANCH  19  22
ENDBRANCH   1  20
TORSDOF 5
