REMARK  Name = ZINCrH000004qPNn.0
REMARK                            x       y       z     vdW  Elec       q    Type
REMARK                         _______ _______ _______ _____ _____    ______ ____
ROOT
ATOM      1  N   LIG    1       -3.613   1.763   0.029  0.00  0.00    -0.490 NA
ATOM      2  C   LIG    1       -3.661   2.525   1.284  0.00  0.00    +0.180 C 
ATOM      3  C   LIG    1       -4.769   3.577   1.201  0.00  0.00    +0.040 C 
ATOM      4  C   LIG    1       -6.110   2.880   0.953  0.00  0.00    +0.010 C 
ATOM      5  C   LIG    1       -6.018   2.055  -0.334  0.00  0.00    +0.040 C 
ATOM      6  C   LIG    1       -4.873   1.047  -0.206  0.00  0.00    +0.240 C 
ENDROOT
BRANCH   6   7
ATOM      7  C   LIG    1       -4.765   0.246  -1.478  0.00  0.00    +0.210 A 
ATOM      8  N   LIG    1       -3.966   0.510  -2.474  0.00  0.00    -0.440 NA
ATOM      9  C   LIG    1       -4.139  -0.416  -3.439  0.00  0.00    +0.030 A 
ATOM     10  C   LIG    1       -5.090  -1.287  -3.010  0.00  0.00    +0.160 A 
ATOM     11  N   LIG    1       -5.477  -0.865  -1.768  0.00  0.00    -0.560 N 
ATOM     12  H   LIG    1       -6.142  -1.285  -1.201  0.00  0.00    +0.420 HD
BRANCH   9  13
ATOM     13  C   LIG    1       -3.421  -0.474  -4.735  0.00  0.00    +0.030 A 
ATOM     14  C   LIG    1       -2.464   0.489  -5.048  0.00  0.00    +0.040 A 
ATOM     15  C   LIG    1       -1.797   0.431  -6.255  0.00  0.00    +0.040 A 
ATOM     16  C   LIG    1       -2.076  -0.581  -7.155  0.00  0.00    -0.010 A 
ATOM     17  C   LIG    1       -3.026  -1.542  -6.850  0.00  0.00    +0.100 A 
ATOM     18  F   LIG    1       -3.295  -2.529  -7.733  0.00  0.00    -0.140 F 
ATOM     19  C   LIG    1       -3.696  -1.496  -5.642  0.00  0.00    -0.020 A 
ENDBRANCH   9  13
ENDBRANCH   6   7
BRANCH   1  20
ATOM     20  C   LIG    1       -2.472   0.838   0.019  0.00  0.00    +0.270 C 
BRANCH  20  27
ATOM     21  C   LIG    1       -0.224   5.175   0.031  0.00  0.00    +0.140 C 
ATOM     22  C   LIG    1       -0.127   3.671   0.022  0.00  0.00    +0.180 A 
ATOM     23  C   LIG    1        1.093   3.067   0.008  0.00  0.00    -0.150 A 
ATOM     24  C   LIG    1        1.148   1.658   0.000  0.00  0.00    +0.520 A 
ATOM     25  N   LIG    1       -0.011   0.966   0.007  0.00  0.00    -0.630 N 
ATOM     26  H   LIG    1        0.002  -0.004   0.002  0.00  0.00    +0.420 HD
ATOM     27  C   LIG    1       -1.187   1.625   0.017  0.00  0.00    +0.410 A 
ATOM     28  O   LIG    1        2.221   1.076  -0.013  0.00  0.00    -0.540 OA
ATOM     29  N   LIG    1       -1.237   2.930   0.029  0.00  0.00    -0.500 NA
ENDBRANCH  20  27
ENDBRANCH   1  20
TORSDOF 4
