REMARK  Name = ZINCrH000004loau.0
REMARK                            x       y       z     vdW  Elec       q    Type
REMARK                         _______ _______ _______ _____ _____    ______ ____
ROOT
ATOM      1  C   LIG    1       -0.830   1.654   6.047  0.00  0.00    +0.570 C 
ATOM      2  N   LIG    1       -0.296   1.289   7.229  0.00  0.00    -0.650 N 
ATOM      3  H   LIG    1        0.503   0.740   7.252  0.00  0.00    +0.410 HD
ATOM      4  O   LIG    1       -1.832   2.342   6.018  0.00  0.00    -0.490 OA
ENDROOT
BRANCH   1   9
ATOM      5  C   LIG    1       -0.149   1.182   2.380  0.00  0.00    +0.130 A 
ATOM      6  C   LIG    1        0.992   0.392   2.419  0.00  0.00    -0.040 A 
ATOM      7  C   LIG    1        1.542   0.022   3.633  0.00  0.00    +0.060 A 
ATOM      8  C   LIG    1        0.954   0.428   4.813  0.00  0.00    -0.010 A 
ATOM      9  C   LIG    1       -0.197   1.218   4.784  0.00  0.00    -0.100 A 
ATOM     10  C   LIG    1       -0.747   1.595   3.558  0.00  0.00    +0.070 A 
BRANCH   5  11
ATOM     11  O   LIG    1       -0.682   1.547   1.184  0.00  0.00    -0.300 OA
BRANCH  11  12
ATOM     12  C   LIG    1       -0.013   1.086   0.008  0.00  0.00    +0.210 C 
BRANCH  12  13
ATOM     13  C   LIG    1       -0.753   1.593  -1.232  0.00  0.00    +0.190 C 
BRANCH  13  15
ATOM     14  C   LIG    1       -1.335   3.596  -2.411  0.00  0.00    +0.200 C 
ATOM     15  O   LIG    1       -0.672   3.018  -1.285  0.00  0.00    -0.390 OA
ENDBRANCH  13  15
ENDBRANCH  12  13
ENDBRANCH  11  12
ENDBRANCH   5  11
ENDBRANCH   1   9
BRANCH   2  16
ATOM     16  C   LIG    1       -0.893   1.699   8.419  0.00  0.00    +0.310 A 
ATOM     17  C   LIG    1       -2.008   2.472   8.537  0.00  0.00    -0.080 A 
ATOM     18  C   LIG    1       -2.268   2.646   9.899  0.00  0.00    +0.100 A 
ATOM     19  N   LIG    1       -1.347   2.014  10.581  0.00  0.00    -0.280 NA
ATOM     20  C   LIG    1       -3.412   3.433  10.484  0.00  0.00    +0.170 C 
ATOM     21  N   LIG    1       -0.465   1.407   9.678  0.00  0.00    -0.340 N 
BRANCH  21  22
ATOM     22  C   LIG    1        0.657   0.636  10.010  0.00  0.00    +0.150 A 
ATOM     23  C   LIG    1        1.013  -0.451   9.223  0.00  0.00    -0.030 A 
ATOM     24  C   LIG    1        2.122  -1.205   9.551  0.00  0.00    +0.050 A 
ATOM     25  C   LIG    1        2.873  -0.885  10.667  0.00  0.00    -0.090 A 
ATOM     26  C   LIG    1        2.518   0.193  11.456  0.00  0.00    +0.040 A 
ATOM     27  C   LIG    1        4.080  -1.714  11.025  0.00  0.00    +0.090 C 
ATOM     28  C   LIG    1        1.413   0.955  11.131  0.00  0.00    +0.040 A 
ENDBRANCH  21  22
ENDBRANCH   2  16
TORSDOF 7
