REMARK  Name = ZINCkj00000GeTEh.1
REMARK                            x       y       z     vdW  Elec       q    Type
REMARK                         _______ _______ _______ _____ _____    ______ ____
ROOT
ATOM      1  N   LIG    1        2.121   0.031  -1.225  0.00  0.00    -0.380 N 
ATOM      2  C   LIG    1        0.750  -0.494  -1.240  0.00  0.00    +0.280 C 
ATOM      3  C   LIG    1        0.002  -0.004   0.002  0.00  0.00    +0.210 C 
ATOM      4  N   LIG    1       -0.018   1.466   0.010  0.00  0.00    -0.510 NA
ATOM      5  C   LIG    1        1.349   2.006   0.000  0.00  0.00    +0.210 C 
ATOM      6  C   LIG    1        2.085   1.499  -1.242  0.00  0.00    +0.180 C 
ATOM      7  H   LIG    1        2.618  -0.302  -2.038  0.00  0.00    +0.430 HD
ENDROOT
BRANCH   6   8
ATOM      8  C   LIG    1        3.515   2.045  -1.245  0.00  0.00    +0.060 C 
ATOM      9  C   LIG    1        4.212   1.642  -2.546  0.00  0.00    +0.030 C 
ENDBRANCH   6   8
BRANCH   1  10
ATOM     10  C   LIG    1        2.808  -0.428  -0.010  0.00  0.00    +0.250 C 
BRANCH  10  11
ATOM     11  C   LIG    1        2.958  -1.950  -0.053  0.00  0.00    +0.200 C 
BRANCH  11  12
ATOM     12  O   LIG    1        3.819  -2.313  -1.133  0.00  0.00    -0.400 OA
BRANCH  12  14
ATOM     13  C   LIG    1        4.959  -3.993  -2.445  0.00  0.00    +0.060 C 
ATOM     14  C   LIG    1        4.026  -3.721  -1.263  0.00  0.00    +0.180 C 
ENDBRANCH  12  14
ENDBRANCH  11  12
ENDBRANCH  10  11
ENDBRANCH   1  10
BRANCH   4  15
ATOM     15  C   LIG    1       -0.777   1.975   1.160  0.00  0.00    +0.420 C 
BRANCH  15  16
ATOM     16  C   LIG    1       -0.057   1.620   2.435  0.00  0.00    +0.120 A 
ATOM     17  N   LIG    1        0.850   2.342   3.047  0.00  0.00    -0.460 NA
ATOM     18  C   LIG    1        1.206   1.631   4.132  0.00  0.00    +0.170 A 
ATOM     19  N   LIG    1        0.510   0.534   4.125  0.00  0.00    -0.370 NA
ATOM     20  C   LIG    1        2.225   2.034   5.167  0.00  0.00    +0.220 C 
ATOM     21  O   LIG    1       -0.226   0.511   3.161  0.00  0.00    +0.080 OA
ENDBRANCH  15  16
ENDBRANCH   4  15
TORSDOF 7
