REMARK  Name = ZINCkj00000GeTEh.0
REMARK                            x       y       z     vdW  Elec       q    Type
REMARK                         _______ _______ _______ _____ _____    ______ ____
ROOT
ATOM      1  N   LIG    1        0.130  -0.270  -4.228  0.00  0.00    -0.380 N 
ATOM      2  C   LIG    1        1.301  -0.750  -3.483  0.00  0.00    +0.290 C 
ATOM      3  C   LIG    1        1.322  -0.106  -2.095  0.00  0.00    +0.210 C 
ATOM      4  N   LIG    1        0.087  -0.453  -1.378  0.00  0.00    -0.520 NA
ATOM      5  C   LIG    1       -1.095   0.001  -2.125  0.00  0.00    +0.220 C 
ATOM      6  C   LIG    1       -1.097  -0.645  -3.512  0.00  0.00    +0.180 C 
ATOM      7  H   LIG    1        0.175   0.735  -4.314  0.00  0.00    +0.410 HD
ENDROOT
BRANCH   6   8
ATOM      8  C   LIG    1       -2.315  -0.159  -4.299  0.00  0.00    +0.020 C 
ATOM      9  C   LIG    1       -3.594  -0.616  -3.593  0.00  0.00    +0.060 C 
ENDBRANCH   6   8
BRANCH   1  10
ATOM     10  C   LIG    1        0.120  -0.875  -5.567  0.00  0.00    +0.280 C 
BRANCH  10  11
ATOM     11  C   LIG    1        1.308  -0.349  -6.373  0.00  0.00    +0.200 C 
BRANCH  11  12
ATOM     12  O   LIG    1        2.522  -0.870  -5.828  0.00  0.00    -0.400 OA
BRANCH  12  14
ATOM     13  C   LIG    1        4.932  -1.054  -5.847  0.00  0.00    +0.050 C 
ATOM     14  C   LIG    1        3.700  -0.437  -6.513  0.00  0.00    +0.180 C 
ENDBRANCH  12  14
ENDBRANCH  11  12
ENDBRANCH  10  11
ENDBRANCH   1  10
BRANCH   4  15
ATOM     15  C   LIG    1        0.095   0.102  -0.018  0.00  0.00    +0.420 C 
BRANCH  15  16
ATOM     16  C   LIG    1        0.058   1.607  -0.088  0.00  0.00    +0.120 A 
ATOM     17  N   LIG    1       -1.014   2.361  -0.114  0.00  0.00    -0.460 NA
ATOM     18  C   LIG    1       -0.565   3.627  -0.176  0.00  0.00    +0.170 A 
ATOM     19  N   LIG    1        0.734   3.579  -0.192  0.00  0.00    -0.370 NA
ATOM     20  C   LIG    1       -1.411   4.873  -0.224  0.00  0.00    +0.210 C 
ATOM     21  O   LIG    1        1.111   2.427  -0.142  0.00  0.00    +0.080 OA
ENDBRANCH  15  16
ENDBRANCH   4  15
TORSDOF 7
