REMARK  Name = ZINCpk000004Fy0S.0
REMARK                            x       y       z     vdW  Elec       q    Type
REMARK                         _______ _______ _______ _____ _____    ______ ____
ROOT
ATOM      1  C   LIG    1        1.826   2.929  -0.819  0.00  0.00    +0.520 C 
ATOM      2  N   LIG    1        1.587   1.695  -0.331  0.00  0.00    -0.610 N 
ATOM      3  C   LIG    1        0.215   1.171  -0.242  0.00  0.00    +0.300 C 
ATOM      4  C   LIG    1        0.178  -0.211  -0.904  0.00  0.00    +0.190 C 
ATOM      5  N   LIG    1        1.210  -1.066  -0.302  0.00  0.00    -0.480 N 
ATOM      6  C   LIG    1        2.556  -0.531  -0.549  0.00  0.00    +0.200 C 
ATOM      7  C   LIG    1        2.690   0.838   0.127  0.00  0.00    +0.290 C 
ATOM      8  O   LIG    1        0.916   3.586  -1.278  0.00  0.00    -0.530 OA
ENDROOT
BRANCH   5   9
ATOM      9  C   LIG    1        1.102  -2.380  -0.762  0.00  0.00    +0.170 A 
ATOM     10  C   LIG    1        0.103  -2.721  -1.666  0.00  0.00    -0.020 A 
ATOM     11  C   LIG    1        0.002  -4.021  -2.122  0.00  0.00    +0.140 A 
ATOM     12  C   LIG    1        0.886  -4.984  -1.672  0.00  0.00    -0.070 A 
ATOM     13  C   LIG    1        1.878  -4.649  -0.768  0.00  0.00    +0.130 A 
ATOM     14  C   LIG    1        1.988  -3.350  -0.312  0.00  0.00    +0.010 A 
BRANCH  12  15
ATOM     15  N   LIG    1        0.770  -6.377  -2.158  0.00  0.00    +0.030 N 
ATOM     16  O   LIG    1       -0.102  -6.674  -2.954  0.00  0.00    -0.160 OA
ATOM     17  O   LIG    1        1.548  -7.227  -1.763  0.00  0.00    -0.160 OA
ENDBRANCH  12  15
ENDBRANCH   5   9
BRANCH   1  18
ATOM     18  C   LIG    1        3.224   3.491  -0.794  0.00  0.00    +0.240 C 
BRANCH  18  21
ATOM     19  C   LIG    1        4.177   6.995   0.418  0.00  0.00    +0.100 C 
ATOM     20  C   LIG    1        4.233   5.525   0.090  0.00  0.00    +0.510 C 
ATOM     21  N   LIG    1        3.169   4.920  -0.475  0.00  0.00    -0.720 N 
ATOM     22  H   LIG    1        2.368   5.430  -0.670  0.00  0.00    +0.410 HD
ATOM     23  O   LIG    1        5.235   4.887   0.334  0.00  0.00    -0.540 OA
ENDBRANCH  18  21
BRANCH  18  24
ATOM     24  C   LIG    1        3.875   3.299  -2.165  0.00  0.00    -0.020 C 
ATOM     25  C   LIG    1        3.840   1.817  -2.543  0.00  0.00    +0.020 C 
ATOM     26  C   LIG    1        5.327   3.777  -2.111  0.00  0.00    +0.030 C 
ENDBRANCH  18  24
ENDBRANCH   1  18
TORSDOF 5
