REMARK  Name = ZINCtV00000L6l3G.0
REMARK                            x       y       z     vdW  Elec       q    Type
REMARK                         _______ _______ _______ _____ _____    ______ ____
ROOT
ATOM      1  C   LIG    1        5.803   2.801  -0.140  0.00  0.00    +0.160 C 
ATOM      2  C   LIG    1        4.864   1.821  -0.015  0.00  0.00    -0.020 C 
ENDROOT
BRANCH   2   3
ATOM      3  C   LIG    1        5.281   0.416   0.139  0.00  0.00    +0.170 A 
ATOM      4  N   LIG    1        4.472  -0.584   0.270  0.00  0.00    -0.440 NA
ATOM      5  C   LIG    1        5.005  -1.810   0.398  0.00  0.00    +0.080 A 
ATOM      6  C   LIG    1        4.345  -3.050   0.548  0.00  0.00    +0.070 A 
ATOM      7  C   LIG    1        5.059  -4.203   0.670  0.00  0.00    +0.030 A 
ATOM      8  C   LIG    1        6.446  -4.186   0.649  0.00  0.00    +0.040 A 
ATOM      9  C   LIG    1        7.117  -2.992   0.504  0.00  0.00    +0.060 A 
ATOM     10  C   LIG    1        6.405  -1.802   0.377  0.00  0.00    -0.170 A 
ATOM     11  S   LIG    1        6.949  -0.138   0.180  0.00  0.00    +0.070 S 
ENDBRANCH   2   3
BRANCH   2  12
ATOM     12  C   LIG    1        3.431   2.167  -0.035  0.00  0.00    +0.170 A 
ATOM     13  N   LIG    1        2.587   1.871   0.898  0.00  0.00    -0.440 NA
ATOM     14  C   LIG    1        1.310   2.256   0.736  0.00  0.00    +0.080 A 
ATOM     15  C   LIG    1        0.210   2.057   1.599  0.00  0.00    +0.070 A 
ATOM     16  C   LIG    1       -1.026   2.519   1.263  0.00  0.00    +0.030 A 
ATOM     17  C   LIG    1       -1.228   3.203   0.073  0.00  0.00    +0.040 A 
ATOM     18  C   LIG    1       -0.175   3.412  -0.790  0.00  0.00    +0.050 A 
ATOM     19  C   LIG    1        1.096   2.942  -0.466  0.00  0.00    -0.170 A 
ATOM     20  S   LIG    1        2.627   3.041  -1.331  0.00  0.00    +0.080 S 
ENDBRANCH   2  12
BRANCH   1  26
ATOM     21  C   LIG    1        6.086   5.151  -0.915  0.00  0.00    +0.170 A 
ATOM     22  C   LIG    1        5.694   6.479  -0.897  0.00  0.00    -0.080 A 
ATOM     23  C   LIG    1        4.631   6.877  -0.108  0.00  0.00    +0.080 A 
ATOM     24  C   LIG    1        3.949   5.955   0.669  0.00  0.00    -0.030 A 
ATOM     25  C   LIG    1        4.320   4.628   0.660  0.00  0.00    +0.080 A 
ATOM     26  C   LIG    1        5.398   4.211  -0.129  0.00  0.00    -0.120 A 
BRANCH  21  27
ATOM     27  O   LIG    1        7.130   4.758  -1.690  0.00  0.00    -0.310 OA
BRANCH  27  29
ATOM     28  C   LIG    1        8.923   5.143  -3.264  0.00  0.00    +0.070 C 
ATOM     29  C   LIG    1        7.781   5.769  -2.462  0.00  0.00    +0.190 C 
ENDBRANCH  27  29
ENDBRANCH  21  27
ENDBRANCH   1  26
TORSDOF 5
