REMARK  Name = ZINCtj0000004rqa.1
REMARK                            x       y       z     vdW  Elec       q    Type
REMARK                         _______ _______ _______ _____ _____    ______ ____
ROOT
ATOM      1  O   LIG    1        9.008  -4.919  -0.066  0.00  0.00    -0.500 OA
ATOM      2  C   LIG    1        8.959  -3.707  -0.085  0.00  0.00    +0.520 C 
ATOM      3  N   LIG    1        7.767  -3.080  -0.031  0.00  0.00    -0.590 N 
ATOM      4  C   LIG    1        6.515  -3.849  -0.067  0.00  0.00    +0.300 C 
ATOM      5  C   LIG    1        5.651  -3.323  -1.220  0.00  0.00    +0.300 C 
ATOM      6  N   LIG    1        5.580  -1.858  -1.124  0.00  0.00    -1.000 NA
ATOM      7  C   LIG    1        6.832  -1.089  -1.093  0.00  0.00    +0.300 C 
ATOM      8  C   LIG    1        7.697  -1.615   0.065  0.00  0.00    +0.270 C 
ENDROOT
BRANCH   2   9
ATOM      9  C   LIG    1       10.231  -2.903  -0.167  0.00  0.00    +0.150 C 
ATOM     10  C   LIG    1       11.157  -3.262   1.014  0.00  0.00    +0.100 C 
ATOM     11  C   LIG    1       12.568  -3.248   0.365  0.00  0.00    +0.080 C 
ATOM     12  C   LIG    1       12.270  -3.803  -1.050  0.00  0.00    +0.270 C 
ATOM     13  N   LIG    1       10.954  -3.233  -1.409  0.00  0.00    -0.370 N 
ATOM     14  H   LIG    1       11.084  -2.397  -1.959  0.00  0.00    +0.430 HD
BRANCH  13  15
ATOM     15  C   LIG    1       10.185  -4.219  -2.181  0.00  0.00    +0.160 C 
ATOM     16  C   LIG    1       11.023  -4.708  -3.366  0.00  0.00    +0.020 C 
ATOM     17  C   LIG    1       10.186  -5.673  -4.209  0.00  0.00    +0.250 C 
ATOM     18  O   LIG    1        8.993  -5.016  -4.642  0.00  0.00    -0.370 OA
ATOM     19  C   LIG    1        8.147  -4.581  -3.575  0.00  0.00    +0.250 C 
ATOM     20  C   LIG    1        8.902  -3.570  -2.708  0.00  0.00    -0.010 C 
ENDBRANCH  13  15
ENDBRANCH   2   9
BRANCH   6  21
ATOM     21  S   LIG    1        4.116  -1.087  -1.058  0.00  0.00    +2.600 S 
ATOM     22  O   LIG    1        4.377   0.207  -1.583  0.00  0.00    -0.940 OA
ATOM     23  O   LIG    1        3.222  -1.977  -1.713  0.00  0.00    -0.930 OA
BRANCH  21  24
ATOM     24  C   LIG    1        3.734  -0.991   0.713  0.00  0.00    -0.290 C 
BRANCH  24  25
ATOM     25  C   LIG    1        2.408  -0.301   0.904  0.00  0.00    -0.110 A 
ATOM     26  C   LIG    1        1.241  -1.042   0.929  0.00  0.00    +0.030 A 
ATOM     27  C   LIG    1        0.024  -0.409   1.104  0.00  0.00    +0.020 A 
ATOM     28  C   LIG    1       -0.025   0.965   1.255  0.00  0.00    +0.030 A 
ATOM     29  C   LIG    1        1.142   1.705   1.231  0.00  0.00    +0.010 A 
ATOM     30  C   LIG    1        2.359   1.072   1.055  0.00  0.00    +0.030 A 
ENDBRANCH  24  25
ENDBRANCH  21  24
ENDBRANCH   6  21
TORSDOF 5
