REMARK  Name = ZINCtj0000004rqa.0
REMARK                            x       y       z     vdW  Elec       q    Type
REMARK                         _______ _______ _______ _____ _____    ______ ____
ROOT
ATOM      1  O   LIG    1       -2.418   0.261   2.277  0.00  0.00    -0.520 OA
ATOM      2  C   LIG    1       -1.234   0.442   2.086  0.00  0.00    +0.510 C 
ATOM      3  N   LIG    1       -0.328  -0.395   2.629  0.00  0.00    -0.580 N 
ATOM      4  C   LIG    1        1.110  -0.192   2.401  0.00  0.00    +0.270 C 
ATOM      5  C   LIG    1        1.809  -0.099   3.768  0.00  0.00    +0.290 C 
ATOM      6  N   LIG    1        1.377  -1.235   4.594  0.00  0.00    -1.000 NA
ATOM      7  C   LIG    1       -0.061  -1.442   4.817  0.00  0.00    +0.290 C 
ATOM      8  C   LIG    1       -0.760  -1.531   3.455  0.00  0.00    +0.300 C 
ENDROOT
BRANCH   2   9
ATOM      9  C   LIG    1       -0.775   1.603   1.242  0.00  0.00    +0.160 C 
ATOM     10  C   LIG    1       -0.013   1.086   0.008  0.00  0.00    +0.090 C 
ATOM     11  C   LIG    1       -0.802   1.618  -1.210  0.00  0.00    +0.080 C 
ATOM     12  C   LIG    1       -1.577   2.824  -0.621  0.00  0.00    +0.270 C 
ATOM     13  N   LIG    1       -1.948   2.357   0.740  0.00  0.00    -0.380 N 
ATOM     14  H   LIG    1       -2.756   1.755   0.693  0.00  0.00    +0.430 HD
BRANCH  13  15
ATOM     15  C   LIG    1       -2.221   3.506   1.613  0.00  0.00    +0.170 C 
ATOM     16  C   LIG    1       -2.571   3.010   3.019  0.00  0.00    +0.030 C 
ATOM     17  C   LIG    1       -2.933   4.209   3.899  0.00  0.00    +0.240 C 
ATOM     18  O   LIG    1       -4.018   4.926   3.307  0.00  0.00    -0.370 OA
ATOM     19  C   LIG    1       -3.730   5.454   2.011  0.00  0.00    +0.250 C 
ATOM     20  C   LIG    1       -3.402   4.305   1.054  0.00  0.00    +0.020 C 
ENDBRANCH  13  15
ENDBRANCH   2   9
BRANCH   6  21
ATOM     21  S   LIG    1        2.490  -2.264   5.261  0.00  0.00    +2.600 S 
ATOM     22  O   LIG    1        1.837  -2.789   6.409  0.00  0.00    -0.940 OA
ATOM     23  O   LIG    1        3.666  -1.476   5.383  0.00  0.00    -0.940 OA
BRANCH  21  24
ATOM     24  C   LIG    1        2.717  -3.558   4.010  0.00  0.00    -0.290 C 
BRANCH  24  25
ATOM     25  C   LIG    1        3.720  -4.567   4.507  0.00  0.00    -0.110 A 
ATOM     26  C   LIG    1        5.065  -4.397   4.234  0.00  0.00    +0.030 A 
ATOM     27  C   LIG    1        5.985  -5.319   4.695  0.00  0.00    +0.010 A 
ATOM     28  C   LIG    1        5.561  -6.418   5.419  0.00  0.00    +0.030 A 
ATOM     29  C   LIG    1        4.215  -6.590   5.688  0.00  0.00    +0.020 A 
ATOM     30  C   LIG    1        3.295  -5.665   5.232  0.00  0.00    +0.030 A 
ENDBRANCH  24  25
ENDBRANCH  21  24
ENDBRANCH   6  21
TORSDOF 5
