REMARK  Name = ZINCkj00000AGsis.0
REMARK                            x       y       z     vdW  Elec       q    Type
REMARK                         _______ _______ _______ _____ _____    ______ ____
ROOT
ATOM      1  C   LIG    1       -0.032  -1.982   5.174  0.00  0.00    +0.250 A 
ATOM      2  C   LIG    1       -0.675  -1.340   6.168  0.00  0.00    +0.210 A 
ATOM      3  N   LIG    1       -1.184  -0.084   5.956  0.00  0.00    -0.240 N 
ATOM      4  N   LIG    1       -1.883   0.821   6.759  0.00  0.00    -0.260 NA
ATOM      5  C   LIG    1       -2.143   1.905   6.054  0.00  0.00    +0.080 A 
ATOM      6  C   LIG    1       -2.812   3.260   6.165  0.00  0.00    +0.150 C 
ATOM      7  C   LIG    1       -3.031   3.723   4.709  0.00  0.00    +0.050 C 
ATOM      8  C   LIG    1       -1.912   2.978   3.950  0.00  0.00    +0.100 C 
ATOM      9  C   LIG    1       -1.626   1.745   4.778  0.00  0.00    -0.240 A 
ATOM     10  C   LIG    1       -1.021   0.498   4.724  0.00  0.00    +0.030 A 
ATOM     11  C   LIG    1       -0.343  -0.217   3.709  0.00  0.00    +0.430 A 
ATOM     12  N   LIG    1        0.126  -1.423   3.969  0.00  0.00    -0.520 NA
ENDROOT
BRANCH  11  13
ATOM     13  N   LIG    1       -0.168   0.345   2.456  0.00  0.00    -0.720 N 
ATOM     14  H   LIG    1       -0.515   1.232   2.269  0.00  0.00    +0.410 HD
BRANCH  13  15
ATOM     15  C   LIG    1        0.540  -0.399   1.411  0.00  0.00    +0.280 C 
ATOM     16  C   LIG    1        1.070   0.567   0.326  0.00  0.00    +0.050 C 
ATOM     17  C   LIG    1        0.332   0.121  -0.975  0.00  0.00    +0.050 C 
ATOM     18  C   LIG    1       -1.161   0.489  -0.706  0.00  0.00    +0.260 C 
ATOM     19  N   LIG    1       -1.619  -0.473   0.324  0.00  0.00    -0.520 N 
ATOM     20  H   LIG    1       -1.922   0.023   1.149  0.00  0.00    +0.420 HD
ATOM     21  H   LIG    1       -2.373  -1.036  -0.039  0.00  0.00    +0.430 HD
ATOM     22  C   LIG    1        0.262  -1.432  -0.748  0.00  0.00    +0.100 C 
ATOM     23  C   LIG    1       -0.444  -1.339   0.650  0.00  0.00    +0.180 C 
ENDBRANCH  13  15
ENDBRANCH  11  13
TORSDOF 2
