REMARK  Name = ZINCrH000004rdJM.0
REMARK                            x       y       z     vdW  Elec       q    Type
REMARK                         _______ _______ _______ _____ _____    ______ ____
ROOT
ATOM      1  N   LIG    1        3.299   1.229   1.284  0.00  0.00    -0.740 N 
ATOM      2  H   LIG    1        2.926   1.666   2.066  0.00  0.00    +0.390 HD
ATOM      3  C   LIG    1        4.569   0.779   1.305  0.00  0.00    +0.710 C 
ATOM      4  N   LIG    1        5.288   0.843   2.443  0.00  0.00    -0.620 N 
ATOM      5  C   LIG    1        4.714   1.506   3.627  0.00  0.00    +0.360 C 
ATOM      6  C   LIG    1        5.351   2.882   3.711  0.00  0.00    -0.260 A 
ATOM      7  C   LIG    1        4.753   4.083   3.652  0.00  0.00    +0.250 A 
ATOM      8  N   LIG    1        5.718   5.022   3.787  0.00  0.00    -0.480 N 
ATOM      9  H   LIG    1        5.583   5.983   3.786  0.00  0.00    +0.440 HD
ATOM     10  N   LIG    1        6.948   4.362   3.929  0.00  0.00    -0.290 NA
ATOM     11  C   LIG    1        6.727   3.079   3.875  0.00  0.00    +0.100 A 
ATOM     12  C   LIG    1        7.748   1.962   3.943  0.00  0.00    +0.140 C 
ATOM     13  C   LIG    1        7.751   1.256   2.578  0.00  0.00    -0.070 C 
ATOM     14  C   LIG    1        9.081   0.522   2.395  0.00  0.00    +0.040 C 
ATOM     15  C   LIG    1        7.598   2.301   1.472  0.00  0.00    +0.040 C 
ATOM     16  C   LIG    1        6.613   0.254   2.485  0.00  0.00    +0.300 C 
ATOM     17  O   LIG    1        5.066   0.315   0.298  0.00  0.00    -0.590 OA
ENDROOT
BRANCH   1  18
ATOM     18  C   LIG    1        2.481   1.057   0.082  0.00  0.00    +0.340 C 
BRANCH  18  23
ATOM     19  C   LIG    1       -2.773   3.297   0.988  0.00  0.00    +0.090 C 
ATOM     20  C   LIG    1       -1.402   2.716   0.751  0.00  0.00    -0.040 A 
ATOM     21  C   LIG    1       -1.205   1.351   0.848  0.00  0.00    -0.030 A 
ATOM     22  C   LIG    1        0.052   0.815   0.637  0.00  0.00    +0.070 A 
ATOM     23  C   LIG    1        1.112   1.642   0.317  0.00  0.00    -0.150 A 
ATOM     24  C   LIG    1        0.915   3.011   0.214  0.00  0.00    +0.150 A 
ATOM     25  C   LIG    1       -0.346   3.547   0.432  0.00  0.00    -0.090 A 
BRANCH  24  26
ATOM     26  O   LIG    1        1.956   3.827  -0.100  0.00  0.00    -0.300 OA
BRANCH  26  27
ATOM     27  C   LIG    1        1.658   5.210  -0.303  0.00  0.00    +0.150 C 
ATOM     28  C   LIG    1        2.716   5.830  -1.217  0.00  0.00    +0.070 C 
ATOM     29  C   LIG    1        1.659   5.935   1.044  0.00  0.00    +0.010 C 
ENDBRANCH  26  27
ENDBRANCH  24  26
ENDBRANCH  18  23
ENDBRANCH   1  18
TORSDOF 4
