REMARK  Name = ZINCqH000000396N.0
REMARK                            x       y       z     vdW  Elec       q    Type
REMARK                         _______ _______ _______ _____ _____    ______ ____
ROOT
ATOM      1  N   LIG    1       -4.227  -1.593   4.410  0.00  0.00    -0.660 N 
ATOM      2  H   LIG    1       -4.131  -1.005   5.176  0.00  0.00    +0.410 HD
ATOM      3  C   LIG    1       -5.053  -2.656   4.476  0.00  0.00    +0.570 C 
ATOM      4  O   LIG    1       -5.235  -3.346   3.491  0.00  0.00    -0.520 OA
ENDROOT
BRANCH   3   5
ATOM      5  C   LIG    1       -5.738  -2.982   5.742  0.00  0.00    -0.240 A 
ATOM      6  C   LIG    1       -5.530  -2.196   6.884  0.00  0.00    +0.380 A 
ATOM      7  N   LIG    1       -6.132  -2.465   8.018  0.00  0.00    -0.500 NA
ATOM      8  C   LIG    1       -6.958  -3.499   8.145  0.00  0.00    +0.330 A 
ATOM      9  C   LIG    1       -7.215  -4.341   7.043  0.00  0.00    -0.230 A 
ATOM     10  C   LIG    1       -8.149  -5.361   7.512  0.00  0.00    +0.120 A 
ATOM     11  N   LIG    1       -8.399  -5.119   8.767  0.00  0.00    -0.240 NA
ATOM     12  C   LIG    1       -8.720  -6.490   6.693  0.00  0.00    +0.190 C 
ATOM     13  N   LIG    1       -7.690  -3.990   9.189  0.00  0.00    -0.390 N 
ATOM     14  C   LIG    1       -7.727  -3.423  10.540  0.00  0.00    +0.360 C 
ATOM     15  C   LIG    1       -6.596  -4.080   5.820  0.00  0.00    +0.240 A 
ENDBRANCH   3   5
BRANCH   1  19
ATOM     16  C   LIG    1       -2.080  -0.833   0.917  0.00  0.00    +0.210 A 
ATOM     17  C   LIG    1       -3.364  -1.356   0.843  0.00  0.00    -0.060 A 
ATOM     18  C   LIG    1       -4.073  -1.612   1.999  0.00  0.00    +0.070 A 
ATOM     19  C   LIG    1       -3.506  -1.338   3.237  0.00  0.00    +0.080 A 
ATOM     20  C   LIG    1       -2.223  -0.810   3.311  0.00  0.00    +0.030 A 
ATOM     21  C   LIG    1       -1.512  -0.559   2.155  0.00  0.00    -0.050 A 
BRANCH  16  22
ATOM     22  N   LIG    1       -1.359  -0.578  -0.255  0.00  0.00    -0.620 N 
BRANCH  22  23
ATOM     23  C   LIG    1        0.034  -0.134  -0.176  0.00  0.00    +0.230 C 
ATOM     24  C   LIG    1        0.196   1.178  -0.946  0.00  0.00    +0.020 C 
ATOM     25  C   LIG    1        0.945  -1.200  -0.788  0.00  0.00    +0.010 C 
ENDBRANCH  22  23
BRANCH  22  27
ATOM     26  C   LIG    1       -1.783  -2.190  -2.045  0.00  0.00    +0.000 C 
ATOM     27  C   LIG    1       -1.999  -0.755  -1.561  0.00  0.00    +0.260 C 
ENDBRANCH  22  27
ENDBRANCH  16  22
ENDBRANCH   1  19
TORSDOF 5
