REMARK  Name = ZINCqH0000008OYg.0
REMARK                            x       y       z     vdW  Elec       q    Type
REMARK                         _______ _______ _______ _____ _____    ______ ____
ROOT
ATOM      1  N   LIG    1        5.305  -1.607  -1.719  0.00  0.00    -0.670 N 
ATOM      2  H   LIG    1        5.933  -1.782  -1.001  0.00  0.00    +0.410 HD
ATOM      3  C   LIG    1        4.144  -0.974  -1.458  0.00  0.00    +0.510 C 
ATOM      4  O   LIG    1        3.396  -0.681  -2.367  0.00  0.00    -0.500 OA
ENDROOT
BRANCH   1  11
ATOM      5  C   LIG    1        4.294  -3.764  -7.745  0.00  0.00    +0.060 C 
ATOM      6  C   LIG    1        5.526  -2.867  -7.887  0.00  0.00    +0.230 C 
ATOM      7  O   LIG    1        6.484  -3.210  -6.883  0.00  0.00    -0.300 OA
ATOM      8  C   LIG    1        6.199  -2.824  -5.609  0.00  0.00    +0.070 A 
ATOM      9  C   LIG    1        6.601  -3.595  -4.533  0.00  0.00    +0.060 A 
ATOM     10  C   LIG    1        6.309  -3.188  -3.244  0.00  0.00    +0.010 A 
ATOM     11  C   LIG    1        5.604  -2.013  -3.026  0.00  0.00    +0.150 A 
ATOM     12  C   LIG    1        5.199  -1.235  -4.104  0.00  0.00    +0.020 A 
ATOM     13  C   LIG    1        5.496  -1.639  -5.394  0.00  0.00    +0.110 A 
ATOM     14  N   LIG    1        5.099  -0.868  -6.495  0.00  0.00    -0.660 N 
ATOM     15  H   LIG    1        4.815   0.052  -6.375  0.00  0.00    +0.420 HD
ATOM     16  C   LIG    1        5.117  -1.425  -7.725  0.00  0.00    +0.500 C 
ATOM     17  O   LIG    1        4.806  -0.767  -8.696  0.00  0.00    -0.510 OA
ENDBRANCH   1  11
BRANCH   3  18
ATOM     18  C   LIG    1        3.775  -0.631  -0.038  0.00  0.00    +0.120 C 
BRANCH  18  19
ATOM     19  C   LIG    1        2.439   0.067  -0.021  0.00  0.00    -0.060 A 
ATOM     20  C   LIG    1        2.378   1.426  -0.021  0.00  0.00    +0.020 A 
ATOM     21  C   LIG    1        1.153   2.090  -0.005  0.00  0.00    +0.010 A 
ATOM     22  C   LIG    1       -0.019   1.397   0.011  0.00  0.00    +0.030 A 
ATOM     23  C   LIG    1        0.004  -0.008   0.011  0.00  0.00    -0.050 A 
ATOM     24  C   LIG    1       -1.185  -0.757   0.027  0.00  0.00    +0.030 A 
ATOM     25  C   LIG    1       -1.123  -2.117   0.026  0.00  0.00    +0.000 A 
ATOM     26  C   LIG    1        0.102  -2.780   0.011  0.00  0.00    +0.010 A 
ATOM     27  C   LIG    1        1.274  -2.087  -0.005  0.00  0.00    +0.010 A 
ATOM     28  C   LIG    1        1.250  -0.683  -0.005  0.00  0.00    -0.030 A 
ENDBRANCH  18  19
ENDBRANCH   3  18
TORSDOF 3
