REMARK  Name = ZINCrH000004tGnO.2
REMARK                            x       y       z     vdW  Elec       q    Type
REMARK                         _______ _______ _______ _____ _____    ______ ____
ROOT
ATOM      1  O   LIG    1       -1.662   1.752  -3.269  0.00  0.00    -0.530 OA
ATOM      2  C   LIG    1       -1.745   2.702  -4.019  0.00  0.00    +0.510 C 
ATOM      3  N   LIG    1       -1.719   3.955  -3.524  0.00  0.00    -0.730 N 
ATOM      4  H   LIG    1       -1.784   4.715  -4.124  0.00  0.00    +0.400 HD
ENDROOT
BRANCH   3   5
ATOM      5  C   LIG    1       -1.591   4.170  -2.081  0.00  0.00    +0.270 C 
BRANCH   5   6
ATOM      6  C   LIG    1       -1.587   5.672  -1.787  0.00  0.00    +0.170 C 
BRANCH   6   7
ATOM      7  N   LIG    1       -1.589   5.887  -0.334  0.00  0.00    -0.520 NA
ATOM      8  C   LIG    1       -0.486   5.156   0.309  0.00  0.00    +0.220 C 
ATOM      9  C   LIG    1        0.817   5.516  -0.405  0.00  0.00    +0.040 C 
ATOM     10  C   LIG    1        0.947   7.014  -0.513  0.00  0.00    -0.080 A 
ATOM     11  C   LIG    1        2.192   7.550  -0.806  0.00  0.00    +0.000 A 
ATOM     12  C   LIG    1        2.355   8.916  -0.913  0.00  0.00    +0.000 A 
ATOM     13  C   LIG    1        1.270   9.754  -0.738  0.00  0.00    +0.000 A 
ATOM     14  C   LIG    1        0.029   9.221  -0.449  0.00  0.00    +0.010 A 
ATOM     15  C   LIG    1       -0.135   7.849  -0.335  0.00  0.00    -0.120 A 
ATOM     16  C   LIG    1       -1.506   7.316  -0.014  0.00  0.00    +0.270 C 
ENDBRANCH   6   7
ENDBRANCH   5   6
ENDBRANCH   3   5
BRANCH   2  17
ATOM     17  C   LIG    1       -1.876   2.481  -5.504  0.00  0.00    +0.060 C 
BRANCH  17  18
ATOM     18  C   LIG    1       -1.880   0.979  -5.798  0.00  0.00    +0.060 C 
BRANCH  18  19
ATOM     19  C   LIG    1       -2.014   0.754  -7.305  0.00  0.00    +0.140 C 
BRANCH  19  20
ATOM     20  C   LIG    1       -2.018  -0.725  -7.594  0.00  0.00    +0.100 A 
ATOM     21  N   LIG    1       -3.073  -1.448  -7.631  0.00  0.00    -0.470 NA
ATOM     22  C   LIG    1       -2.928  -2.758  -7.906  0.00  0.00    +0.080 A 
ATOM     23  C   LIG    1       -3.904  -3.769  -8.012  0.00  0.00    +0.080 A 
ATOM     24  C   LIG    1       -3.541  -5.051  -8.297  0.00  0.00    +0.030 A 
ATOM     25  C   LIG    1       -2.208  -5.386  -8.487  0.00  0.00    +0.040 A 
ATOM     26  C   LIG    1       -1.233  -4.419  -8.390  0.00  0.00    +0.060 A 
ATOM     27  C   LIG    1       -1.585  -3.103  -8.100  0.00  0.00    -0.180 A 
ATOM     28  S   LIG    1       -0.616  -1.645  -7.906  0.00  0.00    +0.100 S 
ENDBRANCH  19  20
ENDBRANCH  18  19
ENDBRANCH  17  18
ENDBRANCH   2  17
TORSDOF 7
