REMARK  Name = ZINCpe000000W2yH.0
REMARK                            x       y       z     vdW  Elec       q    Type
REMARK                         _______ _______ _______ _____ _____    ______ ____
ROOT
ATOM      1  C   LIG    1        3.450   3.417  -1.521  0.00  0.00    -0.220 A 
ATOM      2  C   LIG    1        3.449   3.901  -2.820  0.00  0.00    +0.370 A 
ATOM      3  N   LIG    1        3.403   5.207  -3.022  0.00  0.00    -0.550 NA
ATOM      4  C   LIG    1        3.370   6.050  -2.000  0.00  0.00    +0.490 A 
ATOM      5  N   LIG    1        3.376   5.620  -0.747  0.00  0.00    -0.530 NA
ATOM      6  C   LIG    1        3.415   4.326  -0.476  0.00  0.00    +0.340 A 
ENDROOT
BRANCH   4   7
ATOM      7  N   LIG    1        3.329   7.411  -2.248  0.00  0.00    -0.460 N 
ATOM      8  C   LIG    1        2.164   8.029  -1.598  0.00  0.00    +0.220 C 
ATOM      9  C   LIG    1        2.198   9.541  -1.828  0.00  0.00    +0.190 C 
ATOM     10  N   LIG    1        2.198   9.814  -3.272  0.00  0.00    -0.550 NA
ATOM     11  C   LIG    1        3.362   9.196  -3.922  0.00  0.00    +0.180 C 
ATOM     12  C   LIG    1        2.154  11.259  -3.535  0.00  0.00    +0.190 C 
ATOM     13  C   LIG    1        3.329   7.684  -3.692  0.00  0.00    +0.220 C 
ENDBRANCH   4   7
BRANCH   1  14
ATOM     14  C   LIG    1        3.495   1.935  -1.252  0.00  0.00    +0.250 C 
BRANCH  14  17
ATOM     15  C   LIG    1       -0.017   1.426   0.010  0.00  0.00    +0.180 C 
ATOM     16  C   LIG    1        1.421   1.950  -0.001  0.00  0.00    +0.150 C 
ATOM     17  N   LIG    1        2.125   1.410  -1.173  0.00  0.00    -0.530 NA
ATOM     18  C   LIG    1        2.125  -0.060  -1.148  0.00  0.00    +0.170 C 
ATOM     19  C   LIG    1        0.680  -0.565  -1.126  0.00  0.00    +0.110 C 
ATOM     20  C   LIG    1       -0.031  -0.139  -2.412  0.00  0.00    +0.020 C 
ATOM     21  C   LIG    1        0.673  -2.091  -1.019  0.00  0.00    +0.060 C 
ATOM     22  O   LIG    1        0.002  -0.004   0.002  0.00  0.00    -0.360 OA
BRANCH  15  23
ATOM     23  C   LIG    1       -0.732   1.920   1.269  0.00  0.00    +0.190 C 
BRANCH  23  25
ATOM     24  C   LIG    1       -2.866   1.938   2.361  0.00  0.00    +0.200 C 
ATOM     25  O   LIG    1       -2.104   1.524   1.225  0.00  0.00    -0.380 OA
ENDBRANCH  23  25
ENDBRANCH  15  23
ENDBRANCH  14  17
ENDBRANCH   1  14
TORSDOF 5
