REMARK  Name = ZINCpk00000KfLj3.0
REMARK                            x       y       z     vdW  Elec       q    Type
REMARK                         _______ _______ _______ _____ _____    ______ ____
ROOT
ATOM      1  N   LIG    1        0.071   0.108  -0.183  0.00  0.00    -0.570 N 
ATOM      2  C   LIG    1        1.089  -0.613   0.328  0.00  0.00    +0.510 C 
ATOM      3  O   LIG    1        1.888  -0.091   1.075  0.00  0.00    -0.480 OA
ENDROOT
BRANCH   1   4
ATOM      4  C   LIG    1       -0.901  -0.514  -0.967  0.00  0.00    +0.170 A 
ATOM      5  C   LIG    1       -1.030  -0.209  -2.321  0.00  0.00    -0.040 A 
ATOM      6  C   LIG    1       -2.000  -0.851  -3.063  0.00  0.00    +0.280 A 
ATOM      7  N   LIG    1       -2.806  -1.733  -2.504  0.00  0.00    -0.480 NA
ATOM      8  C   LIG    1       -2.720  -2.044  -1.224  0.00  0.00    +0.280 A 
ATOM      9  C   LIG    1       -1.772  -1.451  -0.415  0.00  0.00    -0.040 A 
ENDBRANCH   1   4
BRANCH   1  10
ATOM     10  C   LIG    1       -0.014   1.546   0.086  0.00  0.00    +0.320 C 
BRANCH  10  11
ATOM     11  C   LIG    1       -0.826   1.779   1.361  0.00  0.00    +0.150 C 
BRANCH  11  13
ATOM     12  C   LIG    1       -0.803   1.392   3.727  0.00  0.00    +0.200 C 
ATOM     13  O   LIG    1       -0.127   1.227   2.479  0.00  0.00    -0.370 OA
ENDBRANCH  11  13
ENDBRANCH  10  11
ENDBRANCH   1  10
BRANCH   2  14
ATOM     14  C   LIG    1        1.233  -2.070  -0.030  0.00  0.00    +0.330 C 
BRANCH  14  15
ATOM     15  N   LIG    1        2.475  -2.593   0.543  0.00  0.00    -0.500 N 
ATOM     16  C   LIG    1        2.485  -3.133   1.782  0.00  0.00    +0.500 A 
ATOM     17  C   LIG    1        3.745  -3.649   2.328  0.00  0.00    +0.300 A 
ATOM     18  N   LIG    1        4.840  -3.586   1.624  0.00  0.00    -0.400 NA
ATOM     19  C   LIG    1        4.841  -3.050   0.389  0.00  0.00    +0.020 A 
ATOM     20  C   LIG    1        6.032  -2.992  -0.351  0.00  0.00    +0.120 A 
ATOM     21  C   LIG    1        6.031  -2.448  -1.603  0.00  0.00    -0.010 A 
ATOM     22  C   LIG    1        4.860  -1.948  -2.157  0.00  0.00    +0.090 A 
ATOM     23  C   LIG    1        3.677  -1.992  -1.450  0.00  0.00    -0.040 A 
ATOM     24  O   LIG    1        1.460  -3.191   2.437  0.00  0.00    -0.510 OA
ATOM     25  C   LIG    1        3.653  -2.548  -0.175  0.00  0.00    +0.160 A 
ENDBRANCH  14  15
ENDBRANCH   2  14
TORSDOF 6
