REMARK  Name = ZINCpk00000JUMka.0
REMARK                            x       y       z     vdW  Elec       q    Type
REMARK                         _______ _______ _______ _____ _____    ______ ____
ROOT
ATOM      1  N   LIG    1        7.942  -3.543   1.857  0.00  0.00    -0.540 NA
ATOM      2  C   LIG    1        6.553  -3.826   2.215  0.00  0.00    +0.210 C 
ATOM      3  C   LIG    1        6.257  -3.222   3.570  0.00  0.00    +0.030 C 
ATOM      4  C   LIG    1        5.684  -1.802   3.395  0.00  0.00    +0.260 C 
ATOM      5  N   LIG    1        6.380  -1.078   2.312  0.00  0.00    -0.600 N 
ATOM      6  C   LIG    1        7.817  -1.135   2.137  0.00  0.00    +0.300 C 
ATOM      7  C   LIG    1        5.651  -0.333   1.458  0.00  0.00    +0.520 C 
ATOM      8  O   LIG    1        6.200   0.275   0.564  0.00  0.00    -0.540 OA
ATOM      9  C   LIG    1        8.182  -2.313   1.202  0.00  0.00    +0.160 C 
ENDROOT
BRANCH   7  10
ATOM     10  C   LIG    1        4.154  -0.255   1.615  0.00  0.00    -0.010 C 
ATOM     11  C   LIG    1        3.815   0.322   2.991  0.00  0.00    +0.050 C 
BRANCH  10  12
ATOM     12  C   LIG    1        3.574   0.650   0.525  0.00  0.00    +0.350 C 
BRANCH  12  13
ATOM     13  N   LIG    1        2.111   0.632   0.603  0.00  0.00    -0.370 N 
ATOM     14  C   LIG    1        1.310   1.710   0.726  0.00  0.00    +0.220 A 
ATOM     15  C   LIG    1        0.030   1.270   0.763  0.00  0.00    -0.120 A 
ATOM     16  C   LIG    1        0.051  -0.124   0.660  0.00  0.00    +0.230 A 
ATOM     17  N   LIG    1        1.298  -0.508   0.564  0.00  0.00    -0.300 NA
ENDBRANCH  12  13
ENDBRANCH  10  12
ENDBRANCH   7  10
BRANCH   1  18
ATOM     18  C   LIG    1        8.532  -4.662   1.111  0.00  0.00    +0.350 C 
BRANCH  18  23
ATOM     19  N   LIG    1        8.055  -4.409  -1.374  0.00  0.00    -0.450 N 
ATOM     20  C   LIG    1        7.092  -4.848  -2.241  0.00  0.00    +0.120 A 
ATOM     21  C   LIG    1        6.226  -5.586  -1.521  0.00  0.00    +0.140 A 
ATOM     22  N   LIG    1        6.652  -5.601  -0.249  0.00  0.00    -0.480 NA
ATOM     23  C   LIG    1        7.744  -4.894  -0.153  0.00  0.00    +0.170 A 
BRANCH  19  25
ATOM     24  C   LIG    1       10.420  -4.457  -1.996  0.00  0.00    +0.030 C 
ATOM     25  C   LIG    1        9.208  -3.569  -1.708  0.00  0.00    +0.270 C 
ENDBRANCH  19  25
ENDBRANCH  18  23
ENDBRANCH   1  18
TORSDOF 6
