REMARK  Name = ZINCvU00000003Rc.0
REMARK                            x       y       z     vdW  Elec       q    Type
REMARK                         _______ _______ _______ _____ _____    ______ ____
ROOT
ATOM      1  S   LIG    1        0.894   8.051  -0.160  0.00  0.00    +0.060 S 
ENDROOT
BRANCH   1   2
ATOM      2  C   LIG    1        1.044   6.298  -0.060  0.00  0.00    +0.070 A 
ATOM      3  C   LIG    1        2.040   5.707   0.753  0.00  0.00    -0.060 A 
ATOM      4  C   LIG    1        2.944   6.461   1.507  0.00  0.00    +0.050 A 
ATOM      5  C   LIG    1        3.878   5.820   2.268  0.00  0.00    +0.050 A 
ATOM      6  C   LIG    1        3.943   4.430   2.304  0.00  0.00    +0.050 A 
ATOM      7  C   LIG    1        3.075   3.667   1.580  0.00  0.00    +0.050 A 
ATOM      8  C   LIG    1        2.103   4.291   0.794  0.00  0.00    -0.050 A 
ATOM      9  C   LIG    1        1.171   3.567   0.009  0.00  0.00    +0.150 A 
ATOM     10  N   LIG    1        0.286   4.235  -0.711  0.00  0.00    -0.240 NA
ATOM     11  N   LIG    1        0.226   5.514  -0.744  0.00  0.00    -0.270 NA
BRANCH   9  12
ATOM     12  C   LIG    1        1.184   2.087   0.002  0.00  0.00    -0.050 A 
ATOM     13  C   LIG    1        1.317   1.381   1.198  0.00  0.00    +0.030 A 
ATOM     14  C   LIG    1        1.328   0.002   1.185  0.00  0.00    +0.010 A 
ATOM     15  C   LIG    1        1.207  -0.682  -0.012  0.00  0.00    +0.030 A 
ATOM     16  C   LIG    1        1.075   0.011  -1.202  0.00  0.00    +0.010 A 
ATOM     17  C   LIG    1        1.062   1.391  -1.201  0.00  0.00    +0.050 A 
ENDBRANCH   9  12
ENDBRANCH   1   2
BRANCH   1  19
ATOM     18  C   LIG    1       -1.754   7.598  -0.653  0.00  0.00    +0.090 C 
ATOM     19  C   LIG    1       -0.500   8.182  -1.306  0.00  0.00    +0.000 C 
BRANCH  19  20
ATOM     20  C   LIG    1       -0.738   9.632  -1.644  0.00  0.00    +0.540 C 
ATOM     21  N   LIG    1       -1.429   9.961  -2.753  0.00  0.00    -0.720 N 
ATOM     22  H   LIG    1       -1.773   9.265  -3.335  0.00  0.00    +0.400 HD
ATOM     23  O   LIG    1       -0.308  10.502  -0.917  0.00  0.00    -0.520 OA
BRANCH  21  24
ATOM     24  C   LIG    1       -1.660  11.370  -3.081  0.00  0.00    +0.290 C 
ATOM     25  C   LIG    1       -2.901  11.869  -2.338  0.00  0.00    +0.040 C 
BRANCH  24  26
ATOM     26  C   LIG    1       -1.873  11.512  -4.566  0.00  0.00    -0.110 A 
ATOM     27  C   LIG    1       -2.614  10.567  -5.251  0.00  0.00    +0.040 A 
ATOM     28  C   LIG    1       -2.814  10.698  -6.613  0.00  0.00    -0.010 A 
ATOM     29  C   LIG    1       -2.262  11.771  -7.292  0.00  0.00    +0.100 A 
ATOM     30  C   LIG    1       -1.515  12.714  -6.606  0.00  0.00    -0.010 A 
ATOM     31  F   LIG    1       -2.453  11.898  -8.623  0.00  0.00    -0.140 F 
ATOM     32  C   LIG    1       -1.321  12.583  -5.244  0.00  0.00    +0.060 A 
ENDBRANCH  24  26
ENDBRANCH  21  24
ENDBRANCH  19  20
ENDBRANCH   1  19
TORSDOF 6
