REMARK  Name = ZINCAx0000000duv.0
REMARK                            x       y       z     vdW  Elec       q    Type
REMARK                         _______ _______ _______ _____ _____    ______ ____
ROOT
ATOM      1  C   LIG    1        0.521   1.463  -1.019  0.00  0.00    -0.270 C 
ATOM      2  C   LIG    1        1.089   2.155  -0.008  0.00  0.00    +0.260 C 
ATOM      3  N   LIG    1        1.721   1.513   1.018  0.00  0.00    -0.640 N 
ATOM      4  H   LIG    1        2.114   2.051   1.723  0.00  0.00    +0.440 HD
ATOM      5  C   LIG    1        1.828   0.181   1.107  0.00  0.00    +0.710 C 
ATOM      6  N   LIG    1        1.312  -0.644   0.174  0.00  0.00    -0.710 N 
ATOM      7  H   LIG    1        1.401  -1.606   0.258  0.00  0.00    +0.440 HD
ATOM      8  O   LIG    1        2.410  -0.300   2.059  0.00  0.00    -0.560 OA
ATOM      9  C   LIG    1        0.610  -0.049  -0.976  0.00  0.00    +0.340 C 
ENDROOT
BRANCH   9  10
ATOM     10  C   LIG    1        1.302  -0.510  -2.232  0.00  0.00    -0.110 A 
ATOM     11  C   LIG    1        2.679  -0.443  -2.327  0.00  0.00    +0.010 A 
ATOM     12  C   LIG    1        3.314  -0.870  -3.478  0.00  0.00    +0.000 A 
ATOM     13  C   LIG    1        2.571  -1.356  -4.538  0.00  0.00    +0.010 A 
ATOM     14  C   LIG    1        1.194  -1.419  -4.445  0.00  0.00    +0.000 A 
ATOM     15  C   LIG    1        0.559  -0.996  -3.292  0.00  0.00    +0.050 A 
ENDBRANCH   9  10
BRANCH   1  16
ATOM     16  C   LIG    1       -0.128   2.127  -2.086  0.00  0.00    +0.530 C 
ATOM     17  O   LIG    1       -0.221   3.341  -2.081  0.00  0.00    -0.520 OA
BRANCH  16  18
ATOM     18  O   LIG    1       -0.646   1.415  -3.108  0.00  0.00    -0.340 OA
BRANCH  18  20
ATOM     19  C   LIG    1       -1.808   1.181  -5.215  0.00  0.00    +0.070 C 
ATOM     20  C   LIG    1       -1.288   2.151  -4.152  0.00  0.00    +0.200 C 
ENDBRANCH  18  20
ENDBRANCH  16  18
ENDBRANCH   1  16
BRANCH   2  21
ATOM     21  C   LIG    1        1.024   3.661  -0.012  0.00  0.00    +0.350 C 
BRANCH  21  22
ATOM     22  O   LIG    1        1.666   4.176   1.184  0.00  0.00    -0.370 OA
BRANCH  22  23
ATOM     23  C   LIG    1        1.694   5.514   1.335  0.00  0.00    +0.520 C 
ATOM     24  O   LIG    1        1.196   6.231   0.490  0.00  0.00    -0.480 OA
BRANCH  23  25
ATOM     25  C   LIG    1        2.330   6.110   2.526  0.00  0.00    -0.150 A 
ATOM     26  C   LIG    1        2.900   5.280   3.503  0.00  0.00    +0.140 A 
ATOM     27  C   LIG    1        3.495   5.817   4.606  0.00  0.00    -0.020 A 
ATOM     28  C   LIG    1        3.534   7.199   4.782  0.00  0.00    +0.180 A 
ATOM     29  C   LIG    1        2.963   8.049   3.813  0.00  0.00    +0.020 A 
ATOM     30  N   LIG    1        2.994   9.387   3.970  0.00  0.00    -0.400 NA
ATOM     31  C   LIG    1        3.551   9.927   5.016  0.00  0.00    +0.120 A 
ATOM     32  C   LIG    1        4.158   9.080   6.049  0.00  0.00    +0.500 A 
ATOM     33  O   LIG    1        4.679   9.581   7.028  0.00  0.00    -0.500 OA
ATOM     34  C   LIG    1        3.571  11.426   5.166  0.00  0.00    +0.180 C 
ATOM     35  N   LIG    1        4.132   7.738   5.901  0.00  0.00    -0.510 N 
ATOM     36  C   LIG    1        2.358   7.491   2.680  0.00  0.00    +0.200 A 
BRANCH  35  37
ATOM     37  C   LIG    1        4.730   6.866   6.916  0.00  0.00    +0.290 C 
ATOM     38  C   LIG    1        3.677   6.511   7.967  0.00  0.00    +0.040 C 
ENDBRANCH  35  37
ENDBRANCH  23  25
ENDBRANCH  22  23
ENDBRANCH  21  22
ENDBRANCH   2  21
TORSDOF 9
