REMARK  Name = ZINCAx0000000duv.1
REMARK                            x       y       z     vdW  Elec       q    Type
REMARK                         _______ _______ _______ _____ _____    ______ ____
ROOT
ATOM      1  C   LIG    1        2.417   1.355  -0.040  0.00  0.00    +0.050 C 
ATOM      2  C   LIG    1        1.072   2.034   0.003  0.00  0.00    +0.260 C 
ATOM      3  N   LIG    1       -0.016   1.338   0.009  0.00  0.00    -0.490 NA
ATOM      4  C   LIG    1        0.002  -0.004   0.002  0.00  0.00    +0.660 C 
ATOM      5  N   LIG    1        1.124  -0.690   0.285  0.00  0.00    -0.740 N 
ATOM      6  H   LIG    1        1.132  -1.657   0.209  0.00  0.00    +0.420 HD
ATOM      7  O   LIG    1       -1.016  -0.612  -0.266  0.00  0.00    -0.500 OA
ATOM      8  C   LIG    1        2.334   0.021   0.707  0.00  0.00    +0.330 C 
ENDROOT
BRANCH   8   9
ATOM      9  C   LIG    1        2.276   0.278   2.191  0.00  0.00    -0.130 A 
ATOM     10  C   LIG    1        1.085   0.657   2.781  0.00  0.00    +0.000 A 
ATOM     11  C   LIG    1        1.031   0.888   4.143  0.00  0.00    -0.010 A 
ATOM     12  C   LIG    1        2.170   0.749   4.913  0.00  0.00    +0.020 A 
ATOM     13  C   LIG    1        3.363   0.374   4.323  0.00  0.00    -0.010 A 
ATOM     14  C   LIG    1        3.416   0.139   2.962  0.00  0.00    +0.090 A 
ENDBRANCH   8   9
BRANCH   1  15
ATOM     15  C   LIG    1        3.447   2.237   0.618  0.00  0.00    +0.470 C 
ATOM     16  O   LIG    1        4.053   1.841   1.585  0.00  0.00    -0.470 OA
BRANCH  15  17
ATOM     17  O   LIG    1        3.691   3.463   0.129  0.00  0.00    -0.360 OA
BRANCH  17  19
ATOM     18  C   LIG    1        4.834   5.613   0.118  0.00  0.00    +0.060 C 
ATOM     19  C   LIG    1        4.696   4.258   0.813  0.00  0.00    +0.220 C 
ENDBRANCH  17  19
ENDBRANCH  15  17
ENDBRANCH   1  15
BRANCH   2  20
ATOM     20  C   LIG    1        0.996   3.538   0.037  0.00  0.00    +0.340 C 
BRANCH  20  21
ATOM     21  O   LIG    1       -0.396   3.952   0.074  0.00  0.00    -0.330 OA
BRANCH  21  22
ATOM     22  C   LIG    1       -0.640   5.276   0.107  0.00  0.00    +0.520 C 
ATOM     23  O   LIG    1        0.285   6.064   0.106  0.00  0.00    -0.500 OA
BRANCH  22  24
ATOM     24  C   LIG    1       -2.030   5.770   0.146  0.00  0.00    -0.150 A 
ATOM     25  C   LIG    1       -3.096   4.859   0.147  0.00  0.00    +0.150 A 
ATOM     26  C   LIG    1       -4.385   5.302   0.183  0.00  0.00    -0.020 A 
ATOM     27  C   LIG    1       -4.659   6.668   0.219  0.00  0.00    +0.180 A 
ATOM     28  C   LIG    1       -3.601   7.598   0.218  0.00  0.00    +0.010 A 
ATOM     29  N   LIG    1       -3.852   8.922   0.253  0.00  0.00    -0.400 NA
ATOM     30  C   LIG    1       -5.072   9.373   0.289  0.00  0.00    +0.120 A 
ATOM     31  C   LIG    1       -6.204   8.439   0.291  0.00  0.00    +0.500 A 
ATOM     32  O   LIG    1       -7.347   8.857   0.323  0.00  0.00    -0.500 OA
ATOM     33  C   LIG    1       -5.324  10.858   0.328  0.00  0.00    +0.180 C 
ATOM     34  N   LIG    1       -5.964   7.111   0.256  0.00  0.00    -0.510 N 
ATOM     35  C   LIG    1       -2.279   7.137   0.186  0.00  0.00    +0.200 A 
BRANCH  34  36
ATOM     36  C   LIG    1       -7.073   6.154   0.258  0.00  0.00    +0.290 C 
ATOM     37  C   LIG    1       -7.430   5.788   1.700  0.00  0.00    +0.030 C 
ENDBRANCH  34  36
ENDBRANCH  22  24
ENDBRANCH  21  22
ENDBRANCH  20  21
ENDBRANCH   2  20
TORSDOF 9
