REMARK  Name = ZINCqH0000050F6Q.0
REMARK                            x       y       z     vdW  Elec       q    Type
REMARK                         _______ _______ _______ _____ _____    ______ ____
ROOT
ATOM      1  C   LIG    1        2.359  -2.600   0.019  0.00  0.00    +0.080 A 
ATOM      2  C   LIG    1        3.486  -1.792   0.070  0.00  0.00    +0.050 A 
ATOM      3  C   LIG    1        4.744  -2.362   0.088  0.00  0.00    +0.010 A 
ATOM      4  C   LIG    1        4.880  -3.743   0.044  0.00  0.00    +0.150 A 
ATOM      5  C   LIG    1        3.752  -4.551  -0.011  0.00  0.00    +0.040 A 
ATOM      6  C   LIG    1        2.495  -3.980  -0.024  0.00  0.00    +0.040 A 
ENDROOT
BRANCH   4   7
ATOM      7  N   LIG    1        6.156  -4.322   0.057  0.00  0.00    -0.670 N 
ATOM      8  H   LIG    1        6.869  -3.913   0.572  0.00  0.00    +0.410 HD
ATOM      9  C   LIG    1        6.393  -5.446  -0.648  0.00  0.00    +0.550 C 
ATOM     10  O   LIG    1        5.483  -6.004  -1.224  0.00  0.00    -0.510 OA
BRANCH   9  11
ATOM     11  C   LIG    1        7.788  -6.011  -0.719  0.00  0.00    -0.050 C 
ATOM     12  C   LIG    1        8.507  -5.951  -2.068  0.00  0.00    +0.080 C 
ATOM     13  C   LIG    1        7.993  -7.289  -1.534  0.00  0.00    +0.060 C 
BRANCH  13  14
ATOM     14  C   LIG    1        9.014  -8.278  -1.034  0.00  0.00    -0.110 A 
ATOM     15  C   LIG    1        8.637  -9.571  -0.704  0.00  0.00    +0.080 A 
ATOM     16  C   LIG    1        9.611 -10.446  -0.248  0.00  0.00    -0.030 A 
ATOM     17  C   LIG    1       10.916 -10.004  -0.139  0.00  0.00    +0.260 A 
ATOM     18  N   LIG    1       11.238  -8.767  -0.462  0.00  0.00    -0.480 NA
ATOM     19  C   LIG    1       10.340  -7.909  -0.903  0.00  0.00    +0.260 A 
ENDBRANCH  13  14
ENDBRANCH   9  11
ENDBRANCH   4   7
BRANCH   1  20
ATOM     20  O   LIG    1        1.121  -2.039   0.007  0.00  0.00    -0.230 OA
BRANCH  20  26
ATOM     21  C   LIG    1       -2.847  -0.785   2.330  0.00  0.00    +0.160 C 
ATOM     22  C   LIG    1       -1.523  -1.504   2.284  0.00  0.00    +0.210 A 
ATOM     23  C   LIG    1       -1.066  -2.205   3.389  0.00  0.00    -0.120 A 
ATOM     24  C   LIG    1        0.160  -2.847   3.306  0.00  0.00    +0.360 A 
ATOM     25  N   LIG    1        0.851  -2.772   2.181  0.00  0.00    -0.560 NA
ATOM     26  C   LIG    1        0.386  -2.095   1.144  0.00  0.00    +0.500 A 
ATOM     27  N   LIG    1       -0.780  -1.470   1.190  0.00  0.00    -0.520 NA
ENDBRANCH  20  26
ENDBRANCH   1  20
TORSDOF 5
