REMARK  Name = ZINCnE00000rhnKM.0
REMARK                            x       y       z     vdW  Elec       q    Type
REMARK                         _______ _______ _______ _____ _____    ______ ____
ROOT
ATOM      1  C   LIG    1       -5.864   6.154   0.331  0.00  0.00    +0.210 A 
ATOM      2  N   LIG    1       -5.027   5.136   0.340  0.00  0.00    -0.520 NA
ATOM      3  C   LIG    1       -3.730   5.316   0.097  0.00  0.00    +0.320 A 
ATOM      4  N   LIG    1       -3.223   6.521  -0.159  0.00  0.00    -0.530 NA
ATOM      5  C   LIG    1       -3.996   7.587  -0.190  0.00  0.00    +0.340 A 
ATOM      6  C   LIG    1       -5.370   7.440   0.060  0.00  0.00    -0.240 A 
ENDROOT
BRANCH   1   8
ATOM      7  C   LIG    1       -8.088   5.832  -0.718  0.00  0.00    +0.040 C 
ATOM      8  C   LIG    1       -7.330   5.941   0.607  0.00  0.00    +0.080 C 
ATOM      9  C   LIG    1       -7.516   4.651   1.408  0.00  0.00    +0.020 C 
ENDBRANCH   1   8
BRANCH   6  10
ATOM     10  C   LIG    1       -6.269   8.605   0.040  0.00  0.00    +0.530 C 
ATOM     11  O   LIG    1       -7.478   8.447   0.145  0.00  0.00    -0.670 OA
ATOM     12  O   LIG    1       -5.808   9.732  -0.083  0.00  0.00    -0.680 OA
ENDBRANCH   6  10
BRANCH   3  13
ATOM     13  C   LIG    1       -2.833   4.155   0.117  0.00  0.00    +0.020 C 
ATOM     14  C   LIG    1       -1.518   4.315  -0.126  0.00  0.00    +0.120 C 
BRANCH  14  15
ATOM     15  C   LIG    1       -0.618   3.150  -0.105  0.00  0.00    -0.210 A 
ATOM     16  C   LIG    1       -0.979   1.840   0.142  0.00  0.00    +0.250 A 
ATOM     17  N   LIG    1        0.140   1.095   0.071  0.00  0.00    -0.470 N 
ATOM     18  H   LIG    1        0.191   0.136   0.203  0.00  0.00    +0.440 HD
ATOM     19  N   LIG    1        1.215   1.938  -0.232  0.00  0.00    -0.300 NA
ATOM     20  C   LIG    1        0.776   3.162  -0.339  0.00  0.00    +0.110 A 
BRANCH  20  21
ATOM     21  C   LIG    1        1.609   4.377  -0.657  0.00  0.00    +0.010 C 
ATOM     22  C   LIG    1        1.505   5.382   0.492  0.00  0.00    +0.040 C 
ATOM     23  C   LIG    1        1.099   5.023  -1.947  0.00  0.00    +0.040 C 
ATOM     24  C   LIG    1        3.070   3.960  -0.839  0.00  0.00    +0.040 C 
ENDBRANCH  20  21
ENDBRANCH  14  15
ENDBRANCH   3  13
TORSDOF 5
