REMARK  Name = ZINCkj00000PURHS.0
REMARK                            x       y       z     vdW  Elec       q    Type
REMARK                         _______ _______ _______ _____ _____    ______ ____
ROOT
ATOM      1  N   LIG    1        0.746   1.952  -1.034  0.00  0.00    -0.660 N 
ATOM      2  H   LIG    1        0.823   2.844  -1.407  0.00  0.00    +0.410 HD
ATOM      3  C   LIG    1       -0.346   1.613  -0.319  0.00  0.00    +0.480 C 
ATOM      4  O   LIG    1       -0.445   0.496   0.143  0.00  0.00    -0.500 OA
ENDROOT
BRANCH   1  10
ATOM      5  C   LIG    1        7.450  -1.025  -2.083  0.00  0.00    +0.140 C 
ATOM      6  C   LIG    1        6.004  -0.654  -1.882  0.00  0.00    +0.090 A 
ATOM      7  C   LIG    1        5.546   0.597  -1.715  0.00  0.00    -0.060 A 
ATOM      8  C   LIG    1        4.093   0.504  -1.554  0.00  0.00    -0.090 A 
ATOM      9  C   LIG    1        3.078   1.442  -1.357  0.00  0.00    +0.030 A 
ATOM     10  C   LIG    1        1.769   1.016  -1.237  0.00  0.00    +0.100 A 
ATOM     11  C   LIG    1        1.461  -0.341  -1.324  0.00  0.00    +0.040 A 
ATOM     12  C   LIG    1        2.454  -1.273  -1.524  0.00  0.00    +0.020 A 
ATOM     13  C   LIG    1        3.779  -0.864  -1.641  0.00  0.00    +0.090 A 
ATOM     14  N   LIG    1        4.964  -1.541  -1.841  0.00  0.00    -0.590 N 
ATOM     15  H   LIG    1        5.047  -2.502  -1.937  0.00  0.00    +0.420 HD
ENDBRANCH   1  10
BRANCH   3  16
ATOM     16  C   LIG    1       -1.445   2.620  -0.099  0.00  0.00    +0.260 C 
BRANCH  16  17
ATOM     17  C   LIG    1       -0.998   3.641   0.950  0.00  0.00    -0.140 C 
ATOM     18  C   LIG    1       -1.064   3.115   2.395  0.00  0.00    +0.310 C 
ATOM     19  N   LIG    1       -1.616   4.442   2.748  0.00  0.00    -0.530 N 
ATOM     20  H   LIG    1       -2.363   4.390   3.424  0.00  0.00    +0.430 HD
ATOM     21  H   LIG    1       -0.905   5.108   3.007  0.00  0.00    +0.440 HD
ATOM     22  C   LIG    1        0.329   4.316   0.597  0.00  0.00    +0.100 C 
ATOM     23  C   LIG    1       -2.104   4.629   1.363  0.00  0.00    +0.330 C 
ENDBRANCH  16  17
BRANCH  16  24
ATOM     24  O   LIG    1       -2.620   1.950   0.360  0.00  0.00    -0.520 OA
ATOM     25  H   LIG    1       -2.501   1.471   1.192  0.00  0.00    +0.380 HD
ENDBRANCH  16  24
ENDBRANCH   3  16
TORSDOF 4
