REMARK  Name = ZINCrD00000hQ7cn.0
REMARK                            x       y       z     vdW  Elec       q    Type
REMARK                         _______ _______ _______ _____ _____    ______ ____
ROOT
ATOM      1  C   LIG    1       -2.878  -0.669  -3.533  0.00  0.00    -0.500 A 
ATOM      2  N   LIG    1       -3.291  -0.838  -2.321  0.00  0.00    -0.270 NA
ATOM      3  C   LIG    1       -2.692  -1.766  -1.603  0.00  0.00    -0.510 A 
ATOM      4  C   LIG    1       -1.716  -2.443  -2.229  0.00  0.00    +0.130 A 
ATOM      5  S   LIG    1       -1.577  -1.808  -3.868  0.00  0.00    +0.170 S 
ENDROOT
BRANCH   4   6
ATOM      6  N   LIG    1       -0.946  -3.470  -1.679  0.00  0.00    -0.450 N 
ATOM      7  C   LIG    1        0.313  -2.948  -1.131  0.00  0.00    +0.210 C 
ATOM      8  C   LIG    1        1.061  -4.071  -0.411  0.00  0.00    +0.060 C 
ATOM      9  C   LIG    1        1.345  -5.205  -1.399  0.00  0.00    -0.030 C 
ATOM     10  C   LIG    1        0.022  -5.698  -1.992  0.00  0.00    +0.050 C 
ATOM     11  C   LIG    1        2.040  -6.358  -0.672  0.00  0.00    +0.030 C 
ATOM     12  C   LIG    1       -0.697  -4.528  -2.667  0.00  0.00    +0.190 C 
ENDBRANCH   4   6
BRANCH   1  13
ATOM     13  S   LIG    1       -3.520   0.510  -4.673  0.00  0.00    +2.510 S 
ATOM     14  O   LIG    1       -4.854   0.732  -4.235  0.00  0.00    -0.900 OA
ATOM     15  O   LIG    1       -3.253  -0.055  -5.949  0.00  0.00    -0.910 OA
BRANCH  13  17
ATOM     16  C   LIG    1       -2.975   3.103  -5.354  0.00  0.00    +0.100 C 
ATOM     17  C   LIG    1       -2.509   1.993  -4.409  0.00  0.00    -0.310 C 
ENDBRANCH  13  17
ENDBRANCH   1  13
BRANCH   3  18
ATOM     18  S   LIG    1       -3.145  -2.102   0.067  0.00  0.00    +2.610 S 
ATOM     19  O   LIG    1       -1.967  -2.555   0.719  0.00  0.00    -0.910 OA
ATOM     20  O   LIG    1       -3.898  -0.982   0.511  0.00  0.00    -0.910 OA
BRANCH  18  21
ATOM     21  C   LIG    1       -4.256  -3.470   0.040  0.00  0.00    -0.660 A 
ATOM     22  C   LIG    1       -3.781  -4.750   0.254  0.00  0.00    +0.140 A 
ATOM     23  C   LIG    1       -4.653  -5.823   0.233  0.00  0.00    -0.020 A 
ATOM     24  C   LIG    1       -5.999  -5.615  -0.003  0.00  0.00    -0.020 A 
ATOM     25  C   LIG    1       -6.474  -4.335  -0.215  0.00  0.00    +0.000 A 
ATOM     26  C   LIG    1       -6.949  -6.785  -0.026  0.00  0.00    +0.090 C 
ATOM     27  C   LIG    1       -5.603  -3.262  -0.194  0.00  0.00    +0.130 A 
ENDBRANCH  18  21
ENDBRANCH   3  18
TORSDOF 5
