REMARK  Name = ZINCpe00000MJKmB.0
REMARK                            x       y       z     vdW  Elec       q    Type
REMARK                         _______ _______ _______ _____ _____    ______ ____
ROOT
ATOM      1  N   LIG    1       -3.106   2.063   2.267  0.00  0.00    -0.500 NA
ATOM      2  C   LIG    1       -3.819   1.349   3.358  0.00  0.00    +0.170 C 
ATOM      3  C   LIG    1       -4.774   0.380   2.629  0.00  0.00    +0.190 C 
ATOM      4  C   LIG    1       -4.138   0.158   1.241  0.00  0.00    +0.050 C 
ATOM      5  F   LIG    1       -6.042   0.956   2.495  0.00  0.00    -0.200 F 
ATOM      6  C   LIG    1       -2.852   1.012   1.248  0.00  0.00    +0.120 C 
ENDROOT
BRANCH   1   7
ATOM      7  C   LIG    1       -1.846   2.642   2.752  0.00  0.00    +0.290 C 
BRANCH   7  12
ATOM      8  C   LIG    1       -2.908   6.234   6.198  0.00  0.00    +0.160 C 
ATOM      9  C   LIG    1       -2.584   5.493   4.926  0.00  0.00    +0.020 A 
ATOM     10  N   LIG    1       -2.422   6.010   3.743  0.00  0.00    -0.360 NA
ATOM     11  O   LIG    1       -2.164   5.163   2.919  0.00  0.00    +0.100 OA
ATOM     12  C   LIG    1       -2.130   3.939   3.464  0.00  0.00    -0.020 A 
ATOM     13  C   LIG    1       -2.396   4.099   4.782  0.00  0.00    -0.050 A 
ENDBRANCH   7  12
ENDBRANCH   1   7
BRANCH   6  14
ATOM     14  C   LIG    1       -2.624   1.645  -0.126  0.00  0.00    +0.330 C 
BRANCH  14  15
ATOM     15  N   LIG    1       -1.464   2.538  -0.066  0.00  0.00    -0.580 N 
ATOM     16  C   LIG    1       -1.656   3.975   0.140  0.00  0.00    +0.330 C 
BRANCH  15  17
ATOM     17  C   LIG    1       -0.181   2.021  -0.205  0.00  0.00    +0.400 A 
ATOM     18  N   LIG    1       -0.016   0.730  -0.390  0.00  0.00    -0.290 NA
ATOM     19  N   LIG    1        1.263   0.195  -0.537  0.00  0.00    -0.170 N 
ATOM     20  N   LIG    1        1.767  -1.096  -0.742  0.00  0.00    -0.050 NA
ATOM     21  N   LIG    1        3.052  -0.994  -0.803  0.00  0.00    -0.030 NA
ATOM     22  N   LIG    1        3.421   0.230  -0.658  0.00  0.00    -0.290 NA
ATOM     23  C   LIG    1        2.361   1.009  -0.490  0.00  0.00    +0.180 A 
ATOM     24  C   LIG    1        2.186   2.391  -0.292  0.00  0.00    +0.180 A 
ATOM     25  C   LIG    1        0.927   2.886  -0.152  0.00  0.00    +0.020 A 
ENDBRANCH  15  17
ENDBRANCH  14  15
ENDBRANCH   6  14
TORSDOF 5
