REMARK  Name = ZINCrg00000BvNWt.0
REMARK                            x       y       z     vdW  Elec       q    Type
REMARK                         _______ _______ _______ _____ _____    ______ ____
ROOT
ATOM      1  O   LIG    1       -3.814  -0.585  -3.012  0.00  0.00    -0.510 OA
ATOM      2  C   LIG    1       -3.509   0.485  -3.502  0.00  0.00    +0.560 C 
ATOM      3  N   LIG    1       -4.158   0.936  -4.593  0.00  0.00    -0.720 N 
ATOM      4  H   LIG    1       -3.915   1.790  -4.984  0.00  0.00    +0.400 HD
ENDROOT
BRANCH   2   5
ATOM      5  C   LIG    1       -2.425   1.291  -2.900  0.00  0.00    -0.140 A 
ATOM      6  C   LIG    1       -2.072   2.520  -3.460  0.00  0.00    +0.050 A 
ATOM      7  C   LIG    1       -1.060   3.268  -2.894  0.00  0.00    +0.000 A 
ATOM      8  C   LIG    1       -0.396   2.802  -1.773  0.00  0.00    +0.070 A 
ATOM      9  C   LIG    1       -0.742   1.585  -1.213  0.00  0.00    -0.120 A 
ATOM     10  C   LIG    1       -1.747   0.825  -1.773  0.00  0.00    +0.100 A 
BRANCH   9  11
ATOM     11  C   LIG    1       -0.013   1.086   0.008  0.00  0.00    +0.380 C 
BRANCH  11  12
ATOM     12  N   LIG    1       -0.698   1.558   1.213  0.00  0.00    -0.380 N 
ATOM     13  C   LIG    1       -1.156   0.804   2.228  0.00  0.00    +0.480 A 
ATOM     14  N   LIG    1       -1.704   1.600   3.110  0.00  0.00    -0.550 NA
ATOM     15  C   LIG    1       -1.616   2.863   2.696  0.00  0.00    +0.420 A 
ATOM     16  N   LIG    1       -1.003   2.889   1.541  0.00  0.00    -0.310 NA
ENDBRANCH  11  12
ENDBRANCH   9  11
ENDBRANCH   2   5
BRANCH   3  17
ATOM     17  C   LIG    1       -5.232   0.137  -5.189  0.00  0.00    +0.260 C 
ATOM     18  C   LIG    1       -5.408   0.513  -6.671  0.00  0.00    +0.050 C 
ATOM     19  C   LIG    1       -6.850   1.041  -6.823  0.00  0.00    -0.020 C 
ATOM     20  C   LIG    1       -7.615   0.403  -5.637  0.00  0.00    +0.010 C 
ATOM     21  C   LIG    1       -6.572   0.450  -4.492  0.00  0.00    +0.150 C 
BRANCH  21  22
ATOM     22  O   LIG    1       -6.865  -0.540  -3.504  0.00  0.00    -0.550 OA
ATOM     23  H   LIG    1       -7.698  -0.393  -3.035  0.00  0.00    +0.380 HD
ENDBRANCH  21  22
BRANCH  19  24
ATOM     24  C   LIG    1       -7.452   0.587  -8.154  0.00  0.00    +0.310 C 
BRANCH  24  25
ATOM     25  N   LIG    1       -8.807   1.127  -8.287  0.00  0.00    -0.460 N 
ATOM     26  C   LIG    1       -9.152   2.325  -8.850  0.00  0.00    +0.110 A 
ATOM     27  C   LIG    1      -10.493   2.425  -8.764  0.00  0.00    +0.140 A 
ATOM     28  N   LIG    1      -10.953   1.317  -8.165  0.00  0.00    -0.490 NA
ATOM     29  C   LIG    1       -9.950   0.532  -7.881  0.00  0.00    +0.380 A 
ENDBRANCH  24  25
ENDBRANCH  19  24
ENDBRANCH   3  17
TORSDOF 7
