REMARK  Name = ZINCtV00001bB3pV.0
REMARK                            x       y       z     vdW  Elec       q    Type
REMARK                         _______ _______ _______ _____ _____    ______ ____
ROOT
ATOM      1  C   LIG    1        0.285   3.560  -0.275  0.00  0.00    +0.280 A 
ATOM      2  N   LIG    1       -0.976   3.269  -0.298  0.00  0.00    -0.450 NA
ATOM      3  C   LIG    1       -1.276   2.004  -0.614  0.00  0.00    +0.080 A 
ATOM      4  C   LIG    1       -0.193   1.208  -0.855  0.00  0.00    -0.070 A 
ATOM      5  S   LIG    1        1.233   2.134  -0.677  0.00  0.00    +0.180 S 
ENDROOT
BRANCH   1   8
ATOM      6  C   LIG    1        0.560   7.242   0.410  0.00  0.00    +0.110 C 
ATOM      7  C   LIG    1       -0.012   5.863   0.204  0.00  0.00    +0.500 C 
ATOM      8  N   LIG    1        0.811   4.812   0.022  0.00  0.00    -0.480 N 
ATOM      9  O   LIG    1       -1.214   5.700   0.201  0.00  0.00    -0.430 OA
BRANCH   8  10
ATOM     10  C   LIG    1        2.197   4.981   0.133  0.00  0.00    +0.120 A 
ATOM     11  C   LIG    1        2.886   4.404   1.192  0.00  0.00    +0.040 A 
ATOM     12  C   LIG    1        4.253   4.572   1.299  0.00  0.00    +0.060 A 
ATOM     13  C   LIG    1        4.936   5.312   0.353  0.00  0.00    +0.050 A 
ATOM     14  C   LIG    1        4.253   5.888  -0.705  0.00  0.00    -0.020 A 
ATOM     15 CL   LIG    1        5.116   6.817  -1.891  0.00  0.00    -0.050 Cl
ATOM     16  C   LIG    1        2.886   5.720  -0.819  0.00  0.00    +0.040 A 
ENDBRANCH   8  10
ENDBRANCH   1   8
BRANCH   3  17
ATOM     17  C   LIG    1       -2.651   1.514  -0.691  0.00  0.00    +0.220 C 
ATOM     18  C   LIG    1       -3.702   2.367  -0.436  0.00  0.00    +0.020 C 
BRANCH  18  19
ATOM     19  C   LIG    1       -5.088   1.873  -0.513  0.00  0.00    +0.160 A 
ATOM     20  N   LIG    1       -5.424   0.662  -0.816  0.00  0.00    -0.460 NA
ATOM     21  C   LIG    1       -6.734   0.361  -0.841  0.00  0.00    +0.080 A 
ATOM     22  C   LIG    1       -7.351  -0.875  -1.135  0.00  0.00    +0.080 A 
ATOM     23  C   LIG    1       -8.717  -0.991  -1.118  0.00  0.00    +0.030 A 
ATOM     24  C   LIG    1       -9.515   0.102  -0.811  0.00  0.00    +0.040 A 
ATOM     25  C   LIG    1       -8.937   1.317  -0.520  0.00  0.00    +0.060 A 
ATOM     26  C   LIG    1       -7.551   1.455  -0.533  0.00  0.00    -0.170 A 
ATOM     27  S   LIG    1       -6.520   2.848  -0.214  0.00  0.00    +0.090 S 
ENDBRANCH  18  19
BRANCH  18  28
ATOM     28  C   LIG    1       -3.448   3.735  -0.096  0.00  0.00    +0.210 C 
ATOM     29  N   LIG    1       -3.246   4.820   0.174  0.00  0.00    -0.320 NA
ENDBRANCH  18  28
ENDBRANCH   3  17
TORSDOF 5
