REMARK  Name = ZINCkj00000GeRKv.0
REMARK                            x       y       z     vdW  Elec       q    Type
REMARK                         _______ _______ _______ _____ _____    ______ ____
ROOT
ATOM      1  C   LIG    1       -0.003   0.005   0.003  0.00  0.00    +0.160 C 
ATOM      2  C   LIG    1        0.638  -0.102  -1.382  0.00  0.00    +0.120 C 
ENDROOT
BRANCH   1   9
ATOM      3  C   LIG    1        1.207  -4.538   1.770  0.00  0.00    +0.040 C 
ATOM      4  C   LIG    1       -0.071  -3.713   1.607  0.00  0.00    -0.030 C 
ATOM      5  C   LIG    1       -1.268  -4.652   1.443  0.00  0.00    +0.030 C 
ATOM      6  C   LIG    1       -2.551  -3.829   1.313  0.00  0.00    -0.020 C 
ATOM      7  C   LIG    1       -2.459  -2.941   0.068  0.00  0.00    +0.290 C 
ATOM      8  N   LIG    1       -1.232  -2.137   0.150  0.00  0.00    -0.580 N 
ATOM      9  C   LIG    1       -1.280  -0.796   0.029  0.00  0.00    +0.500 C 
ATOM     10  O   LIG    1       -2.350  -0.233  -0.059  0.00  0.00    -0.530 OA
ATOM     11  C   LIG    1       -2.723  -2.951   2.554  0.00  0.00    +0.020 C 
ATOM     12  C   LIG    1        0.050  -2.825   0.360  0.00  0.00    +0.270 C 
ENDBRANCH   1   9
BRANCH   1  13
ATOM     13  N   LIG    1       -0.302   1.413   0.297  0.00  0.00    -0.490 N 
ATOM     14  H   LIG    1       -0.798   1.475   1.173  0.00  0.00    +0.440 HD
ATOM     15  H   LIG    1       -0.873   1.796  -0.442  0.00  0.00    +0.440 HD
BRANCH  13  16
ATOM     16  C   LIG    1        0.953   2.170   0.390  0.00  0.00    +0.260 C 
BRANCH  16  17
ATOM     17  C   LIG    1        0.642   3.637   0.696  0.00  0.00    +0.350 C 
BRANCH  17  18
ATOM     18  N   LIG    1        1.893   4.393   0.788  0.00  0.00    -0.390 N 
ATOM     19  C   LIG    1        2.207   5.498   0.081  0.00  0.00    +0.240 A 
ATOM     20  C   LIG    1        3.447   5.891   0.457  0.00  0.00    -0.090 A 
ATOM     21  C   LIG    1        3.906   4.994   1.427  0.00  0.00    +0.260 A 
ATOM     22  N   LIG    1        2.974   4.098   1.630  0.00  0.00    -0.300 NA
ENDBRANCH  17  18
ENDBRANCH  16  17
ENDBRANCH  13  16
ENDBRANCH   1  13
TORSDOF 5
