REMARK  Name = ZINCqH0000007fpE.0
REMARK                            x       y       z     vdW  Elec       q    Type
REMARK                         _______ _______ _______ _____ _____    ______ ____
ROOT
ATOM      1  C   LIG    1        0.489   5.449  -0.984  0.00  0.00    +0.220 C 
ENDROOT
BRANCH   1   2
ATOM      2  N   LIG    1        0.512   3.982  -0.922  0.00  0.00    -0.520 NA
ATOM      3  C   LIG    1        1.038   3.518   0.370  0.00  0.00    +0.190 C 
ATOM      4  C   LIG    1        1.121   1.989   0.364  0.00  0.00    +0.200 C 
ATOM      5  N   LIG    1       -0.214   1.430   0.111  0.00  0.00    -0.500 N 
ATOM      6  C   LIG    1       -0.741   1.894  -1.180  0.00  0.00    +0.190 C 
ATOM      7  C   LIG    1       -0.823   3.423  -1.175  0.00  0.00    +0.200 C 
BRANCH   5   8
ATOM      8  C   LIG    1       -0.192   0.034   0.170  0.00  0.00    +0.090 A 
ATOM      9  C   LIG    1        0.613  -0.687  -0.703  0.00  0.00    +0.000 A 
ATOM     10  C   LIG    1        0.637  -2.066  -0.638  0.00  0.00    +0.020 A 
ATOM     11  C   LIG    1       -0.148  -2.731   0.286  0.00  0.00    +0.020 A 
ATOM     12  C   LIG    1       -0.955  -2.017   1.153  0.00  0.00    +0.030 A 
ATOM     13  C   LIG    1       -0.980  -0.637   1.098  0.00  0.00    -0.010 A 
ATOM     14 CL   LIG    1       -1.993   0.258   2.187  0.00  0.00    -0.050 Cl
ENDBRANCH   5   8
ENDBRANCH   1   2
BRANCH   1  17
ATOM     15  N   LIG    1        2.126   7.301  -0.902  0.00  0.00    -0.670 N 
ATOM     16  H   LIG    1        1.383   7.913  -0.785  0.00  0.00    +0.420 HD
ATOM     17  C   LIG    1        1.901   5.975  -0.981  0.00  0.00    +0.510 C 
ATOM     18  O   LIG    1        2.835   5.204  -1.048  0.00  0.00    -0.500 OA
BRANCH  15  25
ATOM     19  C   LIG    1        3.674   9.034  -1.582  0.00  0.00    +0.110 A 
ATOM     20  C   LIG    1        4.969   9.519  -1.666  0.00  0.00    -0.040 A 
ATOM     21  C   LIG    1        6.021   8.775  -1.162  0.00  0.00    +0.060 A 
ATOM     22  C   LIG    1        5.783   7.546  -0.573  0.00  0.00    -0.050 A 
ATOM     23  C   LIG    1        4.492   7.058  -0.482  0.00  0.00    +0.080 A 
ATOM     24 CL   LIG    1        7.108   6.618   0.057  0.00  0.00    -0.060 Cl
ATOM     25  C   LIG    1        3.434   7.796  -0.990  0.00  0.00    +0.130 A 
BRANCH  19  27
ATOM     26  C   LIG    1        2.961  11.025  -2.670  0.00  0.00    +0.250 C 
ATOM     27  O   LIG    1        2.640   9.765  -2.077  0.00  0.00    -0.320 OA
ENDBRANCH  19  27
ENDBRANCH  15  25
ENDBRANCH   1  17
TORSDOF 5
