REMARK  Name = ZINCrg00000cfkdp.1
REMARK                            x       y       z     vdW  Elec       q    Type
REMARK                         _______ _______ _______ _____ _____    ______ ____
ROOT
ATOM      1  C   LIG    1       -4.013   6.308   4.482  0.00  0.00    -0.060 C 
ATOM      2  C   LIG    1       -3.463   5.966   3.343  0.00  0.00    -0.090 C 
ATOM      3  C   LIG    1       -3.985   6.517   2.034  0.00  0.00    +0.070 C 
ATOM      4  C   LIG    1       -4.278   5.340   1.094  0.00  0.00    +0.290 C 
ATOM      5  N   LIG    1       -3.109   4.451   1.073  0.00  0.00    -0.610 N 
ATOM      6  C   LIG    1       -2.630   3.866   2.332  0.00  0.00    +0.280 C 
ATOM      7  C   LIG    1       -2.487   4.170  -0.089  0.00  0.00    +0.570 C 
ATOM      8  O   LIG    1       -2.893   4.654  -1.128  0.00  0.00    -0.520 OA
ATOM      9  C   LIG    1       -2.291   5.010   3.304  0.00  0.00    +0.060 C 
ENDROOT
BRANCH   7  10
ATOM     10  C   LIG    1       -1.315   3.276  -0.101  0.00  0.00    -0.190 A 
ATOM     11  C   LIG    1       -1.483   1.895  -0.273  0.00  0.00    +0.170 A 
ATOM     12  C   LIG    1       -0.374   1.063  -0.277  0.00  0.00    +0.000 A 
ATOM     13  C   LIG    1        0.892   1.594  -0.124  0.00  0.00    +0.090 A 
ATOM     14  C   LIG    1        1.066   2.958   0.040  0.00  0.00    -0.010 A 
ATOM     15  C   LIG    1       -0.027   3.802   0.053  0.00  0.00    +0.150 A 
ATOM     16  F   LIG    1        0.147   5.132   0.212  0.00  0.00    -0.130 F 
BRANCH  11  17
ATOM     17  O   LIG    1       -2.725   1.374  -0.429  0.00  0.00    -0.480 OA
ATOM     18  H   LIG    1       -3.155   1.126   0.401  0.00  0.00    +0.400 HD
ENDBRANCH  11  17
ENDBRANCH   7  10
BRANCH   1  19
ATOM     19  C   LIG    1       -3.383   5.878   5.781  0.00  0.00    +0.300 C 
BRANCH  19  21
ATOM     20  C   LIG    1       -2.620   6.907   7.854  0.00  0.00    +0.500 C 
ATOM     21  N   LIG    1       -3.174   7.051   6.634  0.00  0.00    -0.720 N 
ATOM     22  H   LIG    1       -3.436   7.931   6.321  0.00  0.00    +0.400 HD
ATOM     23  O   LIG    1       -2.293   5.807   8.246  0.00  0.00    -0.520 OA
BRANCH  20  28
ATOM     24  O   LIG    1       -0.486   7.433  11.567  0.00  0.00    -0.530 OA
ATOM     25  C   LIG    1       -0.919   7.732  10.475  0.00  0.00    +0.530 C 
ATOM     26  C   LIG    1       -0.078   8.197   9.306  0.00  0.00    +0.060 C 
ATOM     27  C   LIG    1       -1.098   8.837   8.336  0.00  0.00    +0.080 C 
ATOM     28  C   LIG    1       -2.405   8.114   8.731  0.00  0.00    +0.220 C 
ATOM     29  N   LIG    1       -2.217   7.700  10.127  0.00  0.00    -0.710 N 
ATOM     30  H   LIG    1       -2.938   7.438  10.721  0.00  0.00    +0.420 HD
ENDBRANCH  20  28
ENDBRANCH  19  21
ENDBRANCH   1  19
TORSDOF 5
