REMARK  Name = ZINCrD00000sdook.0
REMARK                            x       y       z     vdW  Elec       q    Type
REMARK                         _______ _______ _______ _____ _____    ______ ____
ROOT
ATOM      1  C   LIG    1        2.877   4.203  -1.445  0.00  0.00    +0.290 C 
ENDROOT
BRANCH   1   2
ATOM      2  C   LIG    1        4.106   5.076  -1.454  0.00  0.00    +0.430 C 
ATOM      3  O   LIG    1        5.127   4.678  -1.962  0.00  0.00    -0.490 OA
BRANCH   2   5
ATOM      4  C   LIG    1        5.285   7.082  -0.941  0.00  0.00    +0.250 C 
ATOM      5  O   LIG    1        4.065   6.296  -0.896  0.00  0.00    -0.360 OA
ENDBRANCH   2   5
ENDBRANCH   1   2
BRANCH   1   6
ATOM      6  N   LIG    1        3.177   2.932  -2.109  0.00  0.00    -0.720 N 
ATOM      7  H   LIG    1        3.445   2.162  -1.584  0.00  0.00    +0.400 HD
BRANCH   6   8
ATOM      8  C   LIG    1        3.077   2.829  -3.499  0.00  0.00    +0.220 A 
ATOM      9  C   LIG    1        2.693   3.931  -4.252  0.00  0.00    -0.080 A 
ATOM     10  C   LIG    1        2.595   3.826  -5.626  0.00  0.00    +0.050 A 
ATOM     11  C   LIG    1        2.880   2.626  -6.251  0.00  0.00    -0.050 A 
ATOM     12  C   LIG    1        3.262   1.527  -5.504  0.00  0.00    -0.040 A 
ATOM     13  C   LIG    1        3.366   1.626  -4.131  0.00  0.00    -0.060 A 
BRANCH  12  14
ATOM     14  C   LIG    1        3.571   0.221  -6.190  0.00  0.00    +0.080 C 
BRANCH  14  15
ATOM     15  C   LIG    1        5.057   0.172  -6.550  0.00  0.00    +0.180 C 
BRANCH  15  16
ATOM     16  O   LIG    1        5.349  -1.066  -7.200  0.00  0.00    -0.580 OA
ATOM     17  H   LIG    1        6.276  -1.166  -7.458  0.00  0.00    +0.380 HD
ENDBRANCH  15  16
ENDBRANCH  14  15
ENDBRANCH  12  14
ENDBRANCH   6   8
ENDBRANCH   1   6
BRANCH   1  18
ATOM     18  C   LIG    1        2.452   3.935  -0.000  0.00  0.00    +0.120 C 
BRANCH  18  19
ATOM     19  C   LIG    1        1.156   3.166   0.007  0.00  0.00    -0.100 A 
ATOM     20  C   LIG    1        1.174   1.783   0.000  0.00  0.00    +0.060 A 
ATOM     21  C   LIG    1       -0.013   1.076   0.008  0.00  0.00    +0.020 A 
ATOM     22  C   LIG    1       -1.223   1.754   0.017  0.00  0.00    +0.110 A 
ATOM     23  C   LIG    1       -1.238   3.141   0.029  0.00  0.00    -0.050 A 
ATOM     24  C   LIG    1       -0.049   3.844   0.022  0.00  0.00    +0.070 A 
BRANCH  22  25
ATOM     25  O   LIG    1       -2.392   1.060   0.019  0.00  0.00    -0.310 OA
BRANCH  25  26
ATOM     26  C   LIG    1       -3.599   1.824   0.029  0.00  0.00    +0.600 C 
ATOM     27  F   LIG    1       -3.636   2.624   1.176  0.00  0.00    -0.160 F 
ATOM     28  F   LIG    1       -4.698   0.958   0.029  0.00  0.00    -0.130 F 
ATOM     29  F   LIG    1       -3.646   2.636  -1.109  0.00  0.00    -0.160 F 
ENDBRANCH  25  26
ENDBRANCH  22  25
ENDBRANCH  18  19
ENDBRANCH   1  18
TORSDOF 11
