REMARK  Name = ZINCqH0000004oQE.0
REMARK                            x       y       z     vdW  Elec       q    Type
REMARK                         _______ _______ _______ _____ _____    ______ ____
ROOT
ATOM      1  N   LIG    1       -0.017   1.463   0.025  0.00  0.00    -0.720 N 
ATOM      2  H   LIG    1        0.817   1.958   0.036  0.00  0.00    +0.400 HD
ATOM      3  C   LIG    1       -1.192   2.123   0.026  0.00  0.00    +0.520 C 
ATOM      4  O   LIG    1       -2.233   1.507  -0.068  0.00  0.00    -0.520 OA
ENDROOT
BRANCH   1   5
ATOM      5  C   LIG    1        0.001  -0.002   0.001  0.00  0.00    +0.290 C 
BRANCH   5   6
ATOM      6  C   LIG    1        1.293  -0.498   0.598  0.00  0.00    -0.130 A 
ATOM      7  C   LIG    1        2.479   0.154   0.315  0.00  0.00    +0.050 A 
ATOM      8  C   LIG    1        3.664  -0.296   0.866  0.00  0.00    -0.070 A 
ATOM      9  C   LIG    1        3.664  -1.408   1.695  0.00  0.00    +0.130 A 
ATOM     10  C   LIG    1        2.473  -2.064   1.973  0.00  0.00    -0.020 A 
ATOM     11  C   LIG    1        1.290  -1.607   1.424  0.00  0.00    +0.070 A 
BRANCH   9  12
ATOM     12  O   LIG    1        4.829  -1.856   2.233  0.00  0.00    -0.320 OA
ATOM     13  C   LIG    1        6.016  -1.132   1.904  0.00  0.00    +0.250 C 
ENDBRANCH   9  12
ENDBRANCH   5   6
BRANCH   5  15
ATOM     14  C   LIG    1       -1.478  -0.092  -2.011  0.00  0.00    +0.020 C 
ATOM     15  C   LIG    1       -0.113  -0.490  -1.445  0.00  0.00    +0.000 C 
ENDBRANCH   5  15
ENDBRANCH   1   5
BRANCH   3  16
ATOM     16  C   LIG    1       -1.214   3.625   0.143  0.00  0.00    +0.240 C 
BRANCH  16  17
ATOM     17  N   LIG    1       -2.492   4.052   0.717  0.00  0.00    -0.710 N 
ATOM     18  H   LIG    1       -3.277   3.490   0.624  0.00  0.00    +0.410 HD
ATOM     19  C   LIG    1       -2.577   5.225   1.376  0.00  0.00    +0.600 C 
ATOM     20  O   LIG    1       -1.592   5.929   1.493  0.00  0.00    -0.520 OA
BRANCH  19  21
ATOM     21  C   LIG    1       -3.856   5.652   1.950  0.00  0.00    -0.270 A 
ATOM     22  C   LIG    1       -4.068   6.814   2.636  0.00  0.00    +0.110 A 
ATOM     23  C   LIG    1       -5.366   6.964   3.064  0.00  0.00    +0.000 A 
ATOM     24  C   LIG    1       -6.190   5.960   2.741  0.00  0.00    -0.050 A 
ATOM     25  S   LIG    1       -5.365   4.754   1.859  0.00  0.00    +0.210 S 
ENDBRANCH  19  21
ENDBRANCH  16  17
BRANCH  16  26
ATOM     26  C   LIG    1       -1.044   4.247  -1.244  0.00  0.00    -0.020 C 
ATOM     27  C   LIG    1        0.232   3.707  -1.893  0.00  0.00    +0.030 C 
ATOM     28  C   LIG    1       -0.944   5.768  -1.111  0.00  0.00    +0.030 C 
ENDBRANCH  16  26
ENDBRANCH   3  16
TORSDOF 8
