REMARK  Name = ZINCvU0000000Dd4.0
REMARK                            x       y       z     vdW  Elec       q    Type
REMARK                         _______ _______ _______ _____ _____    ______ ____
ROOT
ATOM      1  C   LIG    1       -3.515   1.912   5.263  0.00  0.00    -0.220 A 
ATOM      2  C   LIG    1       -4.766   1.625   4.806  0.00  0.00    +0.110 A 
ATOM      3  O   LIG    1       -4.706   1.249   3.524  0.00  0.00    -0.170 OA
ATOM      4  C   LIG    1       -3.437   1.264   3.066  0.00  0.00    +0.050 A 
ATOM      5  C   LIG    1       -2.872   0.968   1.831  0.00  0.00    +0.060 A 
ATOM      6  C   LIG    1       -1.509   1.073   1.652  0.00  0.00    -0.070 A 
ATOM      7  C   LIG    1       -0.687   1.484   2.698  0.00  0.00    +0.150 A 
ATOM      8  C   LIG    1       -1.236   1.788   3.933  0.00  0.00    +0.040 A 
ATOM      9  C   LIG    1       -0.904   0.745   0.312  0.00  0.00    +0.120 C 
ATOM     10  C   LIG    1       -6.028   1.718   5.624  0.00  0.00    +0.200 C 
ATOM     11  C   LIG    1       -2.609   1.679   4.119  0.00  0.00    -0.070 A 
ENDROOT
BRANCH   1  12
ATOM     12  C   LIG    1       -3.144   2.360   6.611  0.00  0.00    +0.550 C 
ATOM     13  O   LIG    1       -3.110   3.547   6.870  0.00  0.00    -0.490 OA
BRANCH  12  14
ATOM     14  O   LIG    1       -2.840   1.454   7.563  0.00  0.00    -0.350 OA
BRANCH  14  15
ATOM     15  C   LIG    1       -2.482   1.968   8.873  0.00  0.00    +0.210 C 
BRANCH  15  16
ATOM     16  C   LIG    1       -2.173   0.801   9.812  0.00  0.00    +0.030 C 
BRANCH  16  18
ATOM     17  C   LIG    1       -1.487   0.175  12.131  0.00  0.00    +0.030 C 
ATOM     18  C   LIG    1       -1.796   1.343  11.192  0.00  0.00    +0.020 C 
ENDBRANCH  16  18
ENDBRANCH  15  16
ENDBRANCH  14  15
ENDBRANCH  12  14
ENDBRANCH   1  12
BRANCH   7  19
ATOM     19  N   LIG    1        0.694   1.592   2.501  0.00  0.00    -1.050 N 
ATOM     20  H   LIG    1        1.040   1.892   1.646  0.00  0.00    +0.430 HD
BRANCH  19  21
ATOM     21  S   LIG    1        1.737   1.206   3.728  0.00  0.00    +2.690 S 
ATOM     22  O   LIG    1        1.324   1.961   4.859  0.00  0.00    -0.940 OA
ATOM     23  O   LIG    1        3.046   1.282   3.179  0.00  0.00    -0.950 OA
BRANCH  21  24
ATOM     24  C   LIG    1        1.464  -0.487   4.132  0.00  0.00    -0.690 A 
ATOM     25  C   LIG    1        1.815  -1.477   3.234  0.00  0.00    +0.030 A 
ATOM     26  C   LIG    1        1.605  -2.806   3.554  0.00  0.00    -0.020 A 
ATOM     27  C   LIG    1        1.035  -3.143   4.767  0.00  0.00    -0.010 A 
ATOM     28  C   LIG    1        0.679  -2.152   5.663  0.00  0.00    -0.020 A 
ATOM     29  C   LIG    1        0.802  -4.591   5.113  0.00  0.00    +0.090 C 
ATOM     30  C   LIG    1        2.432  -1.109   1.910  0.00  0.00    +0.100 C 
ATOM     31  C   LIG    1        0.893  -0.824   5.345  0.00  0.00    +0.040 A 
ATOM     32  C   LIG    1        0.505   0.256   6.322  0.00  0.00    +0.110 C 
ENDBRANCH  21  24
ENDBRANCH  19  21
ENDBRANCH   7  19
TORSDOF 8
