REMARK  Name = ZINCrD000000ADe3.0
REMARK                            x       y       z     vdW  Elec       q    Type
REMARK                         _______ _______ _______ _____ _____    ______ ____
ROOT
ATOM      1  O   LIG    1        0.136   4.068  -2.324  0.00  0.00    -0.510 OA
ATOM      2  C   LIG    1       -0.537   4.461  -1.394  0.00  0.00    +0.510 C 
ATOM      3  N   LIG    1       -1.683   5.130  -1.628  0.00  0.00    -0.720 N 
ATOM      4  H   LIG    1       -2.221   5.444  -0.885  0.00  0.00    +0.400 HD
ENDROOT
BRANCH   3   5
ATOM      5  C   LIG    1       -2.116   5.382  -3.004  0.00  0.00    +0.380 C 
BRANCH   5   6
ATOM      6  C   LIG    1       -3.007   6.597  -3.036  0.00  0.00    -0.090 A 
ATOM      7  C   LIG    1       -3.939   6.797  -2.034  0.00  0.00    +0.010 A 
ATOM      8  C   LIG    1       -4.754   7.913  -2.061  0.00  0.00    +0.020 A 
ATOM      9  C   LIG    1       -4.642   8.826  -3.093  0.00  0.00    +0.020 A 
ATOM     10  C   LIG    1       -3.714   8.623  -4.097  0.00  0.00    +0.020 A 
ATOM     11  C   LIG    1       -2.897   7.509  -4.069  0.00  0.00    +0.030 A 
ENDBRANCH   5   6
BRANCH   5  12
ATOM     12  C   LIG    1       -2.878   4.187  -3.518  0.00  0.00    -0.190 A 
ATOM     13  C   LIG    1       -2.782   3.687  -4.751  0.00  0.00    +0.020 A 
ATOM     14  C   LIG    1       -3.579   2.582  -4.996  0.00  0.00    +0.010 A 
ATOM     15  C   LIG    1       -4.323   2.186  -3.962  0.00  0.00    -0.040 A 
ATOM     16  S   LIG    1       -4.023   3.235  -2.583  0.00  0.00    +0.100 S 
ENDBRANCH   5  12
ENDBRANCH   3   5
BRANCH   2  17
ATOM     17  C   LIG    1       -0.091   4.201   0.021  0.00  0.00    +0.330 C 
BRANCH  17  18
ATOM     18  N   LIG    1        1.175   3.463   0.007  0.00  0.00    -0.500 N 
ATOM     19  C   LIG    1        2.354   4.122   0.001  0.00  0.00    +0.500 A 
ATOM     20  C   LIG    1        3.603   3.354  -0.013  0.00  0.00    +0.300 A 
ATOM     21  N   LIG    1        3.573   2.052  -0.020  0.00  0.00    -0.400 NA
ATOM     22  C   LIG    1        2.403   1.384  -0.013  0.00  0.00    +0.020 A 
ATOM     23  C   LIG    1        2.394  -0.019  -0.020  0.00  0.00    +0.110 A 
ATOM     24  C   LIG    1        1.208  -0.693  -0.013  0.00  0.00    -0.010 A 
ATOM     25  C   LIG    1        0.002  -0.004   0.002  0.00  0.00    +0.090 A 
ATOM     26  C   LIG    1       -0.017   1.374   0.010  0.00  0.00    -0.030 A 
ATOM     27  O   LIG    1        2.379   5.340   0.007  0.00  0.00    -0.510 OA
ATOM     28  C   LIG    1        1.181   2.082   0.002  0.00  0.00    +0.160 A 
ENDBRANCH  17  18
ENDBRANCH   2  17
TORSDOF 5
