REMARK  Name = ZINCrD000006Gtiw.0
REMARK                            x       y       z     vdW  Elec       q    Type
REMARK                         _______ _______ _______ _____ _____    ______ ____
ROOT
ATOM      1  C   LIG    1       -3.322  -1.959  -1.393  0.00  0.00    +0.250 A 
ATOM      2  N   LIG    1       -3.802  -2.263  -0.222  0.00  0.00    -0.280 NA
ATOM      3  N   LIG    1       -5.001  -2.965  -0.414  0.00  0.00    -0.540 N 
ATOM      4  H   LIG    1       -5.579  -3.315   0.282  0.00  0.00    +0.460 HD
ATOM      5  C   LIG    1       -5.200  -3.068  -1.744  0.00  0.00    +0.650 A 
ATOM      6  O   LIG    1       -6.139  -3.618  -2.291  0.00  0.00    -0.550 OA
ATOM      7  N   LIG    1       -4.170  -2.451  -2.359  0.00  0.00    -0.530 N 
ENDROOT
BRANCH   1   8
ATOM      8  S   LIG    1       -1.829  -1.071  -1.693  0.00  0.00    +0.030 S 
BRANCH   8   9
ATOM      9  C   LIG    1       -1.294  -0.772   0.010  0.00  0.00    +0.170 C 
BRANCH   9  15
ATOM     10  C   LIG    1       -0.017   1.387   0.010  0.00  0.00    +0.180 A 
ATOM     11  C   LIG    1        1.175   2.103   0.002  0.00  0.00    -0.080 A 
ATOM     12  C   LIG    1        2.379   1.436  -0.013  0.00  0.00    +0.120 A 
ATOM     13  C   LIG    1        2.397   0.035  -0.021  0.00  0.00    -0.210 A 
ATOM     14  C   LIG    1        1.191  -0.676  -0.013  0.00  0.00    +0.150 A 
ATOM     15  C   LIG    1        0.002  -0.004   0.002  0.00  0.00    -0.130 A 
BRANCH  13  16
ATOM     16  C   LIG    1        3.677  -0.685  -0.037  0.00  0.00    +0.400 C 
ATOM     17  O   LIG    1        3.691  -1.897  -0.044  0.00  0.00    -0.460 OA
ATOM     18  C   LIG    1        4.974   0.084  -0.045  0.00  0.00    +0.070 C 
ENDBRANCH  13  16
BRANCH  10  20
ATOM     19  C   LIG    1       -1.149   3.474   0.026  0.00  0.00    +0.250 C 
ATOM     20  O   LIG    1       -1.202   2.046   0.019  0.00  0.00    -0.300 OA
ENDBRANCH  10  20
ENDBRANCH   9  15
ENDBRANCH   8   9
ENDBRANCH   1   8
BRANCH   7  21
ATOM     21  C   LIG    1       -3.986  -2.327  -3.807  0.00  0.00    +0.330 C 
BRANCH  21  22
ATOM     22  C   LIG    1       -3.187  -3.525  -4.324  0.00  0.00    +0.060 C 
BRANCH  22  23
ATOM     23  C   LIG    1       -2.998  -3.397  -5.814  0.00  0.00    -0.090 A 
ATOM     24  C   LIG    1       -3.927  -3.945  -6.678  0.00  0.00    +0.010 A 
ATOM     25  C   LIG    1       -3.756  -3.823  -8.044  0.00  0.00    +0.000 A 
ATOM     26  C   LIG    1       -2.650  -3.163  -8.546  0.00  0.00    +0.000 A 
ATOM     27  C   LIG    1       -1.718  -2.620  -7.682  0.00  0.00    +0.000 A 
ATOM     28  C   LIG    1       -1.892  -2.737  -6.316  0.00  0.00    +0.010 A 
ENDBRANCH  22  23
ENDBRANCH  21  22
ENDBRANCH   7  21
TORSDOF 8
