REMARK  Name = ZINCpk00000FlQQM.0
REMARK                            x       y       z     vdW  Elec       q    Type
REMARK                         _______ _______ _______ _____ _____    ______ ____
ROOT
ATOM      1  C   LIG    1       -6.237   2.706   5.268  0.00  0.00    +0.540 A 
ATOM      2  C   LIG    1       -6.757   2.016   6.360  0.00  0.00    -0.340 A 
ATOM      3  C   LIG    1       -7.932   2.477   6.949  0.00  0.00    +0.550 A 
ATOM      4  N   LIG    1       -8.538   3.570   6.439  0.00  0.00    -0.440 N 
ATOM      5  C   LIG    1       -9.692   4.024   7.006  0.00  0.00    +0.310 A 
ATOM      6  C   LIG    1      -10.319   5.117   6.516  0.00  0.00    +0.000 A 
ATOM      7  C   LIG    1       -9.787   5.799   5.412  0.00  0.00    +0.160 A 
ATOM      8  C   LIG    1       -8.634   5.354   4.838  0.00  0.00    +0.030 A 
ATOM      9  C   LIG    1       -7.995   4.214   5.362  0.00  0.00    +0.450 A 
ATOM     10  O   LIG    1       -8.411   1.896   7.912  0.00  0.00    -0.470 OA
ATOM     11  N   LIG    1       -6.870   3.779   4.801  0.00  0.00    -0.580 NA
ENDROOT
BRANCH   2  12
ATOM     12  N   LIG    1       -6.070   0.816   6.890  0.00  0.00    +0.090 N 
ATOM     13  O   LIG    1       -6.586   0.161   7.777  0.00  0.00    -0.140 OA
ATOM     14  O   LIG    1       -4.988   0.485   6.438  0.00  0.00    -0.220 OA
ENDBRANCH   2  12
BRANCH   1  15
ATOM     15  N   LIG    1       -5.069   2.274   4.668  0.00  0.00    -0.650 N 
ATOM     16  H   LIG    1       -4.569   1.537   5.053  0.00  0.00    +0.440 HD
BRANCH  15  18
ATOM     17  C   LIG    1       -3.763   4.163   3.825  0.00  0.00    +0.070 C 
ATOM     18  C   LIG    1       -4.586   2.929   3.449  0.00  0.00    +0.240 C 
BRANCH  18  19
ATOM     19  C   LIG    1       -3.724   1.969   2.670  0.00  0.00    +0.510 C 
ATOM     20  N   LIG    1       -3.167   2.356   1.506  0.00  0.00    -0.720 N 
ATOM     21  H   LIG    1       -3.321   3.252   1.169  0.00  0.00    +0.400 HD
ATOM     22  O   LIG    1       -3.532   0.848   3.092  0.00  0.00    -0.520 OA
BRANCH  20  23
ATOM     23  C   LIG    1       -2.329   1.422   0.749  0.00  0.00    +0.240 C 
ATOM     24  C   LIG    1       -0.844   1.551   1.183  0.00  0.00    +0.000 C 
ATOM     25  C   LIG    1       -0.083   1.011  -0.054  0.00  0.00    +0.010 C 
ATOM     26  C   LIG    1       -0.893   1.535  -1.258  0.00  0.00    +0.020 C 
ATOM     27  C   LIG    1       -2.321   1.796  -0.748  0.00  0.00    +0.010 C 
ENDBRANCH  20  23
ENDBRANCH  18  19
ENDBRANCH  15  18
ENDBRANCH   1  15
TORSDOF 5
