REMARK  Name = ZINCkj00000y7NZa.0
REMARK                            x       y       z     vdW  Elec       q    Type
REMARK                         _______ _______ _______ _____ _____    ______ ____
ROOT
ATOM      1  C   LIG    1       -0.672   1.640   3.763  0.00  0.00    +0.210 C 
ENDROOT
BRANCH   1   2
ATOM      2  O   LIG    1       -1.943   0.995   3.869  0.00  0.00    -0.540 OA
ATOM      3  H   LIG    1       -1.891   0.031   3.932  0.00  0.00    +0.390 HD
ENDBRANCH   1   2
BRANCH   1   4
ATOM      4  C   LIG    1        0.048   1.144   2.508  0.00  0.00    +0.050 C 
BRANCH   4   5
ATOM      5  C   LIG    1       -0.732   1.581   1.266  0.00  0.00    +0.140 C 
ATOM      6  C   LIG    1       -0.013   1.086   0.008  0.00  0.00    -0.020 C 
ATOM      7  C   LIG    1       -0.756   1.594  -1.230  0.00  0.00    +0.200 C 
ATOM      8  O   LIG    1       -0.824   3.021  -1.191  0.00  0.00    -0.380 OA
ATOM      9  C   LIG    1       -1.528   3.540  -0.061  0.00  0.00    +0.200 C 
ATOM     10  C   LIG    1       -0.817   3.110   1.224  0.00  0.00    -0.030 C 
BRANCH   5  11
ATOM     11  O   LIG    1       -2.051   1.032   1.311  0.00  0.00    -0.540 OA
ATOM     12  H   LIG    1       -2.603   1.272   0.554  0.00  0.00    +0.380 HD
ENDBRANCH   5  11
ENDBRANCH   4   5
ENDBRANCH   1   4
BRANCH   1  13
ATOM     13  C   LIG    1        0.171   1.312   4.997  0.00  0.00    +0.230 C 
BRANCH  13  14
ATOM     14  N   LIG    1       -0.520   1.787   6.203  0.00  0.00    -0.500 N 
ATOM     15  H   LIG    1       -1.418   1.332   6.278  0.00  0.00    +0.430 HD
ATOM     16  H   LIG    1       -0.654   2.786   6.143  0.00  0.00    +0.430 HD
BRANCH  14  17
ATOM     17  C   LIG    1        0.289   1.472   7.388  0.00  0.00    +0.280 C 
BRANCH  17  18
ATOM     18  C   LIG    1       -0.431   1.968   8.644  0.00  0.00    -0.010 C 
ATOM     19  C   LIG    1       -1.688   1.107   8.924  0.00  0.00    +0.040 C 
ATOM     20  C   LIG    1       -1.912   1.312  10.442  0.00  0.00    +0.060 C 
ATOM     21  C   LIG    1       -0.488   1.345  11.034  0.00  0.00    +0.280 C 
ATOM     22  F   LIG    1       -0.421   2.278  12.074  0.00  0.00    -0.190 F 
ATOM     23  F   LIG    1       -0.136   0.076  11.506  0.00  0.00    -0.190 F 
ATOM     24  C   LIG    1        0.454   1.762   9.890  0.00  0.00    +0.060 C 
ENDBRANCH  17  18
ENDBRANCH  14  17
ENDBRANCH  13  14
ENDBRANCH   1  13
TORSDOF 8
