REMARK  Name = ZINCrH000004mTP5.0
REMARK                            x       y       z     vdW  Elec       q    Type
REMARK                         _______ _______ _______ _____ _____    ______ ____
ROOT
ATOM      1  N   LIG    1       -0.690   1.570   1.213  0.00  0.00    -0.730 N 
ATOM      2  H   LIG    1       -1.485   2.120   1.135  0.00  0.00    +0.400 HD
ATOM      3  C   LIG    1       -0.219   1.236   2.431  0.00  0.00    +0.700 C 
ATOM      4  N   LIG    1       -0.853   1.667   3.540  0.00  0.00    -0.680 N 
ATOM      5  H   LIG    1       -1.608   2.271   3.463  0.00  0.00    +0.410 HD
ATOM      6  O   LIG    1        0.777   0.546   2.530  0.00  0.00    -0.570 OA
ENDROOT
BRANCH   4   7
ATOM      7  C   LIG    1       -0.422   1.245   4.799  0.00  0.00    +0.170 A 
ATOM      8  C   LIG    1        0.918   1.034   5.041  0.00  0.00    +0.020 A 
ATOM      9  C   LIG    1        1.358   0.613   6.293  0.00  0.00    +0.040 A 
ATOM     10  C   LIG    1        0.480   0.398   7.311  0.00  0.00    +0.000 A 
ATOM     11  C   LIG    1       -0.895   0.601   7.106  0.00  0.00    -0.040 A 
ATOM     12  C   LIG    1       -1.825   0.387   8.138  0.00  0.00    +0.030 A 
ATOM     13  C   LIG    1       -3.150   0.592   7.904  0.00  0.00    +0.000 A 
ATOM     14  C   LIG    1       -3.601   1.014   6.656  0.00  0.00    +0.000 A 
ATOM     15  C   LIG    1       -2.729   1.231   5.632  0.00  0.00    +0.010 A 
ATOM     16  C   LIG    1       -1.355   1.035   5.838  0.00  0.00    -0.060 A 
ENDBRANCH   4   7
BRANCH   1  17
ATOM     17  C   LIG    1       -0.001   1.101   0.008  0.00  0.00    +0.260 C 
BRANCH  17  18
ATOM     18  C   LIG    1       -0.735   1.617  -1.231  0.00  0.00    +0.270 C 
BRANCH  18  23
ATOM     19  C   LIG    1        0.202  -0.461  -4.246  0.00  0.00    +0.100 A 
ATOM     20  C   LIG    1        1.279   0.253  -4.751  0.00  0.00    -0.030 A 
ATOM     21  C   LIG    1        1.703   1.405  -4.117  0.00  0.00    -0.030 A 
ATOM     22  C   LIG    1        1.048   1.851  -2.979  0.00  0.00    +0.110 A 
ATOM     23  C   LIG    1       -0.026   1.134  -2.471  0.00  0.00    -0.110 A 
ATOM     24  C   LIG    1       -0.450  -0.017  -3.105  0.00  0.00    +0.040 A 
BRANCH  19  26
ATOM     25  C   LIG    1        0.501  -1.992  -6.041  0.00  0.00    +0.250 C 
ATOM     26  O   LIG    1       -0.216  -1.594  -4.871  0.00  0.00    -0.320 OA
ENDBRANCH  19  26
BRANCH  22  27
ATOM     27  O   LIG    1        1.462   2.987  -2.358  0.00  0.00    -0.320 OA
ATOM     28  C   LIG    1        2.574   3.674  -2.936  0.00  0.00    +0.250 C 
ENDBRANCH  22  27
ENDBRANCH  18  23
BRANCH  18  29
ATOM     29  O   LIG    1       -2.077   1.126  -1.229  0.00  0.00    -0.550 OA
ATOM     30  H   LIG    1       -2.143   0.162  -1.239  0.00  0.00    +0.380 HD
ENDBRANCH  18  29
ENDBRANCH  17  18
ENDBRANCH   1  17
TORSDOF 7
