REMARK  Name = ZINCqH0000003Aam.0
REMARK                            x       y       z     vdW  Elec       q    Type
REMARK                         _______ _______ _______ _____ _____    ______ ____
ROOT
ATOM      1  C   LIG    1       -2.039  -0.002  -3.036  0.00  0.00    +0.350 A 
ATOM      2  N   LIG    1       -2.112   0.184  -4.341  0.00  0.00    -0.570 NA
ATOM      3  C   LIG    1       -2.570   1.319  -4.848  0.00  0.00    +0.490 A 
ATOM      4  C   LIG    1       -2.988   2.345  -3.962  0.00  0.00    -0.220 A 
ATOM      5  C   LIG    1       -2.892   2.098  -2.594  0.00  0.00    +0.110 A 
ATOM      6  S   LIG    1       -3.462   3.497  -1.701  0.00  0.00    +0.180 S 
ATOM      7  C   LIG    1       -3.817   4.387  -3.173  0.00  0.00    -0.170 A 
ATOM      8  C   LIG    1       -4.385   5.795  -3.205  0.00  0.00    +0.130 C 
ATOM      9  C   LIG    1       -4.939   6.072  -4.605  0.00  0.00    -0.010 C 
ATOM     10  C   LIG    1       -5.283   7.557  -4.734  0.00  0.00    +0.030 C 
ATOM     11  C   LIG    1       -3.876   5.700  -5.643  0.00  0.00    +0.030 C 
ATOM     12  C   LIG    1       -3.724   4.178  -5.679  0.00  0.00    +0.090 C 
ATOM     13  C   LIG    1       -3.522   3.669  -4.258  0.00  0.00    -0.070 A 
ATOM     14  N   LIG    1       -2.419   0.915  -2.176  0.00  0.00    -0.510 NA
ENDROOT
BRANCH   3  15
ATOM     15  N   LIG    1       -2.640   1.500  -6.218  0.00  0.00    -0.830 N 
ATOM     16  H   LIG    1       -3.103   2.271  -6.582  0.00  0.00    +0.410 HD
ATOM     17  H   LIG    1       -2.227   0.856  -6.814  0.00  0.00    +0.410 HD
ENDBRANCH   3  15
BRANCH   1  18
ATOM     18  C   LIG    1       -1.509  -1.313  -2.515  0.00  0.00    +0.420 C 
BRANCH  18  23
ATOM     19  C   LIG    1        0.592  -0.731  -1.264  0.00  0.00    +0.210 A 
ATOM     20  N   LIG    1        1.877  -0.805  -1.480  0.00  0.00    -0.460 NA
ATOM     21  C   LIG    1        2.092  -1.344  -2.689  0.00  0.00    +0.140 A 
ATOM     22  C   LIG    1        0.895  -1.607  -3.247  0.00  0.00    +0.140 A 
ATOM     23  N   LIG    1       -0.057  -1.218  -2.343  0.00  0.00    -0.450 N 
BRANCH  19  24
ATOM     24  C   LIG    1       -0.059  -0.186  -0.019  0.00  0.00    +0.260 C 
ATOM     25  C   LIG    1        0.041   1.341  -0.017  0.00  0.00    +0.040 C 
BRANCH  24  26
ATOM     26  O   LIG    1        0.605  -0.709   1.134  0.00  0.00    -0.370 OA
BRANCH  26  28
ATOM     27  C   LIG    1        0.571  -1.413   3.445  0.00  0.00    +0.040 C 
ATOM     28  C   LIG    1       -0.240  -0.848   2.277  0.00  0.00    +0.160 C 
ENDBRANCH  26  28
ENDBRANCH  24  26
ENDBRANCH  19  24
ENDBRANCH  18  23
ENDBRANCH   1  18
TORSDOF 6
