REMARK  Name = ZINCvU0000000Ak4.0
REMARK                            x       y       z     vdW  Elec       q    Type
REMARK                         _______ _______ _______ _____ _____    ______ ____
ROOT
ATOM      1  N   LIG    1       -1.143  -2.375  -0.679  0.00  0.00    -0.660 N 
ATOM      2  H   LIG    1       -1.257  -1.414  -0.617  0.00  0.00    +0.410 HD
ATOM      3  C   LIG    1       -0.032  -2.955  -0.181  0.00  0.00    +0.560 C 
ATOM      4  O   LIG    1        0.170  -4.136  -0.367  0.00  0.00    -0.500 OA
ENDROOT
BRANCH   1   9
ATOM      5  C   LIG    1       -4.410  -3.474  -1.971  0.00  0.00    +0.170 A 
ATOM      6  C   LIG    1       -4.079  -4.720  -2.488  0.00  0.00    -0.030 A 
ATOM      7  C   LIG    1       -2.780  -5.182  -2.402  0.00  0.00    +0.050 A 
ATOM      8  C   LIG    1       -1.804  -4.404  -1.809  0.00  0.00    +0.000 A 
ATOM      9  C   LIG    1       -2.130  -3.159  -1.285  0.00  0.00    +0.170 A 
ATOM     10  C   LIG    1       -3.433  -2.692  -1.369  0.00  0.00    -0.010 A 
BRANCH   5  13
ATOM     11  O   LIG    1       -5.045  -0.918  -2.377  0.00  0.00    -0.500 OA
ATOM     12  C   LIG    1       -5.965  -1.685  -2.183  0.00  0.00    +0.540 C 
ATOM     13  N   LIG    1       -5.726  -3.006  -2.058  0.00  0.00    -0.670 N 
ATOM     14  H   LIG    1       -6.466  -3.632  -2.029  0.00  0.00    +0.410 HD
BRANCH  12  15
ATOM     15  C   LIG    1       -7.374  -1.162  -2.081  0.00  0.00    +0.040 C 
ATOM     16  C   LIG    1       -7.380   0.328  -1.649  0.00  0.00    +0.080 C 
ATOM     17  C   LIG    1       -8.750   0.904  -2.048  0.00  0.00    +0.040 C 
ATOM     18  C   LIG    1       -9.064   0.488  -3.500  0.00  0.00    +0.120 C 
ATOM     19  S   LIG    1       -8.165  -1.089  -3.735  0.00  0.00    -0.240 S 
ENDBRANCH  12  15
ENDBRANCH   5  13
ENDBRANCH   1   9
BRANCH   3  20
ATOM     20  C   LIG    1        0.957  -2.135   0.606  0.00  0.00    -0.130 C 
ATOM     21  C   LIG    1        2.432  -2.534   0.521  0.00  0.00    +0.100 C 
ATOM     22  C   LIG    1        1.940  -1.267  -0.181  0.00  0.00    +0.070 C 
BRANCH  20  23
ATOM     23  C   LIG    1        0.456  -1.600   1.923  0.00  0.00    -0.010 A 
ATOM     24  C   LIG    1        0.952  -0.408   2.418  0.00  0.00    +0.010 A 
ATOM     25  C   LIG    1        0.495   0.085   3.626  0.00  0.00    +0.070 A 
ATOM     26  C   LIG    1       -0.460  -0.612   4.341  0.00  0.00    -0.050 A 
ATOM     27  C   LIG    1       -0.959  -1.809   3.847  0.00  0.00    +0.110 A 
ATOM     28  C   LIG    1       -0.498  -2.301   2.635  0.00  0.00    +0.020 A 
BRANCH  27  29
ATOM     29  O   LIG    1       -1.902  -2.494   4.546  0.00  0.00    -0.310 OA
BRANCH  29  30
ATOM     30  C   LIG    1       -2.329  -1.927   5.786  0.00  0.00    +0.600 C 
ATOM     31  F   LIG    1       -1.233  -1.810   6.648  0.00  0.00    -0.160 F 
ATOM     32  F   LIG    1       -3.294  -2.754   6.369  0.00  0.00    -0.130 F 
ATOM     33  F   LIG    1       -2.878  -0.661   5.556  0.00  0.00    -0.160 F 
ENDBRANCH  29  30
ENDBRANCH  27  29
ENDBRANCH  20  23
ENDBRANCH   3  20
TORSDOF 7
