REMARK  Name = ZINCpe000000WwVy.0
REMARK                            x       y       z     vdW  Elec       q    Type
REMARK                         _______ _______ _______ _____ _____    ______ ____
ROOT
ATOM      1  C   LIG    1        0.317  -0.594  -5.917  0.00  0.00    +0.520 C 
ATOM      2  N   LIG    1       -0.137  -0.282  -4.686  0.00  0.00    -0.620 N 
ATOM      3  C   LIG    1       -1.341   0.545  -4.521  0.00  0.00    +0.280 C 
ATOM      4  C   LIG    1       -0.989   1.752  -3.643  0.00  0.00    +0.290 C 
ATOM      5  N   LIG    1       -0.288   1.272  -2.443  0.00  0.00    -0.620 N 
ATOM      6  C   LIG    1        0.919   0.451  -2.609  0.00  0.00    +0.270 C 
ATOM      7  C   LIG    1       -0.742   1.585  -1.213  0.00  0.00    +0.500 C 
ATOM      8  O   LIG    1       -1.736   2.268  -1.088  0.00  0.00    -0.500 OA
ATOM      9  C   LIG    1        0.564  -0.761  -3.487  0.00  0.00    +0.270 C 
ATOM     10  O   LIG    1       -0.270  -0.192  -6.899  0.00  0.00    -0.520 OA
ENDROOT
BRANCH   1  11
ATOM     11  C   LIG    1        1.553  -1.442  -6.071  0.00  0.00    +0.120 C 
BRANCH  11  16
ATOM     12  C   LIG    1        1.570  -2.906  -9.555  0.00  0.00    +0.130 A 
ATOM     13  C   LIG    1        2.385  -2.007 -10.227  0.00  0.00    -0.080 A 
ATOM     14  C   LIG    1        2.926  -0.929  -9.552  0.00  0.00    +0.050 A 
ATOM     15  C   LIG    1        2.656  -0.747  -8.208  0.00  0.00    -0.020 A 
ATOM     16  C   LIG    1        1.844  -1.643  -7.536  0.00  0.00    -0.030 A 
ATOM     17  C   LIG    1        1.305  -2.724  -8.205  0.00  0.00    -0.010 A 
BRANCH  12  19
ATOM     18  C   LIG    1        1.359  -4.095 -11.603  0.00  0.00    +0.250 C 
ATOM     19  O   LIG    1        1.038  -3.967 -10.216  0.00  0.00    -0.320 OA
ENDBRANCH  12  19
ENDBRANCH  11  16
ENDBRANCH   1  11
BRANCH   7  20
ATOM     20  C   LIG    1       -0.013   1.086   0.008  0.00  0.00    +0.350 C 
BRANCH  20  21
ATOM     21  N   LIG    1       -0.698   1.558   1.213  0.00  0.00    -0.370 N 
ATOM     22  C   LIG    1       -1.156   0.786   2.221  0.00  0.00    +0.220 A 
ATOM     23  C   LIG    1       -1.721   1.601   3.142  0.00  0.00    -0.120 A 
ATOM     24  C   LIG    1       -1.613   2.915   2.677  0.00  0.00    +0.220 A 
ATOM     25  N   LIG    1       -1.000   2.891   1.521  0.00  0.00    -0.270 NA
ENDBRANCH  20  21
ENDBRANCH   7  20
TORSDOF 5
