REMARK  Name = ZINCqH0000007iky.0
REMARK                            x       y       z     vdW  Elec       q    Type
REMARK                         _______ _______ _______ _____ _____    ______ ____
ROOT
ATOM      1  N   LIG    1       -1.599   5.256   2.739  0.00  0.00    -0.670 N 
ATOM      2  H   LIG    1       -1.181   5.895   2.140  0.00  0.00    +0.410 HD
ATOM      3  C   LIG    1       -1.461   3.934   2.516  0.00  0.00    +0.510 C 
ATOM      4  O   LIG    1       -1.911   3.135   3.310  0.00  0.00    -0.510 OA
ENDROOT
BRANCH   1   8
ATOM      5  C   LIG    1       -3.817   6.597   6.009  0.00  0.00    +0.090 A 
ATOM      6  C   LIG    1       -3.065   5.438   6.109  0.00  0.00    -0.010 A 
ATOM      7  C   LIG    1       -2.330   4.994   5.026  0.00  0.00    +0.030 A 
ATOM      8  C   LIG    1       -2.344   5.708   3.835  0.00  0.00    +0.140 A 
ATOM      9  C   LIG    1       -3.093   6.873   3.733  0.00  0.00    -0.060 A 
ATOM     10  C   LIG    1       -3.834   7.315   4.816  0.00  0.00    +0.120 A 
BRANCH   5  12
ATOM     11  C   LIG    1       -4.476   6.247   8.268  0.00  0.00    +0.250 C 
ATOM     12  O   LIG    1       -4.540   7.033   7.076  0.00  0.00    -0.310 OA
ENDBRANCH   5  12
BRANCH  10  13
ATOM     13  O   LIG    1       -4.573   8.452   4.717  0.00  0.00    -0.300 OA
ATOM     14  C   LIG    1       -4.543   9.138   3.463  0.00  0.00    +0.240 C 
ENDBRANCH  10  13
ENDBRANCH   1   8
BRANCH   3  15
ATOM     15  C   LIG    1       -0.748   3.448   1.280  0.00  0.00    +0.060 C 
BRANCH  15  16
ATOM     16  C   LIG    1       -0.731   1.918   1.270  0.00  0.00    +0.070 C 
BRANCH  16  17
ATOM     17  C   LIG    1       -0.007   1.425   0.015  0.00  0.00    +0.200 C 
BRANCH  17  18
ATOM     18  O   LIG    1        0.009  -0.004   0.005  0.00  0.00    -0.310 OA
BRANCH  18  19
ATOM     19  C   LIG    1        0.618  -0.605  -1.047  0.00  0.00    +0.170 A 
ATOM     20  C   LIG    1        1.184   0.168  -2.055  0.00  0.00    -0.090 A 
ATOM     21  C   LIG    1        1.805  -0.435  -3.118  0.00  0.00    +0.110 A 
ATOM     22  C   LIG    1        1.858  -1.833  -3.194  0.00  0.00    -0.220 A 
ATOM     23  C   LIG    1        1.282  -2.607  -2.180  0.00  0.00    +0.120 A 
ATOM     24  C   LIG    1        0.668  -1.994  -1.118  0.00  0.00    -0.030 A 
BRANCH  22  25
ATOM     25  C   LIG    1        2.517  -2.484  -4.334  0.00  0.00    +0.400 C 
ATOM     26  O   LIG    1        2.561  -3.695  -4.398  0.00  0.00    -0.460 OA
ATOM     27  C   LIG    1        3.136  -1.649  -5.424  0.00  0.00    +0.080 C 
ENDBRANCH  22  25
ENDBRANCH  18  19
ENDBRANCH  17  18
ENDBRANCH  16  17
ENDBRANCH  15  16
ENDBRANCH   3  15
TORSDOF 9
