REMARK  Name = ZINCqH0000007UhF.0
REMARK                            x       y       z     vdW  Elec       q    Type
REMARK                         _______ _______ _______ _____ _____    ______ ____
ROOT
ATOM      1  C   LIG    1       -0.355  -5.268  -0.020  0.00  0.00    +0.610 C 
ATOM      2  N   LIG    1       -1.689  -5.082  -0.004  0.00  0.00    -0.660 N 
ATOM      3  H   LIG    1       -2.054  -4.187   0.078  0.00  0.00    +0.420 HD
ATOM      4  O   LIG    1        0.103  -6.394  -0.038  0.00  0.00    -0.500 OA
ENDROOT
BRANCH   2   5
ATOM      5  C   LIG    1       -2.550  -6.182  -0.106  0.00  0.00    +0.120 A 
ATOM      6  C   LIG    1       -3.756  -6.060  -0.785  0.00  0.00    +0.030 A 
ATOM      7  C   LIG    1       -4.601  -7.147  -0.889  0.00  0.00    -0.030 A 
ATOM      8  C   LIG    1       -4.253  -8.356  -0.307  0.00  0.00    +0.090 A 
ATOM      9  C   LIG    1       -3.052  -8.477   0.377  0.00  0.00    +0.030 A 
ATOM     10  C   LIG    1       -2.202  -7.393   0.477  0.00  0.00    +0.060 A 
BRANCH   8  11
ATOM     11  O   LIG    1       -5.089  -9.424  -0.405  0.00  0.00    -0.320 OA
BRANCH  11  12
ATOM     12  C   LIG    1       -6.309  -9.229  -1.123  0.00  0.00    +0.590 C 
ATOM     13  F   LIG    1       -6.020  -8.855  -2.440  0.00  0.00    -0.200 F 
ATOM     14  F   LIG    1       -7.057  -8.220  -0.505  0.00  0.00    -0.200 F 
ENDBRANCH  11  12
ENDBRANCH   8  11
ENDBRANCH   2   5
BRANCH   1  19
ATOM     15  C   LIG    1        1.969  -4.141  -0.031  0.00  0.00    +0.080 A 
ATOM     16  C   LIG    1        2.365  -2.842  -0.020  0.00  0.00    +0.090 A 
ATOM     17  N   LIG    1        1.237  -2.081   0.001  0.00  0.00    -0.210 N 
ATOM     18  N   LIG    1        0.196  -2.833   0.008  0.00  0.00    -0.230 NA
ATOM     19  C   LIG    1        0.552  -4.104  -0.016  0.00  0.00    -0.020 A 
BRANCH  17  20
ATOM     20  C   LIG    1        1.215  -0.680   0.019  0.00  0.00    +0.130 A 
ATOM     21  C   LIG    1        0.002  -0.004   0.040  0.00  0.00    +0.030 A 
ATOM     22  C   LIG    1       -0.017   1.377   0.058  0.00  0.00    +0.040 A 
ATOM     23  C   LIG    1        1.170   2.086   0.056  0.00  0.00    +0.010 A 
ATOM     24  C   LIG    1        2.380   1.415   0.035  0.00  0.00    +0.040 A 
ATOM     25  C   LIG    1        2.405   0.035   0.017  0.00  0.00    +0.010 A 
ENDBRANCH  17  20
BRANCH  15  27
ATOM     26  C   LIG    1        4.177  -5.026  -0.065  0.00  0.00    +0.240 C 
ATOM     27  O   LIG    1        2.765  -5.245  -0.053  0.00  0.00    -0.270 OA
ENDBRANCH  15  27
ENDBRANCH   1  19
TORSDOF 6
