REMARK  Name = ZINCrD00000eSJAO.0
REMARK                            x       y       z     vdW  Elec       q    Type
REMARK                         _______ _______ _______ _____ _____    ______ ____
ROOT
ATOM      1  C   LIG    1        2.498   4.147   0.042  0.00  0.00    +0.580 C 
ATOM      2  N   LIG    1        2.537   5.488   0.172  0.00  0.00    -0.620 N 
ATOM      3  C   LIG    1        1.391   6.390   0.415  0.00  0.00    +0.260 C 
ATOM      4  C   LIG    1        2.001   7.827   0.425  0.00  0.00    +0.260 C 
ATOM      5  C   LIG    1        3.156   7.628  -0.620  0.00  0.00    +0.050 C 
ATOM      6  N   LIG    1        2.775   7.884   1.700  0.00  0.00    -0.620 N 
ATOM      7  C   LIG    1        2.510   8.653   2.775  0.00  0.00    +0.570 C 
ATOM      8  O   LIG    1        1.554   9.398   2.766  0.00  0.00    -0.530 OA
ATOM      9  C   LIG    1        3.886   6.927   1.551  0.00  0.00    +0.250 C 
ATOM     10  C   LIG    1        3.746   6.361   0.104  0.00  0.00    +0.260 C 
ATOM     11  O   LIG    1        3.532   3.516  -0.061  0.00  0.00    -0.520 OA
ENDROOT
BRANCH   1  19
ATOM     12  C   LIG    1        2.162   1.728   1.594  0.00  0.00    +0.110 C 
ATOM     13  C   LIG    1        1.024   2.275   0.771  0.00  0.00    -0.070 A 
ATOM     14  C   LIG    1       -0.193   1.622   0.751  0.00  0.00    +0.090 A 
ATOM     15  C   LIG    1       -1.237   2.122  -0.011  0.00  0.00    +0.010 A 
ATOM     16  C   LIG    1       -1.071   3.282  -0.746  0.00  0.00    +0.040 A 
ATOM     17  C   LIG    1        0.140   3.943  -0.734  0.00  0.00    +0.040 A 
ATOM     18  F   LIG    1       -0.364   0.491   1.470  0.00  0.00    -0.130 F 
ATOM     19  C   LIG    1        1.198   3.443   0.026  0.00  0.00    -0.110 A 
ENDBRANCH   1  19
BRANCH   7  20
ATOM     20  C   LIG    1        3.402   8.585   3.988  0.00  0.00    -0.060 C 
ATOM     21  C   LIG    1        4.261   9.813   4.303  0.00  0.00    +0.090 C 
ATOM     22  C   LIG    1        3.052   9.482   5.170  0.00  0.00    -0.120 C 
ATOM     23  C   LIG    1        3.013   9.126   6.660  0.00  0.00    +0.070 C 
ATOM     24  C   LIG    1        2.229  10.434   6.866  0.00  0.00    -0.090 C 
ATOM     25  C   LIG    1        1.079  10.310   7.868  0.00  0.00    +0.040 C 
ATOM     26  C   LIG    1        3.122  11.648   7.135  0.00  0.00    +0.050 C 
ATOM     27  C   LIG    1        1.783  10.311   5.399  0.00  0.00    +0.090 C 
ENDBRANCH   7  20
TORSDOF 2
