REMARK  Name = ZINCrD0000075cvu.0
REMARK                            x       y       z     vdW  Elec       q    Type
REMARK                         _______ _______ _______ _____ _____    ______ ____
ROOT
ATOM      1  C   LIG    1        3.086   3.455   0.083  0.00  0.00    +0.150 A 
ATOM      2  C   LIG    1        3.379   4.670  -0.518  0.00  0.00    +0.100 A 
ATOM      3  C   LIG    1        2.409   5.652  -0.601  0.00  0.00    -0.170 A 
ATOM      4  C   LIG    1        1.144   5.424  -0.092  0.00  0.00    +0.090 A 
ATOM      5  C   LIG    1        0.841   4.214   0.503  0.00  0.00    +0.030 A 
ATOM      6  C   LIG    1        1.808   3.224   0.591  0.00  0.00    +0.160 A 
ENDROOT
BRANCH   6   7
ATOM      7  N   LIG    1        1.503   1.995   1.195  0.00  0.00    -0.320 N 
ATOM      8  C   LIG    1        0.343   1.679   1.813  0.00  0.00    +0.240 A 
ATOM      9  C   LIG    1        0.448   0.405   2.259  0.00  0.00    -0.090 A 
ATOM     10  C   LIG    1        1.714  -0.073   1.902  0.00  0.00    +0.270 A 
ATOM     11  N   LIG    1        2.346   0.879   1.265  0.00  0.00    -0.310 NA
ENDBRANCH   6   7
BRANCH   1  13
ATOM     12  C   LIG    1        5.357   2.805   0.364  0.00  0.00    +0.550 C 
ATOM     13  N   LIG    1        4.068   2.462   0.174  0.00  0.00    -0.660 N 
ATOM     14  H   LIG    1        3.821   1.527   0.100  0.00  0.00    +0.430 HD
ATOM     15  O   LIG    1        5.655   3.965   0.552  0.00  0.00    -0.520 OA
BRANCH  12  18
ATOM     16  C   LIG    1        7.874   2.199   0.565  0.00  0.00    +0.090 C 
ATOM     17  C   LIG    1        7.136   1.430   1.662  0.00  0.00    +0.070 C 
ATOM     18  C   LIG    1        6.430   1.746   0.343  0.00  0.00    -0.060 C 
BRANCH  16  22
ATOM     19  C   LIG    1       11.711   1.192  -2.499  0.00  0.00    +0.360 C 
ATOM     20  N   LIG    1       10.627   1.037  -1.525  0.00  0.00    -0.370 N 
ATOM     21  C   LIG    1        9.822   2.020  -1.071  0.00  0.00    +0.250 A 
ATOM     22  C   LIG    1        8.956   1.469  -0.190  0.00  0.00    -0.210 A 
ATOM     23  C   LIG    1        9.246   0.104  -0.097  0.00  0.00    +0.230 A 
ATOM     24  N   LIG    1       10.244  -0.157  -0.902  0.00  0.00    -0.290 NA
ENDBRANCH  16  22
ENDBRANCH  12  18
ENDBRANCH   1  13
BRANCH   3  25
ATOM     25  C   LIG    1        2.732   6.973  -1.250  0.00  0.00    +0.510 C 
ATOM     26  F   LIG    1        3.114   6.760  -2.578  0.00  0.00    -0.170 F 
ATOM     27  F   LIG    1        3.779   7.590  -0.556  0.00  0.00    -0.170 F 
ATOM     28  F   LIG    1        1.602   7.797  -1.216  0.00  0.00    -0.170 F 
ENDBRANCH   3  25
TORSDOF 5
