REMARK  Name = ZINCvU0000000ABX.0
REMARK                            x       y       z     vdW  Elec       q    Type
REMARK                         _______ _______ _______ _____ _____    ______ ____
ROOT
ATOM      1  S   LIG    1       -2.033  -0.268  -0.999  0.00  0.00    +2.690 S 
ATOM      2  O   LIG    1       -1.191  -1.269  -0.443  0.00  0.00    -0.910 OA
ATOM      3  O   LIG    1       -1.536   0.867  -1.696  0.00  0.00    -0.910 OA
ENDROOT
BRANCH   1   4
ATOM      4  C   LIG    1       -3.123  -1.095  -2.110  0.00  0.00    -0.660 A 
ATOM      5  C   LIG    1       -3.301  -2.462  -2.013  0.00  0.00    +0.240 A 
ATOM      6  C   LIG    1       -4.160  -3.110  -2.881  0.00  0.00    -0.200 A 
ATOM      7  C   LIG    1       -4.832  -2.393  -3.852  0.00  0.00    +0.210 A 
ATOM      8  C   LIG    1       -4.650  -1.026  -3.952  0.00  0.00    -0.200 A 
ATOM      9  C   LIG    1       -3.795  -0.377  -3.081  0.00  0.00    +0.240 A 
BRANCH   8  10
ATOM     10  C   LIG    1       -5.384  -0.243  -5.011  0.00  0.00    +0.520 C 
ATOM     11  F   LIG    1       -5.616   1.058  -4.552  0.00  0.00    -0.170 F 
ATOM     12  F   LIG    1       -6.606  -0.865  -5.287  0.00  0.00    -0.170 F 
ATOM     13  F   LIG    1       -4.610  -0.196  -6.175  0.00  0.00    -0.170 F 
ENDBRANCH   8  10
BRANCH   6  14
ATOM     14  C   LIG    1       -4.359  -4.600  -2.772  0.00  0.00    +0.520 C 
ATOM     15  F   LIG    1       -4.866  -4.912  -1.506  0.00  0.00    -0.170 F 
ATOM     16  F   LIG    1       -3.133  -5.249  -2.956  0.00  0.00    -0.170 F 
ATOM     17  F   LIG    1       -5.262  -5.023  -3.753  0.00  0.00    -0.170 F 
ENDBRANCH   6  14
ENDBRANCH   1   4
BRANCH   1  22
ATOM     18  C   LIG    1       -2.490   0.980   1.339  0.00  0.00    +0.090 A 
ATOM     19  C   LIG    1       -3.561   1.291   2.119  0.00  0.00    -0.010 A 
ATOM     20  C   LIG    1       -4.713   0.794   1.483  0.00  0.00    +0.180 A 
ATOM     21  N   LIG    1       -4.345   0.207   0.364  0.00  0.00    -0.260 NA
ATOM     22  N   LIG    1       -2.953   0.315   0.248  0.00  0.00    -0.740 N 
BRANCH  20  23
ATOM     23  C   LIG    1       -6.104   0.911   1.987  0.00  0.00    -0.050 A 
ATOM     24  C   LIG    1       -6.357   1.556   3.196  0.00  0.00    +0.090 A 
ATOM     25  C   LIG    1       -7.653   1.668   3.658  0.00  0.00    +0.000 A 
ATOM     26  C   LIG    1       -8.700   1.130   2.927  0.00  0.00    +0.120 A 
ATOM     27  C   LIG    1       -8.452   0.483   1.728  0.00  0.00    -0.020 A 
ATOM     28  F   LIG    1       -9.966   1.237   3.386  0.00  0.00    -0.130 F 
ATOM     29  C   LIG    1       -7.160   0.372   1.256  0.00  0.00    +0.090 A 
ENDBRANCH  20  23
BRANCH  18  31
ATOM     30  C   LIG    1        0.002   1.131   0.075  0.00  0.00    +0.120 C 
ATOM     31  S   LIG    1       -0.807   1.375   1.680  0.00  0.00    -0.000 S 
ENDBRANCH  18  31
ENDBRANCH   1  22
TORSDOF 6
