REMARK  Name = ZINCtV000002M1Jn.0
REMARK                            x       y       z     vdW  Elec       q    Type
REMARK                         _______ _______ _______ _____ _____    ______ ____
ROOT
ATOM      1  O   LIG    1       -1.304  -0.837   0.261  0.00  0.00    -0.510 OA
ATOM      2  C   LIG    1       -2.359  -0.259   0.105  0.00  0.00    +0.520 C 
ATOM      3  N   LIG    1       -2.385   1.087   0.027  0.00  0.00    -0.660 N 
ATOM      4  H   LIG    1       -3.234   1.554  -0.019  0.00  0.00    +0.420 HD
ENDROOT
BRANCH   3   5
ATOM      5  C   LIG    1       -1.190   1.808   0.011  0.00  0.00    +0.210 A 
ATOM      6  C   LIG    1       -0.070   1.287  -0.618  0.00  0.00    +0.010 A 
ATOM      7  C   LIG    1        1.110   2.005  -0.637  0.00  0.00    +0.060 A 
ATOM      8  C   LIG    1        1.185   3.244  -0.025  0.00  0.00    -0.010 A 
ATOM      9  C   LIG    1        0.082   3.775   0.610  0.00  0.00    +0.060 A 
ATOM     10  C   LIG    1       -1.116   3.061   0.636  0.00  0.00    -0.080 A 
BRANCH  10  11
ATOM     11  C   LIG    1       -2.301   3.624   1.315  0.00  0.00    +0.170 A 
ATOM     12  N   LIG    1       -3.476   3.088   1.312  0.00  0.00    -0.480 NA
ATOM     13  C   LIG    1       -4.457   3.719   1.980  0.00  0.00    +0.090 A 
ATOM     14  C   LIG    1       -5.810   3.342   2.130  0.00  0.00    +0.060 A 
ATOM     15  C   LIG    1       -6.669   4.118   2.846  0.00  0.00    +0.040 A 
ATOM     16  C   LIG    1       -6.236   5.294   3.442  0.00  0.00    +0.040 A 
ATOM     17  C   LIG    1       -4.923   5.688   3.313  0.00  0.00    +0.060 A 
ATOM     18  C   LIG    1       -4.028   4.907   2.585  0.00  0.00    -0.180 A 
ATOM     19  S   LIG    1       -2.315   5.123   2.234  0.00  0.00    +0.080 S 
ENDBRANCH  10  11
ENDBRANCH   3   5
BRANCH   2  20
ATOM     20  C   LIG    1       -3.640  -1.044  -0.000  0.00  0.00    +0.070 C 
BRANCH  20  21
ATOM     21  C   LIG    1       -3.334  -2.538   0.119  0.00  0.00    -0.030 C 
ATOM     22  C   LIG    1       -2.674  -2.817   1.471  0.00  0.00    +0.030 C 
ATOM     23  C   LIG    1       -2.368  -4.311   1.591  0.00  0.00    -0.010 C 
ATOM     24  C   LIG    1       -1.419  -4.729   0.465  0.00  0.00    +0.010 C 
ATOM     25  C   LIG    1       -2.079  -4.450  -0.887  0.00  0.00    -0.010 C 
ATOM     26  C   LIG    1       -3.380  -5.248  -0.994  0.00  0.00    +0.010 C 
ATOM     27  C   LIG    1       -4.328  -4.830   0.132  0.00  0.00    -0.010 C 
ATOM     28  C   LIG    1       -3.669  -5.109   1.484  0.00  0.00    +0.010 C 
ATOM     29  C   LIG    1       -2.385  -2.956  -1.006  0.00  0.00    +0.030 C 
ATOM     30  C   LIG    1       -4.635  -3.336   0.012  0.00  0.00    +0.020 C 
ENDBRANCH  20  21
ENDBRANCH   2  20
TORSDOF 4
