REMARK  Name = ZINCrD0000074PjI.0
REMARK                            x       y       z     vdW  Elec       q    Type
REMARK                         _______ _______ _______ _____ _____    ______ ____
ROOT
ATOM      1  N   LIG    1        0.481   9.719  -4.802  0.00  0.00    -0.500 N 
ATOM      2  C   LIG    1        0.370  10.306  -3.460  0.00  0.00    +0.180 C 
ATOM      3  C   LIG    1        1.404   9.655  -2.535  0.00  0.00    +0.300 C 
ATOM      4  N   LIG    1        1.230   8.196  -2.593  0.00  0.00    -0.620 N 
ATOM      5  C   LIG    1        1.199   7.550  -3.914  0.00  0.00    +0.280 C 
ATOM      6  C   LIG    1        1.108   7.468  -1.465  0.00  0.00    +0.520 C 
ATOM      7  O   LIG    1        1.141   8.016  -0.383  0.00  0.00    -0.540 OA
ATOM      8  C   LIG    1        0.167   8.284  -4.785  0.00  0.00    +0.180 C 
ENDROOT
BRANCH   1  14
ATOM      9  C   LIG    1        0.053  12.507  -8.827  0.00  0.00    +0.090 C 
ATOM     10  C   LIG    1       -0.566  11.758  -7.675  0.00  0.00    -0.080 A 
ATOM     11  C   LIG    1       -1.940  11.743  -7.519  0.00  0.00    +0.000 A 
ATOM     12  C   LIG    1       -2.511  11.057  -6.463  0.00  0.00    +0.010 A 
ATOM     13  C   LIG    1       -1.712  10.381  -5.563  0.00  0.00    -0.030 A 
ATOM     14  C   LIG    1       -0.331  10.398  -5.714  0.00  0.00    +0.080 A 
ATOM     15  C   LIG    1        0.240  11.088  -6.775  0.00  0.00    -0.060 A 
ATOM     16  C   LIG    1        1.737  11.105  -6.946  0.00  0.00    +0.100 C 
ENDBRANCH   1  14
BRANCH   6  17
ATOM     17  C   LIG    1        0.931   5.974  -1.547  0.00  0.00    +0.060 C 
BRANCH  17  18
ATOM     18  C   LIG    1        0.818   5.395  -0.135  0.00  0.00    +0.110 C 
BRANCH  18  19
ATOM     19  C   LIG    1        0.640   3.901  -0.218  0.00  0.00    -0.070 A 
ATOM     20  C   LIG    1       -0.629   3.360  -0.291  0.00  0.00    +0.040 A 
ATOM     21  C   LIG    1       -0.797   1.990  -0.371  0.00  0.00    +0.040 A 
ATOM     22  C   LIG    1        0.308   1.155  -0.369  0.00  0.00    +0.030 A 
ATOM     23  O   LIG    1        0.416  -0.204  -0.434  0.00  0.00    -0.310 OA
ATOM     24  C   LIG    1        1.752  -0.506   0.012  0.00  0.00    +0.430 C 
ATOM     25  O   LIG    1        2.497   0.682  -0.313  0.00  0.00    -0.310 OA
ATOM     26  C   LIG    1        1.588   1.700  -0.294  0.00  0.00    +0.030 A 
ATOM     27  C   LIG    1        1.748   3.074  -0.219  0.00  0.00    +0.040 A 
ENDBRANCH  18  19
ENDBRANCH  17  18
ENDBRANCH   6  17
TORSDOF 4
