REMARK  Name = ZINCrD000000AfBT.0
REMARK                            x       y       z     vdW  Elec       q    Type
REMARK                         _______ _______ _______ _____ _____    ______ ____
ROOT
ATOM      1  C   LIG    1       -1.315   8.581  -0.257  0.00  0.00    +0.290 C 
ENDROOT
BRANCH   1   2
ATOM      2  N   LIG    1       -1.043  10.016  -0.362  0.00  0.00    -0.730 N 
ATOM      3  H   LIG    1       -0.128  10.337  -0.369  0.00  0.00    +0.400 HD
ATOM      4  C   LIG    1       -2.064  10.891  -0.450  0.00  0.00    +0.560 C 
ATOM      5  O   LIG    1       -3.212  10.489  -0.441  0.00  0.00    -0.530 OA
BRANCH   4   6
ATOM      6  C   LIG    1       -1.790  12.339  -0.556  0.00  0.00    -0.140 A 
ATOM      7  C   LIG    1       -2.844  13.233  -0.651  0.00  0.00    +0.110 A 
ATOM      8  C   LIG    1       -2.576  14.607  -0.746  0.00  0.00    -0.060 A 
ATOM      9  C   LIG    1       -3.619  15.546  -0.839  0.00  0.00    +0.030 A 
ATOM     10  C   LIG    1       -3.325  16.871  -0.936  0.00  0.00    +0.010 A 
ATOM     11  C   LIG    1       -2.005  17.314  -0.944  0.00  0.00    +0.030 A 
ATOM     12  C   LIG    1       -0.969  16.434  -0.856  0.00  0.00    +0.020 A 
ATOM     13  C   LIG    1       -1.232  15.058  -0.755  0.00  0.00    -0.030 A 
ATOM     14  C   LIG    1       -0.183  14.124  -0.663  0.00  0.00    +0.020 A 
ATOM     15  C   LIG    1       -0.461  12.799  -0.566  0.00  0.00    +0.040 A 
ENDBRANCH   4   6
ENDBRANCH   1   2
BRANCH   1  16
ATOM     16  C   LIG    1        0.008   7.816  -0.172  0.00  0.00    +0.070 C 
BRANCH  16  18
ATOM     17  O   LIG    1       -1.417   5.938  -0.054  0.00  0.00    -0.510 OA
ATOM     18  C   LIG    1       -0.272   6.339  -0.063  0.00  0.00    +0.520 C 
ATOM     19  N   LIG    1        0.750   5.465   0.024  0.00  0.00    -0.670 N 
ATOM     20  H   LIG    1        1.661   5.789   0.094  0.00  0.00    +0.420 HD
BRANCH  19  21
ATOM     21  C   LIG    1        0.495   4.087   0.014  0.00  0.00    +0.160 A 
ATOM     22  C   LIG    1        1.301   3.227   0.746  0.00  0.00    +0.010 A 
ATOM     23  C   LIG    1        1.048   1.868   0.742  0.00  0.00    +0.060 A 
ATOM     24  C   LIG    1       -0.004   1.360  -0.002  0.00  0.00    +0.020 A 
ATOM     25  O   LIG    1       -0.455   0.082  -0.176  0.00  0.00    -0.310 OA
ATOM     26  C   LIG    1       -1.293   0.125  -1.346  0.00  0.00    +0.430 C 
ATOM     27  O   LIG    1       -1.773   1.483  -1.373  0.00  0.00    -0.310 OA
ATOM     28  C   LIG    1       -0.815   2.221  -0.739  0.00  0.00    +0.060 A 
ATOM     29  C   LIG    1       -0.564   3.582  -0.729  0.00  0.00    +0.040 A 
ENDBRANCH  19  21
ENDBRANCH  16  18
ENDBRANCH   1  16
TORSDOF 5
