REMARK  Name = ZINCpe00000MJLtk.0
REMARK                            x       y       z     vdW  Elec       q    Type
REMARK                         _______ _______ _______ _____ _____    ______ ____
ROOT
ATOM      1  C   LIG    1       -2.548   1.385   0.034  0.00  0.00    +0.350 C 
ATOM      2  C   LIG    1       -3.080   1.338   1.470  0.00  0.00    -0.330 C 
ATOM      3  S   LIG    1       -4.814   0.799   1.439  0.00  0.00    +2.420 S 
ATOM      4  C   LIG    1       -5.551   2.021   0.315  0.00  0.00    -0.350 C 
ATOM      5  C   LIG    1       -4.783   2.002  -1.011  0.00  0.00    +0.320 C 
ATOM      6  O   LIG    1       -4.883  -0.482   0.827  0.00  0.00    -0.930 OA
ATOM      7  O   LIG    1       -5.369   0.980   2.735  0.00  0.00    -0.930 OA
ATOM      8  N   LIG    1       -3.371   2.297  -0.763  0.00  0.00    -0.630 N 
ATOM      9  C   LIG    1       -2.823   3.418  -1.272  0.00  0.00    +0.530 C 
ATOM     10  O   LIG    1       -1.632   3.617  -1.159  0.00  0.00    -0.470 OA
ENDROOT
BRANCH   9  11
ATOM     11  C   LIG    1       -3.691   4.425  -1.983  0.00  0.00    +0.020 C 
ATOM     12  C   LIG    1       -4.720   5.052  -1.012  0.00  0.00    +0.260 C 
ATOM     13  O   LIG    1       -4.793   6.415  -1.463  0.00  0.00    -0.300 OA
ATOM     14  C   LIG    1       -3.611   6.761  -2.043  0.00  0.00    +0.110 A 
ATOM     15  C   LIG    1       -3.081   8.020  -2.311  0.00  0.00    -0.010 A 
ATOM     16  C   LIG    1       -1.856   8.141  -2.933  0.00  0.00    +0.050 A 
ATOM     17  C   LIG    1       -1.143   7.014  -3.297  0.00  0.00    -0.020 A 
ATOM     18  C   LIG    1       -1.660   5.758  -3.030  0.00  0.00    +0.080 A 
ATOM     19  C   LIG    1       -2.881   5.635  -2.406  0.00  0.00    -0.160 A 
ENDBRANCH   9  11
BRANCH   1  23
ATOM     20  C   LIG    1        2.290   2.011  -1.115  0.00  0.00    +0.340 C 
ATOM     21  N   LIG    1        0.985   2.141  -0.463  0.00  0.00    -0.370 N 
ATOM     22  C   LIG    1       -0.137   1.465  -0.791  0.00  0.00    +0.240 A 
ATOM     23  C   LIG    1       -1.122   1.873   0.042  0.00  0.00    -0.200 A 
ATOM     24  C   LIG    1       -0.583   2.825   0.913  0.00  0.00    +0.250 A 
ATOM     25  N   LIG    1        0.679   2.989   0.609  0.00  0.00    -0.290 NA
ENDBRANCH   1  23
TORSDOF 2
