REMARK  Name = ZINCtj00000nxl2O.1
REMARK                            x       y       z     vdW  Elec       q    Type
REMARK                         _______ _______ _______ _____ _____    ______ ____
ROOT
ATOM      1  C   LIG    1        5.055   7.846  -3.005  0.00  0.00    +0.280 C 
ATOM      2  C   LIG    1        4.354   6.856  -2.057  0.00  0.00    +0.260 C 
ATOM      3  N   LIG    1        3.271   7.598  -1.377  0.00  0.00    -0.390 N 
ATOM      4  C   LIG    1        3.686   9.025  -1.393  0.00  0.00    +0.310 C 
ATOM      5  H   LIG    1        2.402   7.482  -1.877  0.00  0.00    +0.430 HD
ATOM      6  C   LIG    1        4.325   9.192  -2.794  0.00  0.00    +0.070 C 
ENDROOT
BRANCH   6   7
ATOM      7  C   LIG    1        5.304  10.338  -2.800  0.00  0.00    +0.060 A 
ATOM      8  C   LIG    1        6.565  10.312  -2.309  0.00  0.00    -0.100 A 
ATOM      9  C   LIG    1        7.133  11.573  -2.514  0.00  0.00    +0.240 A 
ATOM     10  N   LIG    1        6.242  12.332  -3.099  0.00  0.00    -0.270 NA
ATOM     11  N   LIG    1        5.079  11.575  -3.291  0.00  0.00    -0.360 N 
ATOM     12  C   LIG    1        3.838  12.042  -3.913  0.00  0.00    +0.350 C 
ENDBRANCH   6   7
BRANCH   1  14
ATOM     13  C   LIG    1        5.805   6.535  -4.917  0.00  0.00    +0.520 C 
ATOM     14  N   LIG    1        4.917   7.404  -4.394  0.00  0.00    -0.730 N 
ATOM     15  H   LIG    1        4.187   7.738  -4.939  0.00  0.00    +0.410 HD
ATOM     16  O   LIG    1        6.718   6.119  -4.236  0.00  0.00    -0.490 OA
BRANCH  13  17
ATOM     17  C   LIG    1        5.663   6.081  -6.346  0.00  0.00    +0.210 C 
BRANCH  17  19
ATOM     18  C   LIG    1        6.674   4.674  -8.003  0.00  0.00    +0.230 C 
ATOM     19  O   LIG    1        6.716   5.168  -6.663  0.00  0.00    -0.370 OA
ENDBRANCH  17  19
ENDBRANCH  13  17
ENDBRANCH   1  14
BRANCH   3  20
ATOM     20  C   LIG    1        3.125   7.128   0.007  0.00  0.00    +0.330 C 
BRANCH  20  21
ATOM     21  C   LIG    1        2.638   5.702   0.005  0.00  0.00    -0.180 A 
ATOM     22  C   LIG    1        3.549   4.662  -0.009  0.00  0.00    +0.080 A 
ATOM     23  C   LIG    1        3.106   3.354  -0.010  0.00  0.00    +0.010 A 
ATOM     24  C   LIG    1        1.744   3.084   0.001  0.00  0.00    +0.190 A 
ATOM     25  C   LIG    1        0.832   4.131   0.009  0.00  0.00    +0.000 A 
ATOM     26  C   LIG    1        1.281   5.437   0.017  0.00  0.00    +0.080 A 
BRANCH  24  27
ATOM     27  N   LIG    1        1.290   1.757  -0.001  0.00  0.00    -0.430 N 
ATOM     28  C   LIG    1       -0.016   1.342   0.009  0.00  0.00    +0.120 A 
ATOM     29  C   LIG    1        0.002  -0.004   0.002  0.00  0.00    +0.170 A 
ATOM     30  N   LIG    1        1.282  -0.406  -0.012  0.00  0.00    -0.470 NA
ATOM     31  C   LIG    1        2.063   0.640  -0.014  0.00  0.00    +0.410 A 
ENDBRANCH  24  27
ENDBRANCH  20  21
ENDBRANCH   3  20
TORSDOF 7
