REMARK  Name = ZINCtj00000nxl2O.0
REMARK                            x       y       z     vdW  Elec       q    Type
REMARK                         _______ _______ _______ _____ _____    ______ ____
ROOT
ATOM      1  C   LIG    1        2.684   0.111   0.759  0.00  0.00    +0.290 C 
ATOM      2  C   LIG    1        3.946  -0.482   0.078  0.00  0.00    +0.260 C 
ATOM      3  N   LIG    1        3.818  -0.110  -1.347  0.00  0.00    -0.390 N 
ATOM      4  C   LIG    1        2.955   1.081  -1.446  0.00  0.00    +0.280 C 
ATOM      5  H   LIG    1        3.404  -0.873  -1.862  0.00  0.00    +0.430 HD
ATOM      6  C   LIG    1        2.511   1.445  -0.014  0.00  0.00    +0.080 C 
ENDROOT
BRANCH   6   7
ATOM      7  C   LIG    1        1.071   1.887   0.002  0.00  0.00    +0.060 A 
ATOM      8  C   LIG    1       -0.013   1.076   0.008  0.00  0.00    -0.100 A 
ATOM      9  C   LIG    1       -1.155   1.883   0.017  0.00  0.00    +0.240 A 
ATOM     10  N   LIG    1       -0.771   3.134   0.026  0.00  0.00    -0.270 NA
ATOM     11  N   LIG    1        0.630   3.162   0.013  0.00  0.00    -0.360 N 
ATOM     12  C   LIG    1        1.468   4.364   0.011  0.00  0.00    +0.350 C 
ENDBRANCH   6   7
BRANCH   1  14
ATOM     13  C   LIG    1        2.603  -0.588   3.092  0.00  0.00    +0.520 C 
ATOM     14  N   LIG    1        2.920   0.357   2.184  0.00  0.00    -0.720 N 
ATOM     15  H   LIG    1        3.303   1.199   2.474  0.00  0.00    +0.410 HD
ATOM     16  O   LIG    1        2.123  -1.641   2.730  0.00  0.00    -0.500 OA
BRANCH  13  17
ATOM     17  C   LIG    1        2.845  -0.335   4.558  0.00  0.00    +0.220 C 
BRANCH  17  19
ATOM     18  C   LIG    1        2.619  -1.339   6.723  0.00  0.00    +0.230 C 
ATOM     19  O   LIG    1        2.431  -1.476   5.313  0.00  0.00    -0.370 OA
ENDBRANCH  17  19
ENDBRANCH  13  17
ENDBRANCH   1  14
BRANCH   3  20
ATOM     20  C   LIG    1        5.146   0.194  -1.897  0.00  0.00    +0.330 C 
BRANCH  20  21
ATOM     21  C   LIG    1        5.985  -1.058  -1.907  0.00  0.00    -0.180 A 
ATOM     22  C   LIG    1        6.769  -1.371  -0.812  0.00  0.00    +0.080 A 
ATOM     23  C   LIG    1        7.535  -2.521  -0.816  0.00  0.00    +0.000 A 
ATOM     24  C   LIG    1        7.524  -3.357  -1.924  0.00  0.00    +0.190 A 
ATOM     25  C   LIG    1        6.739  -3.036  -3.024  0.00  0.00    +0.010 A 
ATOM     26  C   LIG    1        5.972  -1.888  -3.012  0.00  0.00    +0.080 A 
BRANCH  24  27
ATOM     27  N   LIG    1        8.304  -4.522  -1.934  0.00  0.00    -0.430 N 
ATOM     28  C   LIG    1        9.123  -4.962  -0.926  0.00  0.00    +0.120 A 
ATOM     29  C   LIG    1        9.679  -6.113  -1.350  0.00  0.00    +0.170 A 
ATOM     30  N   LIG    1        9.216  -6.372  -2.582  0.00  0.00    -0.470 NA
ATOM     31  C   LIG    1        8.388  -5.430  -2.940  0.00  0.00    +0.410 A 
ENDBRANCH  24  27
ENDBRANCH  20  21
ENDBRANCH   3  20
TORSDOF 7
