REMARK  Name = ZINCpk00000G9icb.1
REMARK                            x       y       z     vdW  Elec       q    Type
REMARK                         _______ _______ _______ _____ _____    ______ ____
ROOT
ATOM      1  N   LIG    1       -1.143   2.208   1.228  0.00  0.00    -0.580 N 
ATOM      2  C   LIG    1       -0.735   3.469   1.471  0.00  0.00    +0.570 C 
ATOM      3  O   LIG    1       -0.571   3.845   2.615  0.00  0.00    -0.510 OA
ATOM      4  C   LIG    1       -1.625   1.369   2.328  0.00  0.00    +0.320 C 
ENDROOT
BRANCH   2   5
ATOM      5  C   LIG    1       -0.486   4.395   0.345  0.00  0.00    -0.120 A 
ATOM      6  C   LIG    1       -0.143   3.894  -0.912  0.00  0.00    +0.050 A 
ATOM      7  C   LIG    1        0.082   4.764  -1.959  0.00  0.00    +0.050 A 
ATOM      8  C   LIG    1       -0.019   6.129  -1.762  0.00  0.00    -0.060 A 
ATOM      9  C   LIG    1       -0.352   6.632  -0.517  0.00  0.00    +0.070 A 
ATOM     10  C   LIG    1       -0.586   5.774   0.537  0.00  0.00    +0.100 A 
BRANCH   8  11
ATOM     11  C   LIG    1        0.235   7.073  -2.909  0.00  0.00    +0.000 C 
ATOM     12  N   LIG    1       -0.851   7.955  -3.346  0.00  0.00    -0.050 NA
ATOM     13  N   LIG    1       -0.626   6.988  -4.092  0.00  0.00    -0.050 NA
BRANCH  11  14
ATOM     14  C   LIG    1        1.679   7.547  -3.088  0.00  0.00    +0.500 C 
ATOM     15  F   LIG    1        2.095   8.220  -1.935  0.00  0.00    -0.150 F 
ATOM     16  F   LIG    1        1.754   8.411  -4.186  0.00  0.00    -0.170 F 
ATOM     17  F   LIG    1        2.508   6.441  -3.307  0.00  0.00    -0.150 F 
ENDBRANCH  11  14
ENDBRANCH   8  11
ENDBRANCH   2   5
BRANCH   1  18
ATOM     18  C   LIG    1       -1.104   1.675  -0.137  0.00  0.00    +0.130 C 
ATOM     19  C   LIG    1       -2.204   0.639  -0.428  0.00  0.00    +0.230 C 
ATOM     20  N   LIG    1       -3.028   1.784  -0.872  0.00  0.00    -0.620 NA
ATOM     21  H   LIG    1       -3.532   1.562  -1.718  0.00  0.00    +0.340 HD
ATOM     22  C   LIG    1       -1.811   2.570  -1.171  0.00  0.00    +0.230 C 
BRANCH  18  23
ATOM     23  C   LIG    1        0.273   1.232  -0.557  0.00  0.00    +0.460 C 
ATOM     24  O   LIG    1        0.521   1.060  -1.727  0.00  0.00    -0.490 OA
BRANCH  23  26
ATOM     25  C   LIG    1        2.528   0.604  -0.111  0.00  0.00    +0.280 C 
ATOM     26  O   LIG    1        1.225   1.030   0.367  0.00  0.00    -0.340 OA
ENDBRANCH  23  26
ENDBRANCH  18  23
ENDBRANCH   1  18
TORSDOF 6
