REMARK  Name = ZINCrH000004pjyl.0
REMARK                            x       y       z     vdW  Elec       q    Type
REMARK                         _______ _______ _______ _____ _____    ______ ____
ROOT
ATOM      1  N   LIG    1        3.425   1.736  -0.909  0.00  0.00    -0.740 N 
ATOM      2  H   LIG    1        3.316   2.683  -1.088  0.00  0.00    +0.400 HD
ATOM      3  C   LIG    1        4.436   1.054  -1.482  0.00  0.00    +0.730 C 
ATOM      4  N   LIG    1        5.296   1.688  -2.304  0.00  0.00    -0.620 N 
ATOM      5  C   LIG    1        5.244   3.116  -2.666  0.00  0.00    +0.260 C 
ATOM      6  C   LIG    1        6.698   3.474  -3.068  0.00  0.00    +0.040 C 
ATOM      7  C   LIG    1        7.145   2.179  -3.797  0.00  0.00    +0.060 C 
ATOM      8  C   LIG    1        6.438   1.068  -2.992  0.00  0.00    +0.340 C 
ATOM      9  O   LIG    1        4.573  -0.133  -1.258  0.00  0.00    -0.580 OA
ENDROOT
BRANCH   8  10
ATOM     10  C   LIG    1        5.950  -0.009  -3.926  0.00  0.00    +0.170 A 
ATOM     11  N   LIG    1        4.924   0.067  -4.731  0.00  0.00    -0.280 NA
ATOM     12  N   LIG    1        4.803  -1.035  -5.386  0.00  0.00    -0.290 NA
ATOM     13  C   LIG    1        5.747  -1.859  -5.030  0.00  0.00    +0.180 A 
ATOM     14  C   LIG    1        5.989  -3.249  -5.559  0.00  0.00    +0.150 C 
ATOM     15  C   LIG    1        6.223  -4.199  -4.381  0.00  0.00    +0.030 C 
ATOM     16  C   LIG    1        7.705  -4.213  -4.021  0.00  0.00    +0.020 C 
ATOM     17  C   LIG    1        8.329  -2.840  -4.267  0.00  0.00    +0.030 C 
ATOM     18  C   LIG    1        7.645  -1.796  -3.379  0.00  0.00    +0.280 C 
ATOM     19  N   LIG    1        6.496  -1.235  -4.091  0.00  0.00    -0.460 N 
ENDBRANCH   8  10
BRANCH   1  21
ATOM     20  C   LIG    1        3.071   1.008   1.399  0.00  0.00    +0.040 C 
ATOM     21  C   LIG    1        2.490   1.046  -0.016  0.00  0.00    +0.300 C 
BRANCH  21  22
ATOM     22  C   LIG    1        1.175   1.783   0.000  0.00  0.00    -0.100 A 
ATOM     23  C   LIG    1       -0.013   1.076   0.008  0.00  0.00    +0.060 A 
ATOM     24  C   LIG    1       -1.219   1.750   0.017  0.00  0.00    -0.010 A 
ATOM     25  C   LIG    1       -1.237   3.135   0.030  0.00  0.00    +0.100 A 
ATOM     26  C   LIG    1       -0.047   3.842   0.023  0.00  0.00    -0.010 A 
ATOM     27  F   LIG    1       -2.416   3.795   0.045  0.00  0.00    -0.140 F 
ATOM     28  C   LIG    1        1.158   3.165   0.009  0.00  0.00    +0.050 A 
ENDBRANCH  21  22
ENDBRANCH   1  21
TORSDOF 3
