REMARK  Name = ZINCb70000003X8q.0
REMARK                            x       y       z     vdW  Elec       q    Type
REMARK                         _______ _______ _______ _____ _____    ______ ____
ROOT
ATOM      1  C   LIG    1        3.693   1.385   1.016  0.00  0.00    +0.100 C 
ATOM      2  C   LIG    1        2.237   0.918   1.093  0.00  0.00    -0.430 C 
ATOM      3  C   LIG    1        1.421   1.608  -0.003  0.00  0.00    +0.100 C 
ATOM      4  C   LIG    1       -0.013   1.086   0.008  0.00  0.00    -0.030 C 
ATOM      5  C   LIG    1       -0.753   1.572   1.251  0.00  0.00    +0.070 C 
ATOM      6  C   LIG    1       -0.197   0.878   2.496  0.00  0.00    -0.330 C 
ATOM      7  S   LIG    1        1.542   1.357   2.713  0.00  0.00    +2.420 S 
ATOM      8  O   LIG    1        1.609   2.768   2.870  0.00  0.00    -0.920 OA
ATOM      9  O   LIG    1        2.126   0.517   3.700  0.00  0.00    -0.920 OA
ENDROOT
BRANCH   4  10
ATOM     10  C   LIG    1       -0.742   1.587  -1.240  0.00  0.00    +0.280 C 
BRANCH  10  11
ATOM     11  N   LIG    1       -2.078   0.981  -1.304  0.00  0.00    -0.640 N 
ATOM     12  H   LIG    1       -1.990  -0.024  -1.346  0.00  0.00    +0.440 HD
ATOM     13  H   LIG    1       -2.559   1.311  -2.127  0.00  0.00    +0.440 HD
ATOM     14  H   LIG    1       -2.603   1.238  -0.482  0.00  0.00    +0.430 HD
ENDBRANCH  10  11
ENDBRANCH   4  10
TORSDOF 2
