REMARK  Name = ZINCrH000004ozf1.0
REMARK                            x       y       z     vdW  Elec       q    Type
REMARK                         _______ _______ _______ _____ _____    ______ ____
ROOT
ATOM      1  C   LIG    1        3.634  -1.983   0.237  0.00  0.00    +0.560 C 
ATOM      2  N   LIG    1        3.566  -0.913  -0.580  0.00  0.00    -0.540 N 
ATOM      3  C   LIG    1        2.290  -0.523  -1.194  0.00  0.00    +0.280 C 
ATOM      4  C   LIG    1        2.557  -0.209  -2.672  0.00  0.00    +0.030 C 
ATOM      5  C   LIG    1        3.504   0.987  -2.759  0.00  0.00    +0.090 C 
ATOM      6  C   LIG    1        4.719   0.761  -1.898  0.00  0.00    -0.120 A 
ATOM      7  C   LIG    1        5.862   1.491  -2.156  0.00  0.00    +0.090 A 
ATOM      8  C   LIG    1        7.004   1.308  -1.372  0.00  0.00    -0.050 A 
ATOM      9  C   LIG    1        6.987   0.384  -0.325  0.00  0.00    +0.090 A 
ATOM     10  C   LIG    1        5.846  -0.343  -0.073  0.00  0.00    +0.020 A 
ATOM     11  C   LIG    1        4.709  -0.158  -0.857  0.00  0.00    +0.190 A 
ATOM     12  O   LIG    1        4.713  -2.378   0.633  0.00  0.00    -0.500 OA
ENDROOT
BRANCH   1  15
ATOM     13  C   LIG    1        1.228  -4.632   1.415  0.00  0.00    +0.320 A 
ATOM     14  C   LIG    1        2.417  -4.020   1.032  0.00  0.00    +0.020 A 
ATOM     15  C   LIG    1        2.393  -2.677   0.652  0.00  0.00    -0.070 A 
ATOM     16  C   LIG    1        1.167  -2.003   0.679  0.00  0.00    -0.040 A 
ATOM     17  C   LIG    1        0.032  -2.685   1.067  0.00  0.00    +0.300 A 
ATOM     18  N   LIG    1        0.090  -3.955   1.420  0.00  0.00    -0.500 NA
BRANCH  13  24
ATOM     19  C   LIG    1       -1.498  -8.388   2.835  0.00  0.00    +0.030 C 
ATOM     20  C   LIG    1       -0.097  -7.924   2.434  0.00  0.00    -0.010 C 
ATOM     21  C   LIG    1        0.884  -8.219   3.572  0.00  0.00    +0.010 C 
ATOM     22  C   LIG    1        2.272  -7.697   3.188  0.00  0.00    +0.040 C 
ATOM     23  C   LIG    1        2.184  -6.198   2.893  0.00  0.00    +0.200 C 
ATOM     24  N   LIG    1        1.234  -5.968   1.797  0.00  0.00    -0.480 N 
ATOM     25  C   LIG    1       -0.116  -6.418   2.161  0.00  0.00    +0.210 C 
ENDBRANCH  13  24
ENDBRANCH   1  15
BRANCH   8  26
ATOM     26  C   LIG    1        8.186   2.072  -1.637  0.00  0.00    +0.250 C 
ATOM     27  N   LIG    1        9.124   2.677  -1.848  0.00  0.00    -0.420 NA
ENDBRANCH   8  26
TORSDOF 3
