REMARK  Name = ZINCpe00000zranG.0
REMARK                            x       y       z     vdW  Elec       q    Type
REMARK                         _______ _______ _______ _____ _____    ______ ____
ROOT
ATOM      1  C   LIG    1       -2.243   1.875  -0.703  0.00  0.00    +0.260 C 
ATOM      2  C   LIG    1       -2.268   1.485   0.789  0.00  0.00    +0.050 C 
ATOM      3  C   LIG    1       -0.789   1.611   1.242  0.00  0.00    -0.020 C 
ATOM      4  C   LIG    1       -0.013   1.086   0.008  0.00  0.00    +0.020 C 
ATOM      5  C   LIG    1       -0.809   1.622  -1.200  0.00  0.00    +0.150 C 
ENDROOT
BRANCH   1   8
ATOM      6  O   LIG    1       -3.252   2.970  -2.952  0.00  0.00    -0.520 OA
ATOM      7  C   LIG    1       -3.085   3.740  -2.027  0.00  0.00    +0.610 C 
ATOM      8  N   LIG    1       -2.585   3.292  -0.858  0.00  0.00    -0.710 N 
ATOM      9  H   LIG    1       -2.451   3.906  -0.120  0.00  0.00    +0.410 HD
BRANCH   7  10
ATOM     10  C   LIG    1       -3.429   5.168  -2.183  0.00  0.00    -0.020 A 
ATOM     11  N   LIG    1       -3.300   6.111  -1.269  0.00  0.00    -0.250 NA
ATOM     12  N   LIG    1       -3.692   7.237  -1.737  0.00  0.00    -0.280 N 
ATOM     13  C   LIG    1       -3.712   8.537  -1.050  0.00  0.00    +0.300 C 
ATOM     14  C   LIG    1       -3.852   9.636  -2.109  0.00  0.00    +0.250 C 
ATOM     15  O   LIG    1       -4.921   9.316  -3.003  0.00  0.00    -0.370 OA
ATOM     16  C   LIG    1       -4.640   8.207  -3.870  0.00  0.00    +0.330 C 
ATOM     17  C   LIG    1       -4.111   7.080  -3.020  0.00  0.00    -0.030 A 
ATOM     18  C   LIG    1       -3.955   5.786  -3.345  0.00  0.00    +0.010 A 
ENDBRANCH   7  10
ENDBRANCH   1   8
BRANCH   5  19
ATOM     19  O   LIG    1       -0.819   0.651  -2.249  0.00  0.00    -0.560 OA
ATOM     20  H   LIG    1        0.059   0.433  -2.590  0.00  0.00    +0.380 HD
ENDBRANCH   5  19
BRANCH   3  21
ATOM     21  C   LIG    1       -0.516   0.735   2.466  0.00  0.00    +0.330 C 
BRANCH  21  22
ATOM     22  N   LIG    1        0.888   0.871   2.861  0.00  0.00    -0.360 N 
ATOM     23  C   LIG    1        1.338   1.232   4.082  0.00  0.00    +0.250 A 
ATOM     24  C   LIG    1        2.691   1.236   4.038  0.00  0.00    -0.190 A 
ATOM     25  C   LIG    1        3.080   0.875   2.743  0.00  0.00    +0.250 A 
ATOM     26 CL   LIG    1        3.756   1.628   5.352  0.00  0.00    -0.040 Cl
ATOM     27  N   LIG    1        2.000   0.656   2.037  0.00  0.00    -0.270 NA
ENDBRANCH  21  22
ENDBRANCH   3  21
TORSDOF 5
