REMARK  Name = ZINCrH000004oObN.0
REMARK                            x       y       z     vdW  Elec       q    Type
REMARK                         _______ _______ _______ _____ _____    ______ ____
ROOT
ATOM      1  C   LIG    1        2.869  -3.571   2.188  0.00  0.00    -0.010 C 
ATOM      2  C   LIG    1        1.386  -3.943   2.103  0.00  0.00    +0.040 C 
ATOM      3  C   LIG    1        1.196  -5.018   1.030  0.00  0.00    +0.190 C 
ATOM      4  N   LIG    1        1.998  -6.200   1.370  0.00  0.00    -0.490 N 
ATOM      5  C   LIG    1        3.430  -5.877   1.411  0.00  0.00    +0.200 C 
ATOM      6  C   LIG    1        3.687  -4.829   2.496  0.00  0.00    +0.050 C 
ENDROOT
BRANCH   4   7
ATOM      7  C   LIG    1        1.750  -7.235   0.493  0.00  0.00    +0.400 A 
ATOM      8  N   LIG    1        2.017  -7.111  -0.799  0.00  0.00    -0.550 NA
ATOM      9  C   LIG    1        1.787  -8.098  -1.651  0.00  0.00    +0.510 A 
ATOM     10  N   LIG    1        1.278  -9.251  -1.286  0.00  0.00    -0.500 NA
ATOM     11  C   LIG    1        0.967  -9.481  -0.002  0.00  0.00    +0.130 A 
ATOM     12  C   LIG    1        0.420 -10.702   0.423  0.00  0.00    +0.110 A 
ATOM     13  C   LIG    1        0.121 -10.882   1.743  0.00  0.00    +0.040 A 
ATOM     14  C   LIG    1        0.350  -9.874   2.674  0.00  0.00    +0.040 A 
ATOM     15  C   LIG    1        0.880  -8.675   2.293  0.00  0.00    +0.090 A 
ATOM     16  F   LIG    1        0.190 -11.691  -0.468  0.00  0.00    -0.120 F 
ATOM     17  C   LIG    1        1.198  -8.458   0.948  0.00  0.00    -0.120 A 
ENDBRANCH   4   7
BRANCH   1  18
ATOM     18  C   LIG    1        3.075  -2.542   3.302  0.00  0.00    +0.200 C 
BRANCH  18  22
ATOM     19  C   LIG    1        0.935   0.279   2.712  0.00  0.00    +0.210 A 
ATOM     20  N   LIG    1        2.045   0.638   2.140  0.00  0.00    -0.380 NA
ATOM     21  O   LIG    1        2.880  -0.233   2.260  0.00  0.00    +0.080 OA
ATOM     22  C   LIG    1        2.366  -1.262   2.940  0.00  0.00    +0.180 A 
ATOM     23  N   LIG    1        1.129  -0.944   3.237  0.00  0.00    -0.470 NA
BRANCH  19  27
ATOM     24  C   LIG    1       -0.313   1.024   0.166  0.00  0.00    +0.050 C 
ATOM     25  C   LIG    1       -0.994   1.481   1.458  0.00  0.00    -0.010 C 
ATOM     26  C   LIG    1       -0.277   2.539   2.298  0.00  0.00    +0.060 C 
ATOM     27  C   LIG    1       -0.335   1.088   2.781  0.00  0.00    +0.060 C 
ENDBRANCH  19  27
ENDBRANCH  18  22
ENDBRANCH   1  18
TORSDOF 4
