REMARK  Name = ZINCpe00000MJJM9.0
REMARK                            x       y       z     vdW  Elec       q    Type
REMARK                         _______ _______ _______ _____ _____    ______ ____
ROOT
ATOM      1  N   LIG    1       -1.009   3.579   0.026  0.00  0.00    -0.670 N 
ATOM      2  H   LIG    1       -0.134   3.991   0.099  0.00  0.00    +0.410 HD
ATOM      3  C   LIG    1       -1.123   2.236   0.018  0.00  0.00    +0.710 C 
ATOM      4  N   LIG    1       -0.018   1.466   0.006  0.00  0.00    -0.630 N 
ATOM      5  C   LIG    1        0.003  -0.004  -0.005  0.00  0.00    +0.290 C 
ATOM      6  C   LIG    1        1.482  -0.442   0.004  0.00  0.00    +0.160 C 
ATOM      7  C   LIG    1        2.208   0.798   0.591  0.00  0.00    +0.180 C 
ATOM      8  C   LIG    1        1.372   1.958  -0.005  0.00  0.00    +0.220 C 
ATOM      9  O   LIG    1       -2.224   1.720   0.020  0.00  0.00    -0.520 OA
ENDROOT
BRANCH   1  15
ATOM     10  C   LIG    1       -5.789   3.840  -0.134  0.00  0.00    +0.130 C 
ATOM     11  C   LIG    1       -4.450   4.530  -0.148  0.00  0.00    +0.160 A 
ATOM     12  C   LIG    1       -4.393   5.905  -0.253  0.00  0.00    -0.070 A 
ATOM     13  C   LIG    1       -3.156   6.536  -0.266  0.00  0.00    +0.100 A 
ATOM     14  C   LIG    1       -2.017   5.757  -0.166  0.00  0.00    -0.090 A 
ATOM     15  C   LIG    1       -2.149   4.377  -0.069  0.00  0.00    +0.380 A 
ATOM     16  N   LIG    1       -3.346   3.812  -0.060  0.00  0.00    -0.470 NA
ENDBRANCH   1  15
BRANCH   7  17
ATOM     17  O   LIG    1        2.145   0.800   2.018  0.00  0.00    -0.530 OA
ATOM     18  H   LIG    1        2.586   1.556   2.430  0.00  0.00    +0.380 HD
ENDBRANCH   7  17
BRANCH   6  19
ATOM     19  N   LIG    1        1.672  -1.613   0.870  0.00  0.00    -0.510 NA
ATOM     20  C   LIG    1        3.096  -1.958   0.986  0.00  0.00    +0.200 C 
BRANCH  19  21
ATOM     21  C   LIG    1        0.891  -2.759   0.385  0.00  0.00    +0.340 C 
BRANCH  21  22
ATOM     22  C   LIG    1        0.912  -3.855   1.419  0.00  0.00    +0.170 A 
ATOM     23  N   LIG    1        0.063  -4.012   2.394  0.00  0.00    -0.260 NA
ATOM     24  N   LIG    1        0.385  -5.053   3.078  0.00  0.00    -0.290 NA
ATOM     25  C   LIG    1        1.456  -5.592   2.567  0.00  0.00    +0.160 A 
ATOM     26  C   LIG    1        2.163  -6.823   3.072  0.00  0.00    +0.240 C 
ATOM     27  O   LIG    1        1.814  -4.847   1.507  0.00  0.00    -0.230 OA
ENDBRANCH  21  22
ENDBRANCH  19  21
ENDBRANCH   6  19
TORSDOF 5
