REMARK  Name = ZINCrg00001JduV0.0
REMARK                            x       y       z     vdW  Elec       q    Type
REMARK                         _______ _______ _______ _____ _____    ______ ____
ROOT
ATOM      1  C   LIG    1        2.760  -3.993  -4.345  0.00  0.00    +0.250 C 
ENDROOT
BRANCH   1   2
ATOM      2  C   LIG    1        2.273  -5.384  -4.029  0.00  0.00    +0.530 C 
ATOM      3  N   LIG    1        1.005  -5.736  -4.321  0.00  0.00    -0.610 N 
ATOM      4  C   LIG    1        0.099  -4.818  -5.030  0.00  0.00    +0.280 C 
ATOM      5  C   LIG    1       -0.307  -5.482  -6.353  0.00  0.00    +0.250 C 
ATOM      6  N   LIG    1       -0.701  -6.867  -6.135  0.00  0.00    -0.720 N 
ATOM      7  H   LIG    1       -1.271  -7.284  -6.800  0.00  0.00    +0.400 HD
ATOM      8  C   LIG    1       -0.332  -7.603  -5.085  0.00  0.00    +0.510 C 
ATOM      9  O   LIG    1       -0.659  -8.770  -5.053  0.00  0.00    -0.540 OA
ATOM     10  C   LIG    1        0.469  -7.051  -3.938  0.00  0.00    +0.240 C 
ATOM     11  C   LIG    1        1.625  -8.001  -3.616  0.00  0.00    +0.100 C 
ATOM     12  O   LIG    1        3.022  -6.186  -3.513  0.00  0.00    -0.510 OA
ENDBRANCH   1   2
BRANCH   1  14
ATOM     13  C   LIG    1        3.795  -2.208  -3.049  0.00  0.00    +0.530 C 
ATOM     14  N   LIG    1        3.641  -3.529  -3.271  0.00  0.00    -0.710 N 
ATOM     15  H   LIG    1        4.113  -4.171  -2.719  0.00  0.00    +0.410 HD
ATOM     16  O   LIG    1        3.204  -1.404  -3.740  0.00  0.00    -0.510 OA
BRANCH  13  17
ATOM     17  C   LIG    1        4.701  -1.730  -1.944  0.00  0.00    +0.170 C 
BRANCH  17  21
ATOM     18  N   LIG    1        4.203   1.867  -1.453  0.00  0.00    -0.360 N 
ATOM     19  C   LIG    1        5.243   1.896  -2.314  0.00  0.00    +0.280 A 
ATOM     20  C   LIG    1        5.568   0.616  -2.611  0.00  0.00    -0.230 A 
ATOM     21  C   LIG    1        4.697  -0.223  -1.908  0.00  0.00    +0.120 A 
ATOM     22 BR   LIG    1        6.953   0.061  -3.773  0.00  0.00    -0.020 Br
ATOM     23  N   LIG    1        3.880   0.525  -1.213  0.00  0.00    -0.270 NA
BRANCH  18  25
ATOM     24  C   LIG    1        2.031   2.955  -1.174  0.00  0.00    +0.040 C 
ATOM     25  C   LIG    1        3.529   3.033  -0.875  0.00  0.00    +0.320 C 
ENDBRANCH  18  25
ENDBRANCH  17  21
ENDBRANCH  13  17
ENDBRANCH   1  14
BRANCH   1  26
ATOM     26  C   LIG    1        3.533  -4.011  -5.666  0.00  0.00    -0.070 C 
ATOM     27  C   LIG    1        3.902  -2.579  -6.060  0.00  0.00    +0.050 C 
ATOM     28  C   LIG    1        2.660  -4.632  -6.759  0.00  0.00    +0.030 C 
ATOM     29  C   LIG    1        4.808  -4.839  -5.500  0.00  0.00    +0.040 C 
ENDBRANCH   1  26
TORSDOF 6
