REMARK  Name = ZINCqH0000036kfV.0
REMARK                            x       y       z     vdW  Elec       q    Type
REMARK                         _______ _______ _______ _____ _____    ______ ____
ROOT
ATOM      1  C   LIG    1       -0.729   1.579   1.267  0.00  0.00    +0.310 C 
ATOM      2  C   LIG    1       -0.013   1.086   0.008  0.00  0.00    +0.040 C 
ENDROOT
BRANCH   1   9
ATOM      3  C   LIG    1       -5.813  -0.763   0.798  0.00  0.00    +0.130 A 
ATOM      4  C   LIG    1       -6.739  -0.260  -0.101  0.00  0.00    -0.080 A 
ATOM      5  C   LIG    1       -6.386   0.777  -0.942  0.00  0.00    +0.050 A 
ATOM      6  C   LIG    1       -5.112   1.307  -0.884  0.00  0.00    -0.030 A 
ATOM      7  C   LIG    1       -4.181   0.806   0.014  0.00  0.00    -0.040 A 
ATOM      8  C   LIG    1       -2.804   1.417   0.035  0.00  0.00    +0.250 C 
ATOM      9  N   LIG    1       -2.107   1.071   1.277  0.00  0.00    -0.530 NA
ATOM     10  C   LIG    1       -2.130  -0.386   1.486  0.00  0.00    +0.190 C 
ATOM     11  C   LIG    1       -3.556  -0.800   1.853  0.00  0.00    +0.100 C 
ATOM     12  C   LIG    1       -4.530  -0.227   0.856  0.00  0.00    -0.100 A 
BRANCH   3  14
ATOM     13  C   LIG    1       -7.491  -2.288   1.515  0.00  0.00    +0.250 C 
ATOM     14  O   LIG    1       -6.158  -1.784   1.627  0.00  0.00    -0.310 OA
ENDBRANCH   3  14
ENDBRANCH   1   9
BRANCH   1  15
ATOM     15  C   LIG    1       -0.749   3.086   1.275  0.00  0.00    +0.200 A 
ATOM     16  N   LIG    1       -0.012   3.873   2.021  0.00  0.00    -0.470 NA
ATOM     17  C   LIG    1       -0.369   5.126   1.688  0.00  0.00    +0.180 A 
ATOM     18  N   LIG    1       -1.294   5.039   0.779  0.00  0.00    -0.380 NA
ATOM     19  O   LIG    1       -1.527   3.876   0.528  0.00  0.00    +0.080 OA
BRANCH  17  20
ATOM     20  C   LIG    1        0.196   6.398   2.267  0.00  0.00    +0.220 C 
BRANCH  20  21
ATOM     21  C   LIG    1       -0.611   6.802   3.474  0.00  0.00    -0.090 A 
ATOM     22  C   LIG    1       -1.705   7.635   3.326  0.00  0.00    +0.010 A 
ATOM     23  C   LIG    1       -2.448   8.002   4.433  0.00  0.00    +0.000 A 
ATOM     24  C   LIG    1       -2.091   7.545   5.688  0.00  0.00    +0.000 A 
ATOM     25  C   LIG    1       -0.994   6.717   5.836  0.00  0.00    +0.000 A 
ATOM     26  C   LIG    1       -0.254   6.346   4.729  0.00  0.00    +0.030 A 
ENDBRANCH  20  21
ENDBRANCH  17  20
ENDBRANCH   1  15
TORSDOF 5
