REMARK  Name = ZINCrH000004pAf8.1
REMARK                            x       y       z     vdW  Elec       q    Type
REMARK                         _______ _______ _______ _____ _____    ______ ____
ROOT
ATOM      1  N   LIG    1        3.477   1.791   0.771  0.00  0.00    -0.610 N 
ATOM      2  C   LIG    1        4.229   1.142   1.681  0.00  0.00    +0.520 C 
ATOM      3  O   LIG    1        4.000  -0.021   1.938  0.00  0.00    -0.510 OA
ATOM      4  C   LIG    1        3.753   3.196   0.460  0.00  0.00    +0.280 C 
ENDROOT
BRANCH   1   6
ATOM      5  C   LIG    1        2.554   1.224  -1.422  0.00  0.00    +0.040 C 
ATOM      6  C   LIG    1        2.382   1.092   0.093  0.00  0.00    +0.290 C 
BRANCH   6   7
ATOM      7  C   LIG    1        1.066   1.701   0.503  0.00  0.00    -0.080 A 
ATOM      8  C   LIG    1        0.855   3.058   0.347  0.00  0.00    +0.040 A 
ATOM      9  C   LIG    1       -0.351   3.619   0.724  0.00  0.00    +0.030 A 
ATOM     10  C   LIG    1       -1.349   2.822   1.257  0.00  0.00    +0.070 A 
ATOM     11  C   LIG    1       -1.139   1.460   1.408  0.00  0.00    +0.070 A 
ATOM     12  F   LIG    1       -2.114   0.678   1.923  0.00  0.00    -0.130 F 
ATOM     13  F   LIG    1       -2.528   3.370   1.625  0.00  0.00    -0.130 F 
ATOM     14  C   LIG    1        0.071   0.902   1.036  0.00  0.00    +0.040 A 
ENDBRANCH   6   7
ENDBRANCH   1   6
BRANCH   2  15
ATOM     15  C   LIG    1        5.355   1.861   2.378  0.00  0.00    +0.210 C 
BRANCH  15  16
ATOM     16  N   LIG    1        6.017   0.942   3.315  0.00  0.00    -0.520 NA
ATOM     17  C   LIG    1        5.111   0.560   4.405  0.00  0.00    +0.180 C 
ATOM     18  C   LIG    1        5.780  -0.505   5.277  0.00  0.00    +0.050 C 
ATOM     19  C   LIG    1        7.086   0.055   5.846  0.00  0.00    +0.030 C 
ATOM     20  C   LIG    1        7.992   0.491   4.691  0.00  0.00    +0.040 C 
ATOM     21  C   LIG    1        7.258   1.527   3.837  0.00  0.00    +0.180 C 
BRANCH  19  22
ATOM     22  C   LIG    1        7.780  -1.009   6.657  0.00  0.00    -0.030 A 
ATOM     23  C   LIG    1        8.157  -2.210   6.076  0.00  0.00    -0.030 A 
ATOM     24  C   LIG    1        8.796  -3.161   6.850  0.00  0.00    +0.260 A 
ATOM     25  N   LIG    1        9.038  -2.940   8.127  0.00  0.00    -0.490 NA
ATOM     26  C   LIG    1        8.689  -1.811   8.713  0.00  0.00    +0.250 A 
ATOM     27  C   LIG    1        8.052  -0.812   8.002  0.00  0.00    -0.040 A 
ENDBRANCH  19  22
ENDBRANCH  15  16
ENDBRANCH   2  15
TORSDOF 5
