REMARK  Name = ZINCpk00000FfeEn.0
REMARK                            x       y       z     vdW  Elec       q    Type
REMARK                         _______ _______ _______ _____ _____    ______ ____
ROOT
ATOM      1  N   LIG    1        4.111   4.225   2.723  0.00  0.00    -0.730 N 
ATOM      2  H   LIG    1        3.609   4.976   2.368  0.00  0.00    +0.400 HD
ATOM      3  C   LIG    1        5.409   4.378   3.053  0.00  0.00    +0.550 C 
ATOM      4  O   LIG    1        6.037   3.437   3.498  0.00  0.00    -0.500 OA
ENDROOT
BRANCH   3   5
ATOM      5  C   LIG    1        6.067   5.686   2.873  0.00  0.00    -0.170 A 
ATOM      6  C   LIG    1        5.348   6.769   2.362  0.00  0.00    +0.080 A 
ATOM      7  C   LIG    1        5.969   7.989   2.197  0.00  0.00    -0.030 A 
ATOM      8  C   LIG    1        7.303   8.146   2.535  0.00  0.00    +0.080 A 
ATOM      9  C   LIG    1        8.025   7.083   3.042  0.00  0.00    -0.080 A 
ATOM     10  C   LIG    1        7.415   5.851   3.220  0.00  0.00    +0.180 A 
BRANCH  10  11
ATOM     11  O   LIG    1        8.121   4.807   3.723  0.00  0.00    -0.250 OA
BRANCH  11  12
ATOM     12  C   LIG    1        9.490   5.050   4.054  0.00  0.00    +0.230 C 
BRANCH  12  13
ATOM     13  C   LIG    1       10.108   3.786   4.594  0.00  0.00    +0.520 C 
ATOM     14  O   LIG    1        9.442   2.777   4.686  0.00  0.00    -0.500 OA
ATOM     15  N   LIG    1       11.401   3.777   4.974  0.00  0.00    -0.850 N 
ATOM     16  H   LIG    1       11.799   2.964   5.322  0.00  0.00    +0.410 HD
ATOM     17  H   LIG    1       11.934   4.585   4.900  0.00  0.00    +0.400 HD
ENDBRANCH  12  13
ENDBRANCH  11  12
ENDBRANCH  10  11
ENDBRANCH   3   5
BRANCH   1  18
ATOM     18  C   LIG    1        3.458   2.926   2.901  0.00  0.00    +0.270 C 
BRANCH  18  19
ATOM     19  C   LIG    1        1.998   3.024   2.454  0.00  0.00    -0.030 C 
ATOM     20  C   LIG    1        1.942   3.302   0.951  0.00  0.00    +0.020 C 
BRANCH  19  21
ATOM     21  C   LIG    1        1.283   1.705   2.756  0.00  0.00    +0.340 C 
BRANCH  21  28
ATOM     22  C   LIG    1       -0.013   1.086   0.008  0.00  0.00    +0.140 C 
ATOM     23  C   LIG    1       -0.718   1.572   1.248  0.00  0.00    +0.090 A 
ATOM     24  C   LIG    1       -2.042   1.825   1.365  0.00  0.00    -0.120 A 
ATOM     25  C   LIG    1       -2.284   2.253   2.675  0.00  0.00    +0.070 A 
ATOM     26  N   LIG    1       -1.145   2.264   3.318  0.00  0.00    -0.300 NA
ATOM     27  C   LIG    1       -3.625   2.639   3.244  0.00  0.00    +0.160 C 
ATOM     28  N   LIG    1       -0.141   1.838   2.438  0.00  0.00    -0.370 N 
ENDBRANCH  21  28
ENDBRANCH  19  21
ENDBRANCH  18  19
ENDBRANCH   1  18
TORSDOF 8
