REMARK  Name = ZINCrH000004t5OS.0
REMARK                            x       y       z     vdW  Elec       q    Type
REMARK                         _______ _______ _______ _____ _____    ______ ____
ROOT
ATOM      1  N   LIG    1        0.886  -2.607  -0.998  0.00  0.00    -0.730 N 
ATOM      2  H   LIG    1        0.099  -3.094  -0.707  0.00  0.00    +0.400 HD
ATOM      3  C   LIG    1        1.245  -2.620  -2.297  0.00  0.00    +0.710 C 
ATOM      4  N   LIG    1        0.510  -3.309  -3.192  0.00  0.00    -0.740 N 
ATOM      5  H   LIG    1       -0.277  -3.796  -2.901  0.00  0.00    +0.400 HD
ATOM      6  O   LIG    1        2.231  -2.009  -2.661  0.00  0.00    -0.580 OA
ENDROOT
BRANCH   1   7
ATOM      7  C   LIG    1        1.685  -1.857  -0.024  0.00  0.00    +0.410 C 
BRANCH   7   8
ATOM      8  C   LIG    1        1.495  -2.454   1.347  0.00  0.00    -0.070 A 
ATOM      9  C   LIG    1        2.574  -2.574   2.203  0.00  0.00    +0.010 A 
ATOM     10  C   LIG    1        2.401  -3.120   3.461  0.00  0.00    +0.050 A 
ATOM     11  C   LIG    1        1.150  -3.547   3.864  0.00  0.00    -0.010 A 
ATOM     12  C   LIG    1        0.069  -3.427   3.007  0.00  0.00    +0.100 A 
ATOM     13  F   LIG    1       -1.155  -3.843   3.400  0.00  0.00    -0.140 F 
ATOM     14  C   LIG    1        0.242  -2.875   1.750  0.00  0.00    +0.010 A 
ENDBRANCH   7   8
BRANCH   7  20
ATOM     15  C   LIG    1        3.521   0.638  -0.029  0.00  0.00    +0.320 C 
ATOM     16  N   LIG    1        2.056   0.658  -0.014  0.00  0.00    -0.450 N 
ATOM     17  C   LIG    1        1.259   1.771  -0.000  0.00  0.00    +0.130 A 
ATOM     18  C   LIG    1       -0.016   1.337   0.009  0.00  0.00    +0.140 A 
ATOM     19  N   LIG    1        0.002  -0.004   0.002  0.00  0.00    -0.470 NA
ATOM     20  C   LIG    1        1.240  -0.418  -0.012  0.00  0.00    +0.190 A 
ENDBRANCH   7  20
ENDBRANCH   1   7
BRANCH   4  21
ATOM     21  C   LIG    1        0.900  -3.323  -4.604  0.00  0.00    +0.320 C 
BRANCH  21  22
ATOM     22  C   LIG    1       -0.094  -4.172  -5.399  0.00  0.00    +0.070 C 
BRANCH  22  23
ATOM     23  S   LIG    1        0.389  -4.189  -7.148  0.00  0.00    -0.090 S 
BRANCH  23  24
ATOM     24  C   LIG    1       -0.850  -5.198  -7.891  0.00  0.00    -0.090 A 
ATOM     25  C   LIG    1       -1.860  -5.748  -7.111  0.00  0.00    -0.010 A 
ATOM     26  C   LIG    1       -2.832  -6.534  -7.698  0.00  0.00    +0.030 A 
ATOM     27  C   LIG    1       -2.796  -6.782  -9.058  0.00  0.00    +0.010 A 
ATOM     28  C   LIG    1       -1.789  -6.240  -9.836  0.00  0.00    +0.030 A 
ATOM     29  C   LIG    1       -0.816  -5.449  -9.257  0.00  0.00    +0.030 A 
ENDBRANCH  23  24
ENDBRANCH  22  23
ENDBRANCH  21  22
ENDBRANCH   4  21
TORSDOF 7
