REMARK  Name = ZINCqH0000006jCi.0
REMARK                            x       y       z     vdW  Elec       q    Type
REMARK                         _______ _______ _______ _____ _____    ______ ____
ROOT
ATOM      1  N   LIG    1       -4.800   3.770  -0.135  0.00  0.00    -0.640 N 
ATOM      2  H   LIG    1       -4.819   4.740  -0.129  0.00  0.00    +0.410 HD
ATOM      3  C   LIG    1       -3.623   3.118  -0.048  0.00  0.00    +0.720 C 
ATOM      4  N   LIG    1       -2.473   3.814   0.046  0.00  0.00    -0.680 N 
ATOM      5  H   LIG    1       -2.496   4.780   0.130  0.00  0.00    +0.410 HD
ATOM      6  O   LIG    1       -3.600   1.902  -0.055  0.00  0.00    -0.540 OA
ENDROOT
BRANCH   4   7
ATOM      7  C   LIG    1       -1.244   3.142   0.024  0.00  0.00    +0.170 A 
ATOM      8  C   LIG    1       -1.098   1.989  -0.742  0.00  0.00    +0.070 A 
ATOM      9  C   LIG    1        0.105   1.315  -0.768  0.00  0.00    +0.070 A 
ATOM     10  C   LIG    1        1.181   1.792  -0.036  0.00  0.00    -0.000 A 
ATOM     11  O   LIG    1        2.455   1.374   0.138  0.00  0.00    -0.210 OA
ATOM     12  C   LIG    1        3.068   2.232   0.968  0.00  0.00    +0.290 A 
ATOM     13  N   LIG    1        2.248   3.173   1.330  0.00  0.00    -0.480 NA
ATOM     14  C   LIG    1        1.043   2.957   0.735  0.00  0.00    +0.050 A 
ATOM     15  C   LIG    1       -0.179   3.630   0.760  0.00  0.00    +0.050 A 
BRANCH  12  16
ATOM     16  C   LIG    1        4.503   2.121   1.417  0.00  0.00    +0.070 C 
ATOM     17  C   LIG    1        5.376   1.066   0.735  0.00  0.00    +0.060 C 
ATOM     18  C   LIG    1        4.909   0.857   2.177  0.00  0.00    +0.060 C 
ENDBRANCH  12  16
ENDBRANCH   4   7
BRANCH   1  22
ATOM     19  N   LIG    1       -8.119   2.502  -0.403  0.00  0.00    -0.360 N 
ATOM     20  C   LIG    1       -7.428   1.343  -0.357  0.00  0.00    +0.250 A 
ATOM     21  C   LIG    1       -6.114   1.647  -0.258  0.00  0.00    -0.080 A 
ATOM     22  C   LIG    1       -5.996   3.046  -0.233  0.00  0.00    +0.310 A 
ATOM     23  N   LIG    1       -7.201   3.557  -0.324  0.00  0.00    -0.320 NA
BRANCH  19  24
ATOM     24  C   LIG    1       -9.574   2.633  -0.516  0.00  0.00    +0.280 C 
ATOM     25  C   LIG    1      -10.250   1.496   0.252  0.00  0.00    +0.070 C 
BRANCH  24  26
ATOM     26  C   LIG    1       -9.979   2.564  -1.990  0.00  0.00    +0.170 C 
BRANCH  26  28
ATOM     27  C   LIG    1      -11.865   2.766  -3.455  0.00  0.00    +0.200 C 
ATOM     28  O   LIG    1      -11.381   2.808  -2.111  0.00  0.00    -0.390 OA
ENDBRANCH  26  28
ENDBRANCH  24  26
ENDBRANCH  19  24
ENDBRANCH   1  22
TORSDOF 6
