REMARK  Name = ZINCpk00001AZj2e.0
REMARK                            x       y       z     vdW  Elec       q    Type
REMARK                         _______ _______ _______ _____ _____    ______ ____
ROOT
ATOM      1  C   LIG    1       -2.564   3.696  -0.106  0.00  0.00    +0.240 C 
ATOM      2  C   LIG    1       -3.696   2.957   0.026  0.00  0.00    -0.290 A 
ATOM      3  S   LIG    1       -3.836   1.190   0.099  0.00  0.00    +0.150 S 
ATOM      4  C   LIG    1       -5.600   1.189   0.265  0.00  0.00    +0.170 A 
ATOM      5  N   LIG    1       -5.996   2.497   0.258  0.00  0.00    -0.650 N 
ATOM      6  H   LIG    1       -6.934   2.730   0.338  0.00  0.00    +0.420 HD
ATOM      7  C   LIG    1       -6.415   0.084   0.379  0.00  0.00    -0.130 C 
ATOM      8  C   LIG    1       -5.075   3.440   0.145  0.00  0.00    +0.560 A 
ATOM      9  O   LIG    1       -5.353   4.625   0.138  0.00  0.00    -0.480 OA
ENDROOT
BRANCH   1  13
ATOM     10  C   LIG    1        1.145   1.782  -0.851  0.00  0.00    +0.170 A 
ATOM     11  C   LIG    1       -0.046   1.125  -1.146  0.00  0.00    +0.000 A 
ATOM     12  C   LIG    1       -1.252   1.744  -0.910  0.00  0.00    +0.070 A 
ATOM     13  C   LIG    1       -1.280   3.034  -0.363  0.00  0.00    -0.110 A 
ATOM     14  C   LIG    1       -0.079   3.691  -0.069  0.00  0.00    +0.080 A 
ATOM     15  C   LIG    1        1.123   3.065  -0.312  0.00  0.00    +0.020 A 
BRANCH  10  18
ATOM     16  C   LIG    1        4.704   1.183  -1.905  0.00  0.00    +0.110 C 
ATOM     17  C   LIG    1        3.427   1.877  -1.505  0.00  0.00    +0.510 C 
ATOM     18  N   LIG    1        2.366   1.153  -1.097  0.00  0.00    -0.680 N 
ATOM     19  H   LIG    1        2.451   0.194  -0.975  0.00  0.00    +0.420 HD
ATOM     20  O   LIG    1        3.355   3.087  -1.550  0.00  0.00    -0.520 OA
ENDBRANCH  10  18
ENDBRANCH   1  13
BRANCH   7  21
ATOM     21  C   LIG    1       -5.857  -1.204   0.370  0.00  0.00    +0.470 C 
ATOM     22  O   LIG    1       -4.649  -1.345   0.262  0.00  0.00    -0.450 OA
BRANCH  21  23
ATOM     23  C   LIG    1       -6.727  -2.384   0.492  0.00  0.00    -0.090 A 
ATOM     24  C   LIG    1       -6.317  -3.685   0.492  0.00  0.00    +0.030 A 
ATOM     25  C   LIG    1       -7.472  -4.473   0.633  0.00  0.00    -0.070 A 
ATOM     26  C   LIG    1       -8.523  -3.627   0.702  0.00  0.00    +0.210 A 
ATOM     27  O   LIG    1       -8.069  -2.369   0.617  0.00  0.00    -0.160 OA
ENDBRANCH  21  23
ENDBRANCH   7  21
TORSDOF 4
