REMARK  Name = ZINCrH000004oXNl.0
REMARK                            x       y       z     vdW  Elec       q    Type
REMARK                         _______ _______ _______ _____ _____    ______ ____
ROOT
ATOM      1  C   LIG    1       -1.292   1.928   0.019  0.00  0.00    -0.260 A 
ATOM      2  C   LIG    1       -2.525   1.337   0.021  0.00  0.00    +0.120 A 
ATOM      3  C   LIG    1       -3.578   2.211   0.032  0.00  0.00    +0.010 A 
ATOM      4  C   LIG    1       -3.227   3.530   0.038  0.00  0.00    -0.120 A 
ATOM      5  S   LIG    1       -1.474   3.677   0.037  0.00  0.00    +0.170 S 
ENDROOT
BRANCH   4   6
ATOM      6  C   LIG    1       -4.175   4.662   0.049  0.00  0.00    -0.040 A 
ATOM      7  C   LIG    1       -5.551   4.423   0.048  0.00  0.00    +0.090 A 
ATOM      8  C   LIG    1       -6.433   5.482   0.063  0.00  0.00    -0.040 A 
ATOM      9  C   LIG    1       -5.955   6.786   0.069  0.00  0.00    +0.110 A 
ATOM     10  C   LIG    1       -4.587   7.028   0.064  0.00  0.00    +0.040 A 
ATOM     11  C   LIG    1       -3.699   5.975   0.054  0.00  0.00    +0.070 A 
BRANCH   9  12
ATOM     12  O   LIG    1       -6.827   7.827   0.079  0.00  0.00    -0.310 OA
BRANCH  12  13
ATOM     13  C   LIG    1       -8.219   7.507   0.083  0.00  0.00    +0.600 C 
ATOM     14  F   LIG    1       -8.531   6.767  -1.062  0.00  0.00    -0.160 F 
ATOM     15  F   LIG    1       -8.969   8.688   0.093  0.00  0.00    -0.130 F 
ATOM     16  F   LIG    1       -8.521   6.753   1.222  0.00  0.00    -0.160 F 
ENDBRANCH  12  13
ENDBRANCH   9  12
ENDBRANCH   4   6
BRANCH   1  19
ATOM     17  N   LIG    1        1.143   1.903   0.001  0.00  0.00    -0.730 N 
ATOM     18  H   LIG    1        1.130   2.873   0.007  0.00  0.00    +0.400 HD
ATOM     19  C   LIG    1       -0.014   1.213   0.009  0.00  0.00    +0.590 C 
ATOM     20  O   LIG    1        0.002  -0.004   0.002  0.00  0.00    -0.520 OA
BRANCH  17  21
ATOM     21  C   LIG    1        2.422   1.188  -0.015  0.00  0.00    +0.290 C 
BRANCH  21  23
ATOM     22  C   LIG    1        3.456   3.123  -1.233  0.00  0.00    +0.050 C 
ATOM     23  C   LIG    1        3.571   2.198  -0.020  0.00  0.00    +0.140 C 
ATOM     24  C   LIG    1        4.929   1.462  -0.037  0.00  0.00    +0.070 C 
ATOM     25  C   LIG    1        5.801   2.389   0.840  0.00  0.00    +0.060 C 
ATOM     26  C   LIG    1        4.806   3.109   1.723  0.00  0.00    +0.520 C 
ATOM     27  O   LIG    1        5.086   3.713   2.737  0.00  0.00    -0.530 OA
ATOM     28  N   LIG    1        3.565   2.980   1.221  0.00  0.00    -0.730 N 
ATOM     29  H   LIG    1        2.769   3.357   1.627  0.00  0.00    +0.410 HD
ENDBRANCH  21  23
ENDBRANCH  17  21
ENDBRANCH   1  19
TORSDOF 6
