REMARK  Name = ZINCkj00000GeR1T.1
REMARK                            x       y       z     vdW  Elec       q    Type
REMARK                         _______ _______ _______ _____ _____    ______ ____
ROOT
ATOM      1  N   LIG    1       -0.854   1.568  -1.264  0.00  0.00    -0.380 N 
ATOM      2  C   LIG    1       -0.865   3.037  -1.244  0.00  0.00    +0.280 C 
ATOM      3  C   LIG    1       -1.458   3.561  -2.554  0.00  0.00    +0.200 C 
ATOM      4  N   LIG    1       -0.651   3.075  -3.682  0.00  0.00    -0.530 NA
ATOM      5  C   LIG    1       -0.609   1.606  -3.700  0.00  0.00    +0.230 C 
ATOM      6  C   LIG    1       -0.024   1.099  -2.381  0.00  0.00    +0.180 C 
ATOM      7  H   LIG    1       -1.796   1.227  -1.378  0.00  0.00    +0.430 HD
ENDROOT
BRANCH   6   8
ATOM      8  C   LIG    1        0.002  -0.431  -2.389  0.00  0.00    +0.030 C 
ATOM      9  C   LIG    1        0.926  -0.919  -3.506  0.00  0.00    +0.060 C 
ENDBRANCH   6   8
BRANCH   1  10
ATOM     10  C   LIG    1       -0.302   1.066   0.001  0.00  0.00    +0.270 C 
BRANCH  10  11
ATOM     11  C   LIG    1       -1.241   1.437   1.151  0.00  0.00    +0.200 C 
BRANCH  11  12
ATOM     12  O   LIG    1       -2.487   0.757   0.986  0.00  0.00    -0.400 OA
BRANCH  12  14
ATOM     13  C   LIG    1       -4.730   0.258   1.735  0.00  0.00    +0.050 C 
ATOM     14  C   LIG    1       -3.442   1.035   2.012  0.00  0.00    +0.180 C 
ENDBRANCH  12  14
ENDBRANCH  11  12
ENDBRANCH  10  11
ENDBRANCH   1  10
BRANCH   4  15
ATOM     15  C   LIG    1       -1.155   3.604  -4.956  0.00  0.00    +0.380 C 
BRANCH  15  16
ATOM     16  C   LIG    1       -1.415   5.082  -4.819  0.00  0.00    +0.160 A 
ATOM     17  N   LIG    1       -0.563   6.050  -5.055  0.00  0.00    -0.450 NA
ATOM     18  C   LIG    1       -1.231   7.190  -4.800  0.00  0.00    +0.180 A 
ATOM     19  N   LIG    1       -2.433   6.863  -4.430  0.00  0.00    -0.370 NA
ATOM     20  C   LIG    1       -0.685   8.589  -4.923  0.00  0.00    +0.220 C 
ATOM     21  O   LIG    1       -2.561   5.657  -4.439  0.00  0.00    +0.080 OA
ENDBRANCH  15  16
ENDBRANCH   4  15
TORSDOF 7
