REMARK  Name = ZINCvU0000000C8n.0
REMARK                            x       y       z     vdW  Elec       q    Type
REMARK                         _______ _______ _______ _____ _____    ______ ____
ROOT
ATOM      1  C   LIG    1       13.432   0.261  -3.715  0.00  0.00    +0.180 C 
ATOM      2  C   LIG    1       12.661   1.276  -2.912  0.00  0.00    +0.150 A 
ATOM      3  N   LIG    1       13.052   2.485  -2.642  0.00  0.00    -0.250 NA
ATOM      4  N   LIG    1       12.076   3.130  -1.877  0.00  0.00    -0.300 N 
ATOM      5  C   LIG    1       11.042   2.253  -1.680  0.00  0.00    +0.020 A 
ATOM      6  S   LIG    1        9.466   2.094  -0.916  0.00  0.00    +0.260 S 
ATOM      7  C   LIG    1        9.308   0.439  -1.483  0.00  0.00    -0.270 A 
ATOM      8  C   LIG    1       10.394   0.080  -2.186  0.00  0.00    +0.200 A 
ATOM      9  C   LIG    1       11.375   1.070  -2.319  0.00  0.00    -0.220 A 
ENDROOT
BRANCH   4  10
ATOM     10  C   LIG    1       12.143   4.445  -1.397  0.00  0.00    +0.160 A 
ATOM     11  C   LIG    1       10.991   5.217  -1.320  0.00  0.00    +0.020 A 
ATOM     12  C   LIG    1       11.058   6.510  -0.841  0.00  0.00    +0.070 A 
ATOM     13  C   LIG    1       12.274   7.041  -0.448  0.00  0.00    -0.040 A 
ATOM     14  C   LIG    1       13.425   6.276  -0.528  0.00  0.00    +0.060 A 
ATOM     15 CL   LIG    1       12.357   8.669   0.148  0.00  0.00    -0.050 Cl
ATOM     16  C   LIG    1       13.361   4.980  -1.002  0.00  0.00    +0.060 A 
ENDBRANCH   4  10
BRANCH   7  17
ATOM     17  C   LIG    1        8.158  -0.428  -1.220  0.00  0.00    +0.550 C 
ATOM     18  O   LIG    1        8.140  -1.563  -1.657  0.00  0.00    -0.490 OA
BRANCH  17  19
ATOM     19  O   LIG    1        7.118   0.033  -0.495  0.00  0.00    -0.330 OA
BRANCH  19  20
ATOM     20  C   LIG    1        6.012  -0.882  -0.274  0.00  0.00    +0.200 C 
ATOM     21  C   LIG    1        6.256  -1.677   1.010  0.00  0.00    +0.080 C 
BRANCH  20  22
ATOM     22  C   LIG    1        4.731  -0.099  -0.145  0.00  0.00    +0.520 C 
ATOM     23  N   LIG    1        3.554  -0.747  -0.035  0.00  0.00    -0.660 N 
ATOM     24  H   LIG    1        3.537  -1.713   0.042  0.00  0.00    +0.420 HD
ATOM     25  O   LIG    1        4.759   1.113  -0.139  0.00  0.00    -0.490 OA
BRANCH  23  26
ATOM     26  C   LIG    1        2.355  -0.023  -0.033  0.00  0.00    +0.120 A 
ATOM     27  C   LIG    1        2.286   1.232  -0.630  0.00  0.00    +0.090 A 
ATOM     28  C   LIG    1        1.077   1.909  -0.601  0.00  0.00    +0.010 A 
ATOM     29  C   LIG    1       -0.012   1.322   0.014  0.00  0.00    +0.270 A 
ATOM     30  N   LIG    1        0.085   0.130   0.571  0.00  0.00    -0.450 NA
ATOM     31  C   LIG    1        1.216  -0.549   0.566  0.00  0.00    +0.150 A 
ATOM     32 CL   LIG    1        1.282  -2.113   1.317  0.00  0.00    -0.030 Cl
ENDBRANCH  23  26
ENDBRANCH  20  22
ENDBRANCH  19  20
ENDBRANCH  17  19
ENDBRANCH   7  17
TORSDOF 6
