REMARK  Name = ZINCrD000000CuzB.0
REMARK                            x       y       z     vdW  Elec       q    Type
REMARK                         _______ _______ _______ _____ _____    ______ ____
ROOT
ATOM      1  O   LIG    1        0.731   3.224  -1.565  0.00  0.00    -0.510 OA
ATOM      2  C   LIG    1       -0.276   2.645  -1.915  0.00  0.00    +0.550 C 
ATOM      3  N   LIG    1       -0.758   1.626  -1.177  0.00  0.00    -0.580 N 
ATOM      4  C   LIG    1       -1.988   0.883  -1.613  0.00  0.00    +0.280 C 
ATOM      5  C   LIG    1       -3.065   1.234  -0.689  0.00  0.00    +0.000 C 
ATOM      6  C   LIG    1       -2.770   0.908   0.772  0.00  0.00    +0.020 C 
ATOM      7  C   LIG    1       -2.100   2.133   1.326  0.00  0.00    +0.000 C 
ATOM      8  C   LIG    1       -0.565   1.967   1.323  0.00  0.00    +0.020 C 
ATOM      9  C   LIG    1       -0.104   1.233   0.039  0.00  0.00    +0.240 C 
ENDROOT
BRANCH   2  10
ATOM     10  C   LIG    1       -0.988   3.066  -3.174  0.00  0.00    +0.140 C 
ATOM     11  C   LIG    1       -0.793   1.999  -4.260  0.00  0.00    +0.250 C 
ATOM     12  O   LIG    1       -1.469   2.435  -5.444  0.00  0.00    -0.300 OA
ATOM     13  C   LIG    1       -1.270   3.728  -5.821  0.00  0.00    +0.050 A 
ATOM     14  C   LIG    1       -1.584   4.116  -7.114  0.00  0.00    +0.030 A 
ATOM     15  C   LIG    1       -1.391   5.427  -7.510  0.00  0.00    +0.020 A 
ATOM     16  C   LIG    1       -0.885   6.353  -6.618  0.00  0.00    +0.020 A 
ATOM     17  C   LIG    1       -0.568   5.972  -5.328  0.00  0.00    +0.030 A 
ATOM     18  C   LIG    1       -0.758   4.659  -4.924  0.00  0.00    +0.050 A 
ATOM     19  O   LIG    1       -0.437   4.298  -3.652  0.00  0.00    -0.280 OA
ENDBRANCH   2  10
BRANCH   9  20
ATOM     20  C   LIG    1        1.398   1.467  -0.131  0.00  0.00    +0.020 C 
BRANCH  20  21
ATOM     21  C   LIG    1        1.930   0.570  -1.251  0.00  0.00    +0.320 C 
BRANCH  21  22
ATOM     22  C   LIG    1        3.429   0.709  -1.336  0.00  0.00    -0.040 A 
ATOM     23  C   LIG    1        4.328  -0.150  -0.823  0.00  0.00    -0.050 A 
ATOM     24  C   LIG    1        5.608   0.365  -1.133  0.00  0.00    -0.060 A 
ATOM     25  C   LIG    1        5.414   1.507  -1.816  0.00  0.00    +0.160 A 
ATOM     26  O   LIG    1        4.092   1.707  -1.941  0.00  0.00    -0.170 OA
ENDBRANCH  21  22
BRANCH  21  27
ATOM     27  O   LIG    1        1.344   0.962  -2.494  0.00  0.00    -0.560 OA
ATOM     28  H   LIG    1        1.532   1.876  -2.746  0.00  0.00    +0.380 HD
ENDBRANCH  21  27
ENDBRANCH  20  21
ENDBRANCH   9  20
TORSDOF 5
