REMARK  Name = ZINCqH0000000trG.0
REMARK                            x       y       z     vdW  Elec       q    Type
REMARK                         _______ _______ _______ _____ _____    ______ ____
ROOT
ATOM      1  N   LIG    1        4.927  -4.054  -0.027  0.00  0.00    -0.670 N 
ATOM      2  H   LIG    1        4.098  -4.551   0.054  0.00  0.00    +0.410 HD
ATOM      3  C   LIG    1        4.909  -2.707  -0.012  0.00  0.00    +0.560 C 
ATOM      4  O   LIG    1        5.953  -2.085  -0.027  0.00  0.00    -0.510 OA
ENDROOT
BRANCH   3   5
ATOM      5  C   LIG    1        3.619  -1.985   0.022  0.00  0.00    -0.120 A 
ATOM      6  C   LIG    1        3.607  -0.601   0.037  0.00  0.00    +0.160 A 
ATOM      7  C   LIG    1        2.378   0.079   0.068  0.00  0.00    +0.070 A 
ATOM      8  N   LIG    1        2.333   1.416   0.082  0.00  0.00    -0.420 NA
ATOM      9  C   LIG    1        1.171   2.028   0.112  0.00  0.00    +0.110 A 
ATOM     10  C   LIG    1       -0.019   1.297   0.128  0.00  0.00    +0.120 A 
ATOM     11  N   LIG    1       -0.000  -0.017   0.114  0.00  0.00    -0.430 NA
ATOM     12  C   LIG    1       -1.340   2.023   0.154  0.00  0.00    +0.160 C 
ATOM     13  C   LIG    1        1.122   3.534   0.128  0.00  0.00    +0.160 C 
ATOM     14  C   LIG    1        1.170  -0.663   0.085  0.00  0.00    +0.100 A 
ATOM     15  C   LIG    1        1.218  -2.070   0.069  0.00  0.00    +0.070 A 
ATOM     16  C   LIG    1        2.414  -2.710   0.038  0.00  0.00    +0.060 A 
ENDBRANCH   3   5
BRANCH   1  20
ATOM     17  C   LIG    1        8.545  -6.087  -0.423  0.00  0.00    +0.130 A 
ATOM     18  C   LIG    1        8.492  -4.896   0.288  0.00  0.00    +0.040 A 
ATOM     19  C   LIG    1        7.294  -4.222   0.419  0.00  0.00    +0.040 A 
ATOM     20  C   LIG    1        6.142  -4.737  -0.160  0.00  0.00    +0.130 A 
ATOM     21  C   LIG    1        6.194  -5.931  -0.867  0.00  0.00    +0.010 A 
ATOM     22  C   LIG    1        7.393  -6.602  -1.002  0.00  0.00    -0.100 A 
ATOM     23  C   LIG    1        7.450  -7.895  -1.774  0.00  0.00    +0.090 C 
BRANCH  17  26
ATOM     24  C   LIG    1       12.232  -6.847  -0.482  0.00  0.00    +0.110 C 
ATOM     25  C   LIG    1       10.925  -6.097  -0.463  0.00  0.00    +0.510 C 
ATOM     26  N   LIG    1        9.761  -6.770  -0.556  0.00  0.00    -0.670 N 
ATOM     27  H   LIG    1        9.765  -7.727  -0.715  0.00  0.00    +0.410 HD
ATOM     28  O   LIG    1       10.921  -4.888  -0.365  0.00  0.00    -0.520 OA
ENDBRANCH  17  26
ENDBRANCH   1  20
TORSDOF 3
