REMARK  Name = ZINCvU00000008CE.0
REMARK                            x       y       z     vdW  Elec       q    Type
REMARK                         _______ _______ _______ _____ _____    ______ ____
ROOT
ATOM      1  C   LIG    1        3.258   2.868  -0.400  0.00  0.00    +0.130 A 
ATOM      2  C   LIG    1        2.963   4.222  -0.477  0.00  0.00    -0.040 A 
ATOM      3  C   LIG    1        1.650   4.653  -0.434  0.00  0.00    +0.060 A 
ATOM      4  C   LIG    1        0.623   3.739  -0.319  0.00  0.00    +0.010 A 
ATOM      5  C   LIG    1        0.910   2.375  -0.234  0.00  0.00    -0.090 A 
ATOM      6  C   LIG    1        2.236   1.942  -0.278  0.00  0.00    +0.050 A 
ENDROOT
BRANCH   5   7
ATOM      7  C   LIG    1       -0.187   1.393  -0.105  0.00  0.00    +0.560 C 
ATOM      8  N   LIG    1       -1.252   1.670   0.673  0.00  0.00    -0.520 N 
ATOM      9  C   LIG    1       -1.370   2.983   1.312  0.00  0.00    +0.320 C 
ATOM     10  O   LIG    1       -0.132   0.337  -0.705  0.00  0.00    -0.450 OA
BRANCH   8  11
ATOM     11  C   LIG    1       -2.233   0.714   0.870  0.00  0.00    +0.340 A 
ATOM     12  N   LIG    1       -2.226  -0.465   0.351  0.00  0.00    -0.470 NA
ATOM     13  C   LIG    1       -3.254  -1.287   0.639  0.00  0.00    +0.110 A 
ATOM     14  C   LIG    1       -3.475  -2.611   0.204  0.00  0.00    +0.070 A 
ATOM     15  C   LIG    1       -4.595  -3.295   0.601  0.00  0.00    +0.040 A 
ATOM     16  C   LIG    1       -5.528  -2.699   1.436  0.00  0.00    +0.030 A 
ATOM     17  C   LIG    1       -5.334  -1.407   1.874  0.00  0.00    +0.060 A 
ATOM     18  C   LIG    1       -4.203  -0.697   1.480  0.00  0.00    -0.180 A 
ATOM     19  S   LIG    1       -3.671   0.940   1.857  0.00  0.00    +0.070 S 
ENDBRANCH   8  11
ENDBRANCH   5   7
BRANCH   1  20
ATOM     20  O   LIG    1        4.551   2.451  -0.443  0.00  0.00    -0.310 OA
BRANCH  20  21
ATOM     21  C   LIG    1        5.554   3.460  -0.569  0.00  0.00    +0.330 C 
BRANCH  21  29
ATOM     22  C   LIG    1       11.090   4.078  -0.918  0.00  0.00    +0.120 C 
ATOM     23  C   LIG    1       10.468   2.712  -0.789  0.00  0.00    -0.040 A 
ATOM     24  C   LIG    1       11.251   1.600  -0.755  0.00  0.00    +0.030 A 
ATOM     25  C   LIG    1       10.657   0.333  -0.634  0.00  0.00    +0.020 A 
ATOM     26  C   LIG    1        9.315   0.215  -0.553  0.00  0.00    +0.220 A 
ATOM     27  N   LIG    1        8.517   1.322  -0.585  0.00  0.00    -0.360 N 
ATOM     28  C   LIG    1        7.160   1.488  -0.516  0.00  0.00    +0.120 A 
ATOM     29  C   LIG    1        6.915   2.814  -0.600  0.00  0.00    +0.050 A 
ATOM     30  N   LIG    1        8.081   3.457  -0.709  0.00  0.00    -0.480 NA
ATOM     31  C   LIG    1        9.068   2.572  -0.702  0.00  0.00    +0.230 A 
ENDBRANCH  21  29
ENDBRANCH  20  21
ENDBRANCH   1  20
TORSDOF 5
