REMARK  Name = ZINCrg00001Jdv17.0
REMARK                            x       y       z     vdW  Elec       q    Type
REMARK                         _______ _______ _______ _____ _____    ______ ____
ROOT
ATOM      1  C   LIG    1       -2.481  -3.105  -0.095  0.00  0.00    +0.250 C 
ATOM      2  C   LIG    1       -2.767  -2.744   1.368  0.00  0.00    +0.310 C 
ATOM      3  N   LIG    1       -1.889  -3.548   2.230  0.00  0.00    -0.600 N 
ATOM      4  C   LIG    1       -1.907  -5.011   2.091  0.00  0.00    +0.220 C 
ATOM      5  C   LIG    1       -1.626  -5.373   0.632  0.00  0.00    +0.290 C 
ATOM      6  C   LIG    1       -0.830  -5.626   2.987  0.00  0.00    +0.070 C 
ATOM      7  C   LIG    1       -1.078  -2.955   3.128  0.00  0.00    +0.570 C 
ATOM      8  O   LIG    1       -0.287  -3.621   3.767  0.00  0.00    -0.510 OA
ATOM      9  N   LIG    1       -2.504  -4.568  -0.230  0.00  0.00    -0.600 N 
ATOM     10  C   LIG    1       -3.314  -5.162  -1.129  0.00  0.00    +0.570 C 
ATOM     11  O   LIG    1       -4.108  -4.496  -1.764  0.00  0.00    -0.500 OA
ENDROOT
BRANCH   7  12
ATOM     12  C   LIG    1       -1.151  -1.493   3.337  0.00  0.00    -0.190 A 
ATOM     13  C   LIG    1        0.017  -0.737   3.489  0.00  0.00    +0.130 A 
ATOM     14  C   LIG    1       -0.106   0.628   3.682  0.00  0.00    -0.020 A 
ATOM     15  C   LIG    1       -1.366   1.196   3.720  0.00  0.00    +0.280 A 
ATOM     16  N   LIG    1       -2.450   0.458   3.574  0.00  0.00    -0.480 NA
ATOM     17  C   LIG    1       -2.385  -0.844   3.387  0.00  0.00    +0.290 A 
ENDBRANCH   7  12
BRANCH  10  18
ATOM     18  C   LIG    1       -3.237  -6.623  -1.342  0.00  0.00    -0.180 A 
ATOM     19  C   LIG    1       -4.403  -7.385  -1.479  0.00  0.00    +0.130 A 
ATOM     20  C   LIG    1       -4.276  -8.748  -1.683  0.00  0.00    -0.020 A 
ATOM     21  C   LIG    1       -3.013  -9.310  -1.733  0.00  0.00    +0.290 A 
ATOM     22  N   LIG    1       -1.931  -8.567  -1.595  0.00  0.00    -0.480 NA
ATOM     23  C   LIG    1       -2.000  -7.266  -1.405  0.00  0.00    +0.290 A 
ENDBRANCH  10  18
BRANCH   1  24
ATOM     24  C   LIG    1       -3.539  -2.499  -0.981  0.00  0.00    +0.480 C 
ATOM     25  O   LIG    1       -4.708  -2.641  -0.710  0.00  0.00    -0.480 OA
BRANCH  24  27
ATOM     26  C   LIG    1       -4.254  -1.246  -2.878  0.00  0.00    +0.270 C 
ATOM     27  O   LIG    1       -3.182  -1.802  -2.071  0.00  0.00    -0.360 OA
ENDBRANCH  24  27
ENDBRANCH   1  24
TORSDOF 4
