REMARK  Name = ZINCqH00000046OQ.0
REMARK                            x       y       z     vdW  Elec       q    Type
REMARK                         _______ _______ _______ _____ _____    ______ ____
ROOT
ATOM      1  C   LIG    1       -1.263   2.240  -0.026  0.00  0.00    +0.340 C 
ENDROOT
BRANCH   1   2
ATOM      2  C   LIG    1        0.019   1.449  -0.092  0.00  0.00    +0.200 A 
ATOM      3  N   LIG    1        1.216   1.955  -0.191  0.00  0.00    -0.460 NA
ATOM      4  C   LIG    1        2.118   0.953  -0.231  0.00  0.00    +0.040 A 
ATOM      5  C   LIG    1        1.437  -0.220  -0.152  0.00  0.00    +0.160 A 
ATOM      6  N   LIG    1        0.112   0.101  -0.064  0.00  0.00    -0.550 N 
ATOM      7  H   LIG    1       -0.627  -0.524   0.005  0.00  0.00    +0.430 HD
BRANCH   4   8
ATOM      8  C   LIG    1        3.590   1.105  -0.340  0.00  0.00    -0.000 A 
ATOM      9  C   LIG    1        4.410  -0.022  -0.365  0.00  0.00    +0.010 A 
ATOM     10  C   LIG    1        5.777   0.125  -0.473  0.00  0.00    +0.000 A 
ATOM     11  C   LIG    1        6.336   1.388  -0.546  0.00  0.00    +0.000 A 
ATOM     12  C   LIG    1        5.528   2.511  -0.516  0.00  0.00    +0.000 A 
ATOM     13  C   LIG    1        4.159   2.375  -0.414  0.00  0.00    +0.030 A 
ENDBRANCH   4   8
ENDBRANCH   1   2
BRANCH   1  15
ATOM     14  C   LIG    1       -2.520   3.977   1.256  0.00  0.00    +0.020 C 
ATOM     15  C   LIG    1       -1.185   3.241   1.128  0.00  0.00    +0.050 C 
ENDBRANCH   1  15
BRANCH   1  16
ATOM     16  N   LIG    1       -1.457   2.961  -1.286  0.00  0.00    -1.100 NA
ATOM     17  H   LIG    1       -0.848   3.673  -1.536  0.00  0.00    +0.430 HD
BRANCH  16  18
ATOM     18  S   LIG    1       -2.717   2.560  -2.284  0.00  0.00    +2.690 S 
ATOM     19  O   LIG    1       -2.725   1.141  -2.369  0.00  0.00    -0.940 OA
ATOM     20  O   LIG    1       -2.613   3.406  -3.421  0.00  0.00    -0.940 OA
BRANCH  18  21
ATOM     21  C   LIG    1       -4.203   3.018  -1.456  0.00  0.00    -0.690 A 
ATOM     22  C   LIG    1       -4.943   4.093  -1.910  0.00  0.00    +0.140 A 
ATOM     23  C   LIG    1       -6.114   4.449  -1.263  0.00  0.00    +0.080 A 
ATOM     24  C   LIG    1       -6.538   3.736  -0.155  0.00  0.00    +0.090 A 
ATOM     25  C   LIG    1       -5.795   2.663   0.301  0.00  0.00    +0.020 A 
ATOM     26  F   LIG    1       -6.841   5.497  -1.710  0.00  0.00    -0.120 F 
ATOM     27  C   LIG    1       -4.628   2.303  -0.349  0.00  0.00    +0.180 A 
ATOM     28  F   LIG    1       -3.901   1.255   0.098  0.00  0.00    -0.110 F 
ENDBRANCH  18  21
ENDBRANCH  16  18
ENDBRANCH   1  16
TORSDOF 6
