REMARK  Name = ZINCpe000000ZtGy.0
REMARK                            x       y       z     vdW  Elec       q    Type
REMARK                         _______ _______ _______ _____ _____    ______ ____
ROOT
ATOM      1  C   LIG    1       -5.102  -2.040  -0.111  0.00  0.00    +0.200 C 
ENDROOT
BRANCH   1   2
ATOM      2  C   LIG    1       -4.212  -3.218  -0.411  0.00  0.00    -0.120 A 
ATOM      3  C   LIG    1       -4.639  -4.204  -1.280  0.00  0.00    +0.090 A 
ATOM      4  C   LIG    1       -3.822  -5.285  -1.555  0.00  0.00    +0.000 A 
ATOM      5  C   LIG    1       -2.577  -5.381  -0.961  0.00  0.00    +0.060 A 
ATOM      6  C   LIG    1       -2.148  -4.397  -0.091  0.00  0.00    -0.010 A 
ATOM      7  C   LIG    1       -2.962  -3.311   0.180  0.00  0.00    +0.100 A 
ATOM      8  F   LIG    1       -2.541  -2.344   1.025  0.00  0.00    -0.140 F 
ENDBRANCH   1   2
BRANCH   1  10
ATOM      9  O   LIG    1       -5.409  -0.669  -2.007  0.00  0.00    -0.500 OA
ATOM     10  C   LIG    1       -4.741  -0.893  -1.020  0.00  0.00    +0.550 C 
ATOM     11  N   LIG    1       -3.676  -0.118  -0.735  0.00  0.00    -0.640 N 
ATOM     12  C   LIG    1       -3.047   1.052  -1.378  0.00  0.00    +0.300 C 
ATOM     13  C   LIG    1       -2.505   1.398   0.020  0.00  0.00    +0.260 C 
ATOM     14  C   LIG    1       -2.670  -0.097   0.347  0.00  0.00    +0.310 C 
BRANCH  13  15
ATOM     15  N   LIG    1       -1.111   1.850   0.017  0.00  0.00    -0.370 N 
ATOM     16  C   LIG    1       -0.013   1.076   0.008  0.00  0.00    +0.480 A 
ATOM     17  N   LIG    1        1.036   1.858   0.002  0.00  0.00    -0.540 NA
ATOM     18  C   LIG    1        0.648   3.133   0.013  0.00  0.00    +0.420 A 
ATOM     19  N   LIG    1       -0.658   3.180   0.025  0.00  0.00    -0.310 NA
ENDBRANCH  13  15
ENDBRANCH   1  10
BRANCH   1  20
ATOM     20  N   LIG    1       -6.504  -2.417  -0.332  0.00  0.00    -0.510 NA
ATOM     21  C   LIG    1       -7.397  -1.267  -0.133  0.00  0.00    +0.150 C 
ATOM     22  C   LIG    1       -8.839  -1.688  -0.431  0.00  0.00    +0.230 C 
ATOM     23  O   LIG    1       -9.188  -2.796   0.403  0.00  0.00    -0.380 OA
ATOM     24  C   LIG    1       -8.339  -3.935   0.234  0.00  0.00    +0.230 C 
ATOM     25  C   LIG    1       -6.893  -3.536   0.539  0.00  0.00    +0.150 C 
ENDBRANCH   1  20
TORSDOF 4
