REMARK  Name = ZINCrH000004jBPF.0
REMARK                            x       y       z     vdW  Elec       q    Type
REMARK                         _______ _______ _______ _____ _____    ______ ____
ROOT
ATOM      1  S   LIG    1       -2.865   1.549   0.997  0.00  0.00    +2.690 S 
ATOM      2  O   LIG    1       -2.860   0.194   0.568  0.00  0.00    -0.940 OA
ATOM      3  O   LIG    1       -3.941   2.441   0.740  0.00  0.00    -0.940 OA
ENDROOT
BRANCH   1   8
ATOM      4  C   LIG    1       -0.384   4.082  -0.912  0.00  0.00    -0.150 A 
ATOM      5  C   LIG    1        0.855   3.457  -0.766  0.00  0.00    +0.120 A 
ATOM      6  C   LIG    1        0.944   2.259  -0.089  0.00  0.00    +0.020 A 
ATOM      7  C   LIG    1       -0.193   1.676   0.446  0.00  0.00    +0.080 A 
ATOM      8  C   LIG    1       -1.425   2.294   0.308  0.00  0.00    -0.680 A 
ATOM      9 CL   LIG    1       -0.073   0.168   1.297  0.00  0.00    -0.030 Cl
ATOM     10  C   LIG    1       -1.527   3.490  -0.372  0.00  0.00    +0.210 A 
BRANCH   4  13
ATOM     11  C   LIG    1        0.411   7.544  -2.262  0.00  0.00    +0.300 C 
ATOM     12  N   LIG    1        0.542   6.237  -1.611  0.00  0.00    -0.610 N 
ATOM     13  C   LIG    1       -0.486   5.367  -1.636  0.00  0.00    +0.560 C 
ATOM     14  O   LIG    1       -1.497   5.638  -2.254  0.00  0.00    -0.520 OA
ATOM     15  C   LIG    1        1.790   5.878  -0.934  0.00  0.00    +0.300 C 
ENDBRANCH   4  13
ENDBRANCH   1   8
BRANCH   1  16
ATOM     16  N   LIG    1       -2.664   1.520   2.640  0.00  0.00    -1.100 NA
ATOM     17  H   LIG    1       -2.602   0.672   3.107  0.00  0.00    +0.420 HD
BRANCH  16  18
ATOM     18  C   LIG    1       -2.579   2.776   3.390  0.00  0.00    +0.290 C 
ATOM     19  C   LIG    1       -1.654   2.608   4.614  0.00  0.00    +0.060 C 
ATOM     20  C   LIG    1       -2.647   2.217   5.729  0.00  0.00    -0.030 C 
ATOM     21  C   LIG    1       -3.971   2.816   5.308  0.00  0.00    -0.070 A 
ATOM     22  C   LIG    1       -5.120   3.061   6.042  0.00  0.00    +0.010 A 
ATOM     23  C   LIG    1       -6.225   3.625   5.436  0.00  0.00    +0.010 A 
ATOM     24  C   LIG    1       -6.186   3.946   4.092  0.00  0.00    +0.010 A 
ATOM     25  C   LIG    1       -5.042   3.702   3.357  0.00  0.00    +0.060 A 
ATOM     26  C   LIG    1       -2.761   0.695   5.829  0.00  0.00    +0.040 C 
ATOM     27  C   LIG    1       -2.200   2.806   7.068  0.00  0.00    +0.040 C 
ATOM     28  C   LIG    1       -3.933   3.138   3.963  0.00  0.00    -0.120 A 
ENDBRANCH  16  18
ENDBRANCH   1  16
TORSDOF 4
