REMARK  Name = ZINCrH000004sJBo.0
REMARK                            x       y       z     vdW  Elec       q    Type
REMARK                         _______ _______ _______ _____ _____    ______ ____
ROOT
ATOM      1  N   LIG    1        3.587   2.109  -0.020  0.00  0.00    -0.680 N 
ATOM      2  H   LIG    1        3.584   3.077  -0.092  0.00  0.00    +0.420 HD
ATOM      3  C   LIG    1        4.756   1.444   0.067  0.00  0.00    +0.510 C 
ATOM      4  O   LIG    1        4.765   0.231   0.061  0.00  0.00    -0.500 OA
ENDROOT
BRANCH   1  12
ATOM      5  C   LIG    1       -2.471  -0.242  -0.759  0.00  0.00    +0.120 C 
ATOM      6  C   LIG    1       -1.278  -0.716   0.030  0.00  0.00    +0.040 A 
ATOM      7  C   LIG    1       -1.342  -1.846   0.782  0.00  0.00    -0.100 A 
ATOM      8  C   LIG    1       -0.212  -2.268   1.511  0.00  0.00    +0.510 A 
ATOM      9  O   LIG    1        0.942  -1.584   1.482  0.00  0.00    -0.270 OA
ATOM     10  C   LIG    1        1.071  -0.450   0.761  0.00  0.00    +0.170 A 
ATOM     11  C   LIG    1        2.269   0.248   0.747  0.00  0.00    +0.010 A 
ATOM     12  C   LIG    1        2.381   1.407  -0.006  0.00  0.00    +0.210 A 
ATOM     13  C   LIG    1        1.299   1.877  -0.750  0.00  0.00    -0.030 A 
ATOM     14  C   LIG    1        0.113   1.201  -0.746  0.00  0.00    +0.110 A 
ATOM     15  O   LIG    1       -0.283  -3.284   2.180  0.00  0.00    -0.460 OA
ATOM     16  C   LIG    1       -0.018   0.030   0.009  0.00  0.00    -0.170 A 
ENDBRANCH   1  12
BRANCH   3  17
ATOM     17  C   LIG    1        6.051   2.206   0.172  0.00  0.00    +0.160 C 
BRANCH  17  18
ATOM     18  C   LIG    1        7.200   1.235   0.256  0.00  0.00    -0.230 A 
ATOM     19  C   LIG    1        7.892   0.728  -0.791  0.00  0.00    +0.110 A 
ATOM     20  N   LIG    1        8.836  -0.100  -0.297  0.00  0.00    -0.360 N 
ATOM     21  N   LIG    1        8.721  -0.103   1.099  0.00  0.00    -0.290 NA
ATOM     22  C   LIG    1        7.652   1.034  -2.247  0.00  0.00    +0.140 C 
ATOM     23  C   LIG    1        7.744   0.702   1.429  0.00  0.00    +0.090 A 
ATOM     24  C   LIG    1        7.282   1.001   2.832  0.00  0.00    +0.140 C 
BRANCH  20  25
ATOM     25  C   LIG    1        9.810  -0.863  -1.083  0.00  0.00    +0.320 C 
BRANCH  25  26
ATOM     26  C   LIG    1       11.076  -0.026  -1.278  0.00  0.00    -0.040 C 
ATOM     27  C   LIG    1       12.042  -0.770  -2.202  0.00  0.00    +0.030 C 
ATOM     28  C   LIG    1       11.745   0.211   0.077  0.00  0.00    +0.020 C 
ENDBRANCH  25  26
ENDBRANCH  20  25
ENDBRANCH  17  18
ENDBRANCH   3  17
TORSDOF 5
