REMARK  Name = ZINCrH000004ogQT.0
REMARK                            x       y       z     vdW  Elec       q    Type
REMARK                         _______ _______ _______ _____ _____    ______ ____
ROOT
ATOM      1  N   LIG    1       -1.203   1.847   0.024  0.00  0.00    -0.740 N 
ATOM      2  H   LIG    1       -1.236   2.815  -0.042  0.00  0.00    +0.400 HD
ATOM      3  C   LIG    1       -0.014   1.212   0.009  0.00  0.00    +0.710 C 
ATOM      4  N   LIG    1        1.130   1.923  -0.001  0.00  0.00    -0.630 N 
ATOM      5  C   LIG    1        1.100   3.388  -0.111  0.00  0.00    +0.280 C 
ATOM      6  C   LIG    1        1.990   3.817  -1.276  0.00  0.00    +0.010 C 
ATOM      7  C   LIG    1        3.391   3.229  -1.089  0.00  0.00    +0.240 C 
ATOM      8  C   LIG    1        3.307   1.701  -1.081  0.00  0.00    +0.010 C 
ATOM      9  C   LIG    1        2.432   1.248   0.092  0.00  0.00    +0.300 C 
ATOM     10  O   LIG    1        0.025  -0.004  -0.001  0.00  0.00    -0.580 OA
ENDROOT
BRANCH   7  11
ATOM     11  N   LIG    1        4.254   3.665  -2.190  0.00  0.00    -0.730 N 
ATOM     12  H   LIG    1        4.372   3.097  -2.967  0.00  0.00    +0.400 HD
ATOM     13  C   LIG    1        4.884   4.855  -2.122  0.00  0.00    +0.520 C 
ATOM     14  O   LIG    1        4.736   5.564  -1.150  0.00  0.00    -0.540 OA
BRANCH  13  15
ATOM     15  C   LIG    1        5.772   5.303  -3.254  0.00  0.00    -0.010 C 
ATOM     16  C   LIG    1        6.907   4.294  -3.442  0.00  0.00    +0.030 C 
ATOM     17  C   LIG    1        7.808   4.749  -4.591  0.00  0.00    +0.010 C 
ATOM     18  C   LIG    1        8.396   6.123  -4.265  0.00  0.00    +0.000 C 
ATOM     19  C   LIG    1        7.261   7.132  -4.077  0.00  0.00    +0.010 C 
ATOM     20  C   LIG    1        6.360   6.677  -2.928  0.00  0.00    +0.040 C 
ENDBRANCH  13  15
ENDBRANCH   7  11
BRANCH   1  22
ATOM     21  C   LIG    1       -2.880   0.604  -1.250  0.00  0.00    +0.040 C 
ATOM     22  C   LIG    1       -2.444   1.077   0.138  0.00  0.00    +0.300 C 
BRANCH  22  23
ATOM     23  C   LIG    1       -3.521   1.947   0.734  0.00  0.00    -0.060 A 
ATOM     24  C   LIG    1       -3.625   3.273   0.358  0.00  0.00    +0.000 A 
ATOM     25  C   LIG    1       -4.616   4.071   0.901  0.00  0.00    +0.060 A 
ATOM     26  C   LIG    1       -5.497   3.545   1.827  0.00  0.00    -0.010 A 
ATOM     27  C   LIG    1       -5.390   2.218   2.208  0.00  0.00    +0.110 A 
ATOM     28  F   LIG    1       -6.250   1.704   3.114  0.00  0.00    -0.140 F 
ATOM     29  C   LIG    1       -4.401   1.419   1.661  0.00  0.00    +0.000 A 
ENDBRANCH  22  23
ENDBRANCH   1  22
TORSDOF 4
