REMARK  Name = ZINCb70000003XNI.0
REMARK                            x       y       z     vdW  Elec       q    Type
REMARK                         _______ _______ _______ _____ _____    ______ ____
ROOT
ATOM      1  C   LIG    1       -0.968   1.699  -1.032  0.00  0.00    +0.140 C 
ATOM      2  C   LIG    1       -0.013   1.086   0.008  0.00  0.00    +0.350 C 
ATOM      3  N   LIG    1       -0.909   1.663   1.028  0.00  0.00    -0.650 N 
ATOM      4  C   LIG    1       -1.374   2.691   0.073  0.00  0.00    +0.360 C 
ENDROOT
BRANCH   3   5
ATOM      5  C   LIG    1       -1.196   1.363   2.340  0.00  0.00    +0.450 C 
ATOM      6  N   LIG    1       -0.595   0.368   2.874  0.00  0.00    -0.610 NA
ATOM      7  C   LIG    1       -0.739  -0.160   4.214  0.00  0.00    +0.270 C 
ATOM      8  C   LIG    1       -1.362   0.843   5.178  0.00  0.00    +0.020 C 
ATOM      9  C   LIG    1       -2.709   1.310   4.612  0.00  0.00    +0.130 C 
ATOM     10  S   LIG    1       -2.372   2.367   3.178  0.00  0.00    -0.150 S 
ENDBRANCH   3   5
BRANCH   1  11
ATOM     11  N   LIG    1       -2.051   0.797  -1.444  0.00  0.00    -0.620 N 
ATOM     12  H   LIG    1       -1.657  -0.037  -1.854  0.00  0.00    +0.440 HD
ATOM     13  H   LIG    1       -2.636   1.261  -2.123  0.00  0.00    +0.440 HD
ATOM     14  H   LIG    1       -2.605   0.547  -0.639  0.00  0.00    +0.440 HD
ENDBRANCH   1  11
TORSDOF 2
