REMARK  Name = ZINCpk00000xI7gA.0
REMARK                            x       y       z     vdW  Elec       q    Type
REMARK                         _______ _______ _______ _____ _____    ______ ____
ROOT
ATOM      1  N   LIG    1       -0.843   3.221   3.996  0.00  0.00    -0.710 N 
ATOM      2  H   LIG    1       -0.254   3.620   4.655  0.00  0.00    +0.410 HD
ATOM      3  C   LIG    1       -1.650   4.004   3.252  0.00  0.00    +0.500 C 
ATOM      4  O   LIG    1       -2.387   3.505   2.428  0.00  0.00    -0.510 OA
ENDROOT
BRANCH   3   5
ATOM      5  C   LIG    1       -1.635   5.499   3.443  0.00  0.00    +0.250 C 
ATOM      6  C   LIG    1       -1.999   5.812   4.910  0.00  0.00    +0.170 C 
ATOM      7  S   LIG    1       -3.119   7.264   4.713  0.00  0.00    -0.240 S 
ATOM      8  C   LIG    1       -3.764   6.678   3.098  0.00  0.00    +0.170 C 
ATOM      9  C   LIG    1       -4.136   7.875   2.208  0.00  0.00    +0.090 C 
ATOM     10  C   LIG    1       -3.692   7.348   0.821  0.00  0.00    +0.080 C 
ATOM     11  C   LIG    1       -2.612   6.337   1.131  0.00  0.00    +0.550 C 
ATOM     12  O   LIG    1       -1.901   5.809   0.303  0.00  0.00    -0.500 OA
ATOM     13  C   LIG    1       -4.909   5.675   3.247  0.00  0.00    +0.080 C 
ATOM     14  N   LIG    1       -2.550   6.102   2.468  0.00  0.00    -0.610 N 
ENDBRANCH   3   5
BRANCH   1  15
ATOM     15  C   LIG    1       -0.857   1.768   3.810  0.00  0.00    +0.290 C 
BRANCH  15  16
ATOM     16  C   LIG    1        0.065   1.113   4.840  0.00  0.00    +0.090 C 
ATOM     17  C   LIG    1        0.156  -0.388   4.562  0.00  0.00    +0.020 C 
ATOM     18  C   LIG    1       -0.499   1.338   6.245  0.00  0.00    +0.050 C 
BRANCH  16  22
ATOM     19  C   LIG    1        4.644   1.162   6.642  0.00  0.00    +0.050 C 
ATOM     20  C   LIG    1        3.673   1.818   5.659  0.00  0.00    +0.160 C 
ATOM     21  C   LIG    1        2.310   1.127   5.749  0.00  0.00    +0.160 C 
ATOM     22  N   LIG    1        1.404   1.710   4.749  0.00  0.00    -0.520 NA
ATOM     23  C   LIG    1        1.956   1.561   3.395  0.00  0.00    +0.160 C 
ATOM     24  C   LIG    1        3.323   2.247   3.328  0.00  0.00    +0.190 C 
ATOM     25  C   LIG    1        3.154   3.747   3.579  0.00  0.00    +0.020 C 
ATOM     26  O   LIG    1        4.180   1.689   4.327  0.00  0.00    -0.380 OA
ENDBRANCH  16  22
ENDBRANCH  15  16
ENDBRANCH   1  15
TORSDOF 4
