REMARK  Name = ZINCyk0000000iUK.1
REMARK                            x       y       z     vdW  Elec       q    Type
REMARK                         _______ _______ _______ _____ _____    ______ ____
ROOT
ATOM      1  C   LIG    1       -7.061  -1.500  -3.363  0.00  0.00    +0.300 C 
ENDROOT
BRANCH   1   8
ATOM      2  N   LIG    1       -2.434   0.979   0.016  0.00  0.00    -0.520 NA
ATOM      3  C   LIG    1       -2.463   0.214  -1.238  0.00  0.00    +0.180 C 
ATOM      4  C   LIG    1       -3.504  -0.904  -1.126  0.00  0.00    +0.280 C 
ATOM      5  N   LIG    1       -4.790  -0.308  -0.732  0.00  0.00    -0.620 N 
ATOM      6  C   LIG    1       -4.813   0.583   0.438  0.00  0.00    +0.310 C 
ATOM      7  C   LIG    1       -5.916  -0.571  -1.424  0.00  0.00    +0.710 C 
ATOM      8  N   LIG    1       -5.857  -1.308  -2.551  0.00  0.00    -0.750 N 
ATOM      9  H   LIG    1       -5.018  -1.711  -2.824  0.00  0.00    +0.400 HD
ATOM     10  O   LIG    1       -6.984  -0.143  -1.032  0.00  0.00    -0.580 OA
ATOM     11  C   LIG    1       -3.720   1.643   0.265  0.00  0.00    +0.180 C 
BRANCH   2  12
ATOM     12  C   LIG    1       -1.331   1.950   0.015  0.00  0.00    +0.220 C 
BRANCH  12  14
ATOM     13  O   LIG    1        0.003   0.003  -0.003  0.00  0.00    -0.520 OA
ATOM     14  C   LIG    1       -0.015   1.216   0.004  0.00  0.00    +0.520 C 
ATOM     15  N   LIG    1        1.142   1.907  -0.004  0.00  0.00    -0.700 N 
ATOM     16  H   LIG    1        1.127   2.877   0.001  0.00  0.00    +0.400 HD
BRANCH  15  17
ATOM     17  C   LIG    1        2.421   1.193  -0.021  0.00  0.00    +0.220 C 
ATOM     18  C   LIG    1        3.525   1.700   0.908  0.00  0.00    +0.020 C 
ATOM     19  C   LIG    1        3.631   1.927  -0.602  0.00  0.00    +0.020 C 
ENDBRANCH  15  17
ENDBRANCH  12  14
ENDBRANCH   2  12
ENDBRANCH   1   8
BRANCH   1  20
ATOM     20  C   LIG    1       -6.724  -2.369  -4.577  0.00  0.00    +0.260 C 
BRANCH  20  21
ATOM     21  N   LIG    1       -7.931  -2.562  -5.392  0.00  0.00    -0.380 N 
ATOM     22  C   LIG    1       -8.920  -3.331  -4.626  0.00  0.00    +0.270 C 
ATOM     23  C   LIG    1      -10.185  -3.516  -5.467  0.00  0.00    +0.220 C 
ATOM     24  N   LIG    1       -9.845  -4.224  -6.709  0.00  0.00    -0.490 N 
ATOM     25  C   LIG    1       -8.836  -3.478  -7.475  0.00  0.00    +0.220 C 
ATOM     26  C   LIG    1       -7.582  -3.293  -6.617  0.00  0.00    +0.280 C 
ATOM     27  H   LIG    1       -8.319  -1.663  -5.635  0.00  0.00    +0.420 HD
BRANCH  24  28
ATOM     28  C   LIG    1      -10.985  -4.459  -7.480  0.00  0.00    +0.090 A 
ATOM     29  C   LIG    1      -11.049  -3.996  -8.788  0.00  0.00    +0.010 A 
ATOM     30  C   LIG    1      -12.177  -4.235  -9.549  0.00  0.00    +0.050 A 
ATOM     31  C   LIG    1      -13.246  -4.925  -9.006  0.00  0.00    +0.060 A 
ATOM     32  C   LIG    1      -13.187  -5.383  -7.703  0.00  0.00    -0.150 A 
ATOM     33  C   LIG    1      -12.061  -5.153  -6.938  0.00  0.00    +0.060 A 
BRANCH  32  34
ATOM     34  C   LIG    1      -14.354  -6.135  -7.116  0.00  0.00    +0.510 C 
ATOM     35  F   LIG    1      -13.890  -7.044  -6.160  0.00  0.00    -0.170 F 
ATOM     36  F   LIG    1      -15.021  -6.828  -8.133  0.00  0.00    -0.170 F 
ATOM     37  F   LIG    1      -15.235  -5.231  -6.512  0.00  0.00    -0.170 F 
ENDBRANCH  32  34
ENDBRANCH  24  28
ENDBRANCH  20  21
ENDBRANCH   1  20
TORSDOF 8
