REMARK  Name = ZINCvU00000008Wo.0
REMARK                            x       y       z     vdW  Elec       q    Type
REMARK                         _______ _______ _______ _____ _____    ______ ____
ROOT
ATOM      1  N   LIG    1       -4.954  -3.071   0.009  0.00  0.00    -0.480 N 
ATOM      2  C   LIG    1       -5.712  -3.388  -1.101  0.00  0.00    +0.050 A 
ATOM      3  C   LIG    1       -5.507  -3.291  -2.471  0.00  0.00    +0.010 A 
ATOM      4  C   LIG    1       -6.493  -3.707  -3.340  0.00  0.00    +0.030 A 
ATOM      5  C   LIG    1       -7.687  -4.221  -2.854  0.00  0.00    +0.000 A 
ATOM      6  C   LIG    1       -7.906  -4.324  -1.509  0.00  0.00    +0.070 A 
ATOM      7  C   LIG    1       -6.921  -3.908  -0.610  0.00  0.00    +0.050 A 
ATOM      8  N   LIG    1       -6.841  -3.884   0.745  0.00  0.00    -0.480 NA
ATOM      9  C   LIG    1       -5.688  -3.399   1.106  0.00  0.00    +0.290 A 
ENDROOT
BRANCH   1  10
ATOM     10  C   LIG    1       -3.607  -2.495   0.006  0.00  0.00    +0.310 C 
BRANCH  10  11
ATOM     11  C   LIG    1       -3.706  -0.968   0.014  0.00  0.00    +0.030 C 
BRANCH  11  12
ATOM     12  C   LIG    1       -2.299  -0.366   0.011  0.00  0.00    +0.210 C 
BRANCH  12  13
ATOM     13  O   LIG    1       -2.391   1.060   0.019  0.00  0.00    -0.310 OA
BRANCH  13  20
ATOM     14  C   LIG    1       -2.551   3.881   0.045  0.00  0.00    +0.100 C 
ATOM     15  C   LIG    1       -1.238   3.141   0.029  0.00  0.00    -0.110 A 
ATOM     16  C   LIG    1       -0.049   3.844   0.023  0.00  0.00    +0.050 A 
ATOM     17  C   LIG    1        1.156   3.166   0.008  0.00  0.00    -0.030 A 
ATOM     18  C   LIG    1        1.174   1.783   0.000  0.00  0.00    +0.030 A 
ATOM     19  C   LIG    1       -0.013   1.076   0.008  0.00  0.00    -0.080 A 
ATOM     20  C   LIG    1       -1.223   1.754   0.017  0.00  0.00    +0.130 A 
ENDBRANCH  13  20
ENDBRANCH  12  13
ENDBRANCH  11  12
ENDBRANCH  10  11
ENDBRANCH   1  10
BRANCH   9  21
ATOM     21  C   LIG    1       -5.234  -3.224   2.532  0.00  0.00    +0.150 C 
BRANCH  21  22
ATOM     22  C   LIG    1       -5.648  -1.838   3.032  0.00  0.00    +0.270 C 
BRANCH  22  23
ATOM     23  N   LIG    1       -5.207  -1.667   4.419  0.00  0.00    -0.730 N 
ATOM     24  H   LIG    1       -4.730  -2.382   4.868  0.00  0.00    +0.400 HD
ATOM     25  C   LIG    1       -5.463  -0.515   5.070  0.00  0.00    +0.520 C 
ATOM     26  O   LIG    1       -6.059   0.380   4.509  0.00  0.00    -0.530 OA
BRANCH  25  27
ATOM     27  C   LIG    1       -5.009  -0.339   6.496  0.00  0.00    +0.000 C 
ATOM     28  C   LIG    1       -5.657  -1.412   7.374  0.00  0.00    +0.030 C 
ATOM     29  C   LIG    1       -5.196  -1.234   8.822  0.00  0.00    +0.010 C 
ATOM     30  C   LIG    1       -5.610   0.152   9.322  0.00  0.00    +0.000 C 
ATOM     31  C   LIG    1       -4.962   1.225   8.444  0.00  0.00    +0.010 C 
ATOM     32  C   LIG    1       -5.423   1.046   6.996  0.00  0.00    +0.040 C 
ENDBRANCH  25  27
ENDBRANCH  22  23
ENDBRANCH  21  22
ENDBRANCH   9  21
TORSDOF 9
