REMARK  Name = ZINCrD00000F5Lrs.0
REMARK                            x       y       z     vdW  Elec       q    Type
REMARK                         _______ _______ _______ _____ _____    ______ ____
ROOT
ATOM      1  C   LIG    1       -1.149   0.430  -1.751  0.00  0.00    +0.550 C 
ATOM      2  N   LIG    1       -0.732   1.544  -1.118  0.00  0.00    -0.550 N 
ATOM      3  O   LIG    1       -1.535   0.494  -2.902  0.00  0.00    -0.520 OA
ENDROOT
BRANCH   2   4
ATOM      4  C   LIG    1       -0.644   2.753  -1.815  0.00  0.00    +0.180 A 
ATOM      5  C   LIG    1        0.380   3.648  -1.529  0.00  0.00    -0.030 A 
ATOM      6  C   LIG    1        0.468   4.843  -2.218  0.00  0.00    +0.070 A 
ATOM      7  C   LIG    1       -0.461   5.151  -3.192  0.00  0.00    -0.140 A 
ATOM      8  C   LIG    1       -0.364   6.454  -3.943  0.00  0.00    +0.100 C 
ATOM      9  C   LIG    1       -0.840   6.251  -5.382  0.00  0.00    +0.070 C 
ATOM     10  C   LIG    1       -2.158   5.524  -5.388  0.00  0.00    +0.520 C 
ATOM     11  N   LIG    1       -2.426   4.577  -4.471  0.00  0.00    -0.660 N 
ATOM     12  H   LIG    1       -3.275   4.109  -4.495  0.00  0.00    +0.410 HD
ATOM     13  O   LIG    1       -2.988   5.795  -6.229  0.00  0.00    -0.530 OA
ATOM     14  C   LIG    1       -1.487   4.261  -3.483  0.00  0.00    +0.180 A 
ATOM     15  C   LIG    1       -1.576   3.058  -2.797  0.00  0.00    -0.010 A 
ENDBRANCH   2   4
BRANCH   1  17
ATOM     16  C   LIG    1       -1.402  -1.983  -1.715  0.00  0.00    +0.160 C 
ATOM     17  C   LIG    1       -1.138  -0.862  -1.049  0.00  0.00    -0.090 C 
ENDBRANCH   1  17
BRANCH   2  18
ATOM     18  C   LIG    1       -0.371   1.489   0.301  0.00  0.00    +0.340 C 
BRANCH  18  19
ATOM     19  C   LIG    1       -1.418   2.206   1.114  0.00  0.00    -0.110 A 
ATOM     20  C   LIG    1       -1.196   3.504   1.529  0.00  0.00    +0.040 A 
ATOM     21  C   LIG    1       -2.157   4.162   2.275  0.00  0.00    +0.010 A 
ATOM     22  C   LIG    1       -3.333   3.518   2.604  0.00  0.00    +0.030 A 
ATOM     23  C   LIG    1       -3.555   2.213   2.191  0.00  0.00    -0.120 A 
ATOM     24  C   LIG    1       -4.846   1.540   2.580  0.00  0.00    +0.280 C 
ATOM     25  O   LIG    1       -5.064   0.385   1.766  0.00  0.00    -0.370 OA
ATOM     26  C   LIG    1       -3.943  -0.506   1.752  0.00  0.00    +0.220 C 
ATOM     27  C   LIG    1       -2.814   0.149   0.954  0.00  0.00    +0.050 C 
ATOM     28  C   LIG    1       -2.601   1.561   1.438  0.00  0.00    -0.050 A 
ENDBRANCH  18  19
ENDBRANCH   2  18
TORSDOF 4
