REMARK  Name = ZINCfA000000bk6V.0
REMARK                            x       y       z     vdW  Elec       q    Type
REMARK                         _______ _______ _______ _____ _____    ______ ____
ROOT
ATOM      1  N   LIG    1        0.237   1.506  -2.666  0.00  0.00    -0.500 N 
ATOM      2  H   LIG    1        0.560   0.609  -2.994  0.00  0.00    +0.430 HD
ATOM      3  H   LIG    1        1.008   2.158  -2.656  0.00  0.00    +0.420 HD
ENDROOT
BRANCH   1   7
ATOM      4  C   LIG    1        0.280   1.363   1.044  0.00  0.00    +0.040 C 
ATOM      5  C   LIG    1       -0.354   2.740   0.746  0.00  0.00    +0.070 C 
ATOM      6  C   LIG    1       -0.722   2.742  -0.748  0.00  0.00    +0.050 C 
ATOM      7  C   LIG    1       -0.304   1.366  -1.307  0.00  0.00    +0.170 C 
ATOM      8  C   LIG    1        0.798   0.879  -0.333  0.00  0.00    +0.090 C 
BRANCH   4  10
ATOM      9  C   LIG    1        0.818   1.949   3.770  0.00  0.00    +0.150 C 
ATOM     10  S   LIG    1        1.655   1.532   2.216  0.00  0.00    -0.230 S 
ENDBRANCH   4  10
ENDBRANCH   1   7
BRANCH   1  11
ATOM     11  C   LIG    1       -0.814   2.006  -3.562  0.00  0.00    +0.230 C 
BRANCH  11  12
ATOM     12  C   LIG    1       -1.911   0.948  -3.702  0.00  0.00    -0.070 C 
ATOM     13  C   LIG    1       -3.363   1.428  -3.678  0.00  0.00    +0.090 C 
ATOM     14  C   LIG    1       -2.787   0.673  -2.479  0.00  0.00    +0.040 C 
ENDBRANCH  11  12
BRANCH  11  15
ATOM     15  C   LIG    1       -0.213   2.303  -4.938  0.00  0.00    -0.030 C 
ATOM     16  C   LIG    1        1.217   1.829  -5.201  0.00  0.00    +0.020 C 
ATOM     17  C   LIG    1        0.929   3.318  -5.005  0.00  0.00    +0.050 C 
ENDBRANCH  11  15
ENDBRANCH   1  11
TORSDOF 5
