REMARK  Name = ZINCqH0000036ikL.0
REMARK                            x       y       z     vdW  Elec       q    Type
REMARK                         _______ _______ _______ _____ _____    ______ ____
ROOT
ATOM      1  N   LIG    1       -4.234   0.978   0.787  0.00  0.00    -0.660 NA
ATOM      2  H   LIG    1       -4.438   1.295   1.723  0.00  0.00    +0.360 HD
ENDROOT
BRANCH   1   3
ATOM      3  C   LIG    1       -4.068  -0.481   0.751  0.00  0.00    +0.180 C 
ATOM      4  C   LIG    1       -4.475  -1.008  -0.626  0.00  0.00    +0.070 C 
BRANCH   3   9
ATOM      5  C   LIG    1       -5.410  -2.932   3.305  0.00  0.00    +0.100 A 
ATOM      6  C   LIG    1       -6.541  -2.267   3.750  0.00  0.00    -0.070 A 
ATOM      7  C   LIG    1       -6.868  -1.030   3.225  0.00  0.00    +0.050 A 
ATOM      8  C   LIG    1       -6.065  -0.452   2.260  0.00  0.00    +0.010 A 
ATOM      9  C   LIG    1       -4.938  -1.113   1.808  0.00  0.00    -0.070 A 
ATOM     10  C   LIG    1       -4.605  -2.352   2.329  0.00  0.00    +0.080 A 
BRANCH   5  12
ATOM     11  C   LIG    1       -5.961  -4.683   4.818  0.00  0.00    +0.250 C 
ATOM     12  O   LIG    1       -5.088  -4.149   3.820  0.00  0.00    -0.310 OA
ENDBRANCH   5  12
BRANCH  10  13
ATOM     13  O   LIG    1       -3.494  -3.001   1.889  0.00  0.00    -0.480 OA
ATOM     14  H   LIG    1       -2.693  -2.795   2.392  0.00  0.00    +0.380 HD
ENDBRANCH  10  13
ENDBRANCH   3   9
ENDBRANCH   1   3
BRANCH   1  15
ATOM     15  C   LIG    1       -3.049   1.656   0.247  0.00  0.00    +0.320 C 
BRANCH  15  16
ATOM     16  C   LIG    1       -3.441   3.016  -0.271  0.00  0.00    -0.100 A 
ATOM     17  C   LIG    1       -4.556   3.654   0.237  0.00  0.00    +0.090 A 
ATOM     18  C   LIG    1       -4.916   4.901  -0.239  0.00  0.00    +0.000 A 
ATOM     19  C   LIG    1       -4.162   5.511  -1.223  0.00  0.00    +0.040 A 
ATOM     20  C   LIG    1       -3.046   4.875  -1.733  0.00  0.00    -0.010 A 
ATOM     21  C   LIG    1       -2.680   3.629  -1.253  0.00  0.00    +0.100 A 
ATOM     22  F   LIG    1       -1.587   3.008  -1.747  0.00  0.00    -0.140 F 
ENDBRANCH  15  16
BRANCH  15  23
ATOM     23  C   LIG    1       -2.019   1.812   1.337  0.00  0.00    +0.170 A 
ATOM     24  N   LIG    1       -2.256   2.211   2.556  0.00  0.00    -0.480 NA
ATOM     25  C   LIG    1       -1.106   2.236   3.245  0.00  0.00    +0.140 A 
ATOM     26  C   LIG    1       -0.119   1.831   2.423  0.00  0.00    +0.130 A 
ATOM     27  N   LIG    1       -0.698   1.558   1.213  0.00  0.00    -0.450 N 
ATOM     28  C   LIG    1       -0.013   1.086   0.008  0.00  0.00    +0.330 C 
ENDBRANCH  15  23
ENDBRANCH   1  15
TORSDOF 7
