REMARK  Name = ZINCkj000005jDqL.1
REMARK                            x       y       z     vdW  Elec       q    Type
REMARK                         _______ _______ _______ _____ _____    ______ ____
ROOT
ATOM      1  N   LIG    1        2.186   8.224   1.253  0.00  0.00    -0.380 N 
ATOM      2  C   LIG    1        3.333   7.316   1.134  0.00  0.00    +0.260 C 
ATOM      3  C   LIG    1        3.235   6.540  -0.183  0.00  0.00    +0.350 C 
ATOM      4  N   LIG    1        1.925   5.873  -0.235  0.00  0.00    -0.640 N 
ATOM      5  C   LIG    1        0.725   6.682   0.030  0.00  0.00    +0.310 C 
ATOM      6  C   LIG    1        1.826   4.560  -0.523  0.00  0.00    +0.710 C 
ATOM      7  N   LIG    1        0.612   3.987  -0.648  0.00  0.00    -0.680 N 
ATOM      8  H   LIG    1       -0.190   4.525  -0.557  0.00  0.00    +0.410 HD
ATOM      9  O   LIG    1        2.831   3.893  -0.670  0.00  0.00    -0.540 OA
ATOM     10  C   LIG    1        0.942   7.450   1.343  0.00  0.00    +0.260 C 
ATOM     11  H   LIG    1        2.149   8.825   0.443  0.00  0.00    +0.430 HD
ENDROOT
BRANCH   7  12
ATOM     12  C   LIG    1        0.509   2.616  -0.908  0.00  0.00    +0.170 A 
ATOM     13  C   LIG    1       -0.504   1.870  -0.320  0.00  0.00    -0.020 A 
ATOM     14  C   LIG    1       -0.604   0.517  -0.578  0.00  0.00    +0.070 A 
ATOM     15  C   LIG    1        0.303  -0.097  -1.421  0.00  0.00    -0.020 A 
ATOM     16  C   LIG    1        1.315   0.643  -2.009  0.00  0.00    +0.120 A 
ATOM     17  F   LIG    1        2.201   0.040  -2.833  0.00  0.00    -0.130 F 
ATOM     18  C   LIG    1        1.420   1.998  -1.754  0.00  0.00    +0.000 A 
ENDBRANCH   7  12
BRANCH   1  20
ATOM     19  C   LIG    1        1.136   9.984   2.594  0.00  0.00    +0.100 C 
ATOM     20  C   LIG    1        2.337   9.044   2.462  0.00  0.00    +0.180 C 
BRANCH  20  21
ATOM     21  C   LIG    1        3.621   9.870   2.362  0.00  0.00    +0.220 C 
BRANCH  21  22
ATOM     22  O   LIG    1        3.550  10.725   1.220  0.00  0.00    -0.580 OA
ATOM     23  H   LIG    1        4.333  11.279   1.094  0.00  0.00    +0.410 HD
ENDBRANCH  21  22
ENDBRANCH  20  21
ENDBRANCH   1  20
TORSDOF 4
