REMARK  Name = ZINCpk000000oFGa.0
REMARK                            x       y       z     vdW  Elec       q    Type
REMARK                         _______ _______ _______ _____ _____    ______ ____
ROOT
ATOM      1  N   LIG    1       -0.287  -0.139   0.242  0.00  0.00    -0.610 N 
ATOM      2  C   LIG    1        0.144  -0.507   1.465  0.00  0.00    +0.520 C 
ATOM      3  O   LIG    1        0.643  -1.601   1.627  0.00  0.00    -0.530 OA
ENDROOT
BRANCH   2   4
ATOM      4  C   LIG    1        0.006   0.438   2.630  0.00  0.00    +0.000 C 
ATOM      5  C   LIG    1        1.193   1.404   2.646  0.00  0.00    +0.040 C 
ATOM      6  C   LIG    1        1.032   2.386   3.811  0.00  0.00    +0.300 C 
ATOM      7  N   LIG    1        0.859   1.621   5.053  0.00  0.00    -1.000 NA
ATOM      8  C   LIG    1       -0.196   0.601   5.114  0.00  0.00    +0.300 C 
ATOM      9  C   LIG    1       -0.021  -0.361   3.935  0.00  0.00    +0.040 C 
BRANCH   7  10
ATOM     10  S   LIG    1        1.837   1.903   6.360  0.00  0.00    +2.790 S 
ATOM     11  O   LIG    1        1.115   1.464   7.503  0.00  0.00    -0.980 OA
ATOM     12  O   LIG    1        2.329   3.228   6.214  0.00  0.00    -0.980 OA
BRANCH  10  13
ATOM     13  N   LIG    1        3.146   0.899   6.219  0.00  0.00    -1.260 NA
ATOM     14  H   LIG    1        3.054   0.042   5.774  0.00  0.00    +0.420 HD
ATOM     15  H   LIG    1        4.005   1.168   6.581  0.00  0.00    +0.420 HD
ENDBRANCH  10  13
ENDBRANCH   7  10
ENDBRANCH   2   4
BRANCH   1  17
ATOM     16  C   LIG    1        0.352   2.074  -0.582  0.00  0.00    +0.020 C 
ATOM     17  C   LIG    1       -0.772   1.226   0.017  0.00  0.00    +0.260 C 
ENDBRANCH   1  17
BRANCH   1  18
ATOM     18  C   LIG    1       -0.272  -1.102  -0.862  0.00  0.00    +0.360 C 
BRANCH  18  19
ATOM     19  C   LIG    1        1.050  -1.021  -1.581  0.00  0.00    -0.190 A 
ATOM     20  C   LIG    1        1.295  -0.372  -2.730  0.00  0.00    +0.230 A 
ATOM     21  N   LIG    1        2.610  -0.520  -3.078  0.00  0.00    -0.600 N 
ATOM     22  H   LIG    1        3.023  -0.141  -3.869  0.00  0.00    +0.410 HD
ATOM     23  C   LIG    1        3.260  -1.287  -2.137  0.00  0.00    +0.090 A 
ATOM     24  C   LIG    1        4.571  -1.733  -2.004  0.00  0.00    -0.020 A 
ATOM     25  C   LIG    1        4.924  -2.506  -0.919  0.00  0.00    +0.020 A 
ATOM     26  C   LIG    1        3.984  -2.846   0.044  0.00  0.00    -0.030 A 
ATOM     27  C   LIG    1        2.690  -2.419  -0.067  0.00  0.00    +0.090 A 
ATOM     28  C   LIG    1        2.312  -1.629  -1.154  0.00  0.00    -0.090 A 
ENDBRANCH  18  19
ENDBRANCH   1  18
TORSDOF 6
