REMARK  Name = ZINCrD00000hQ6xQ.0
REMARK                            x       y       z     vdW  Elec       q    Type
REMARK                         _______ _______ _______ _____ _____    ______ ____
ROOT
ATOM      1  C   LIG    1       -0.286   1.951   1.147  0.00  0.00    +0.000 C 
ENDROOT
BRANCH   1   2
ATOM      2  C   LIG    1        0.040   3.443   1.240  0.00  0.00    +0.270 C 
BRANCH   2   4
ATOM      3  C   LIG    1       -0.131   5.238   2.879  0.00  0.00    +0.520 C 
ATOM      4  N   LIG    1       -0.329   3.942   2.567  0.00  0.00    -0.730 N 
ATOM      5  H   LIG    1       -0.717   3.340   3.221  0.00  0.00    +0.400 HD
ATOM      6  O   LIG    1        0.354   5.991   2.062  0.00  0.00    -0.530 OA
BRANCH   3   7
ATOM      7  C   LIG    1       -0.511   5.751   4.244  0.00  0.00    +0.040 C 
BRANCH   7   8
ATOM      8  C   LIG    1       -0.184   7.243   4.337  0.00  0.00    +0.130 C 
BRANCH   8   9
ATOM      9  C   LIG    1       -0.570   7.764   5.723  0.00  0.00    +0.040 C 
ATOM     10  N   LIG    1       -0.535   6.836   6.856  0.00  0.00    -0.120 NA
ATOM     11  N   LIG    1       -1.671   7.111   6.436  0.00  0.00    -0.120 NA
BRANCH   9  12
ATOM     12  C   LIG    1       -0.307   9.248   5.984  0.00  0.00    +0.120 C 
BRANCH  12  13
ATOM     13  C   LIG    1       -0.748   9.602   7.407  0.00  0.00    +0.160 C 
BRANCH  13  15
ATOM     14  C   LIG    1       -0.293  12.169   7.858  0.00  0.00    +0.030 C 
ATOM     15  C   LIG    1       -0.495  11.030   7.658  0.00  0.00    -0.190 C 
ENDBRANCH  13  15
ENDBRANCH  12  13
ENDBRANCH   9  12
ENDBRANCH   8   9
ENDBRANCH   7   8
ENDBRANCH   3   7
ENDBRANCH   2   4
ENDBRANCH   1   2
BRANCH   1  16
ATOM     16  C   LIG    1        0.213   1.402  -0.191  0.00  0.00    +0.080 C 
BRANCH  16  17
ATOM     17  C   LIG    1        0.026  -0.093  -0.222  0.00  0.00    +0.000 A 
ATOM     18  C   LIG    1        0.697  -0.892   0.684  0.00  0.00    +0.020 A 
ATOM     19  C   LIG    1        0.525  -2.264   0.656  0.00  0.00    +0.050 A 
ATOM     20  C   LIG    1       -0.318  -2.835  -0.279  0.00  0.00    +0.000 A 
ATOM     21  C   LIG    1       -0.989  -2.036  -1.185  0.00  0.00    +0.060 A 
ATOM     22  C   LIG    1       -0.822  -0.664  -1.153  0.00  0.00    -0.170 A 
BRANCH  22  23
ATOM     23  C   LIG    1       -1.558   0.208  -2.137  0.00  0.00    +0.510 C 
ATOM     24  F   LIG    1       -0.635   0.931  -2.901  0.00  0.00    -0.180 F 
ATOM     25  F   LIG    1       -2.386   1.097  -1.444  0.00  0.00    -0.180 F 
ATOM     26  F   LIG    1       -2.335  -0.593  -2.980  0.00  0.00    -0.180 F 
ENDBRANCH  22  23
ENDBRANCH  16  17
ENDBRANCH   1  16
BRANCH   1  27
ATOM     27  C   LIG    1       -1.800   1.754   1.246  0.00  0.00    +0.170 C 
BRANCH  27  28
ATOM     28  O   LIG    1       -2.096   0.356   1.289  0.00  0.00    -0.560 OA
ATOM     29  H   LIG    1       -3.042   0.154   1.277  0.00  0.00    +0.380 HD
ENDBRANCH  27  28
ENDBRANCH   1  27
TORSDOF 13
