REMARK  Name = ZINCrD00000l6NGw.0
REMARK                            x       y       z     vdW  Elec       q    Type
REMARK                         _______ _______ _______ _____ _____    ______ ____
ROOT
ATOM      1  O   LIG    1        1.164  -3.821   5.125  0.00  0.00    -0.530 OA
ATOM      2  C   LIG    1        0.229  -4.160   4.431  0.00  0.00    +0.530 C 
ATOM      3  N   LIG    1       -0.037  -3.498   3.288  0.00  0.00    -0.620 N 
ATOM      4  C   LIG    1       -1.137  -3.802   2.354  0.00  0.00    +0.260 C 
ATOM      5  C   LIG    1       -1.397  -2.473   1.603  0.00  0.00    +0.020 C 
ATOM      6  C   LIG    1        0.042  -1.913   1.452  0.00  0.00    +0.160 C 
ATOM      7  C   LIG    1        0.728  -2.354   2.761  0.00  0.00    +0.270 C 
ENDROOT
BRANCH   6   8
ATOM      8  O   LIG    1        0.021  -0.488   1.347  0.00  0.00    -0.370 OA
BRANCH   8   9
ATOM      9  C   LIG    1        0.002  -0.004   0.002  0.00  0.00    +0.220 C 
BRANCH   9  10
ATOM     10  C   LIG    1       -0.018   1.503   0.010  0.00  0.00    -0.100 A 
ATOM     11  C   LIG    1       -1.225   2.178   0.020  0.00  0.00    +0.020 A 
ATOM     12  C   LIG    1       -1.244   3.560   0.033  0.00  0.00    +0.000 A 
ATOM     13  C   LIG    1       -0.056   4.267   0.025  0.00  0.00    +0.010 A 
ATOM     14  C   LIG    1        1.151   3.592   0.010  0.00  0.00    +0.000 A 
ATOM     15  C   LIG    1        1.169   2.210   0.003  0.00  0.00    +0.020 A 
ENDBRANCH   9  10
ENDBRANCH   8   9
ENDBRANCH   6   8
BRANCH   2  16
ATOM     16  C   LIG    1       -0.638  -5.320   4.849  0.00  0.00    +0.060 C 
BRANCH  16  17
ATOM     17  C   LIG    1       -0.124  -5.889   6.173  0.00  0.00    +0.150 C 
BRANCH  17  18
ATOM     18  C   LIG    1       -0.991  -7.050   6.590  0.00  0.00    -0.030 A 
ATOM     19  C   LIG    1       -0.866  -8.330   6.191  0.00  0.00    +0.150 A 
ATOM     20  N   LIG    1       -1.824  -9.049   6.795  0.00  0.00    -0.490 NA
ATOM     21  C   LIG    1       -2.542  -8.262   7.550  0.00  0.00    +0.210 A 
ATOM     22  C   LIG    1       -3.710  -8.677   8.409  0.00  0.00    +0.150 C 
ATOM     23  C   LIG    1       -4.869  -7.701   8.190  0.00  0.00    +0.020 C 
ATOM     24  C   LIG    1       -4.740  -6.529   9.159  0.00  0.00    +0.020 C 
ATOM     25  C   LIG    1       -3.268  -6.212   9.417  0.00  0.00    +0.030 C 
ATOM     26  C   LIG    1       -2.590  -5.811   8.105  0.00  0.00    +0.270 C 
ATOM     27  N   LIG    1       -2.059  -7.005   7.442  0.00  0.00    -0.450 N 
ENDBRANCH  17  18
ENDBRANCH  16  17
ENDBRANCH   2  16
TORSDOF 6
