REMARK  Name = ZINCrg000000swDP.0
REMARK                            x       y       z     vdW  Elec       q    Type
REMARK                         _______ _______ _______ _____ _____    ______ ____
ROOT
ATOM      1  C   LIG    1        0.960   2.007  -0.035  0.00  0.00    +0.260 C 
ENDROOT
BRANCH   1   2
ATOM      2  C   LIG    1       -0.446   1.515  -0.261  0.00  0.00    +0.510 C 
ATOM      3  N   LIG    1       -1.490   2.347  -0.072  0.00  0.00    -0.600 N 
ATOM      4  C   LIG    1       -1.269   3.763   0.252  0.00  0.00    +0.250 C 
ATOM      5  C   LIG    1       -2.044   4.109   1.522  0.00  0.00    +0.030 C 
ATOM      6  C   LIG    1       -3.515   3.728   1.340  0.00  0.00    +0.010 C 
ATOM      7  C   LIG    1       -3.626   2.221   1.099  0.00  0.00    +0.020 C 
ATOM      8  C   LIG    1       -2.869   1.854  -0.181  0.00  0.00    +0.280 C 
ATOM      9  O   LIG    1       -0.639   0.372  -0.617  0.00  0.00    -0.500 OA
BRANCH   6  10
ATOM     10  C   LIG    1       -4.298   4.103   2.599  0.00  0.00    +0.060 C 
BRANCH  10  11
ATOM     11  C   LIG    1       -4.291   5.600   2.768  0.00  0.00    +0.520 C 
ATOM     12  O   LIG    1       -3.716   6.299   1.961  0.00  0.00    -0.540 OA
ATOM     13  N   LIG    1       -4.924   6.163   3.817  0.00  0.00    -0.860 N 
ATOM     14  H   LIG    1       -4.920   7.127   3.926  0.00  0.00    +0.400 HD
ATOM     15  H   LIG    1       -5.384   5.604   4.463  0.00  0.00    +0.400 HD
ENDBRANCH  10  11
ENDBRANCH   6  10
ENDBRANCH   1   2
BRANCH   1  21
ATOM     16  C   LIG    1        2.188   4.865  -0.226  0.00  0.00    +0.210 C 
ATOM     17  C   LIG    1        1.986   3.882  -1.351  0.00  0.00    +0.190 A 
ATOM     18  N   LIG    1        2.298   4.061  -2.611  0.00  0.00    -0.300 NA
ATOM     19  N   LIG    1        1.966   2.998  -3.258  0.00  0.00    -0.070 NA
ATOM     20  N   LIG    1        1.457   2.142  -2.442  0.00  0.00    -0.080 NA
ATOM     21  N   LIG    1        1.454   2.650  -1.255  0.00  0.00    -0.300 N 
ENDBRANCH   1  21
BRANCH   1  22
ATOM     22  C   LIG    1        1.863   0.824   0.320  0.00  0.00    +0.140 C 
BRANCH  22  23
ATOM     23  C   LIG    1        3.241   1.330   0.666  0.00  0.00    -0.110 A 
ATOM     24  C   LIG    1        4.197   1.458  -0.324  0.00  0.00    +0.050 A 
ATOM     25  C   LIG    1        5.459   1.927  -0.009  0.00  0.00    -0.010 A 
ATOM     26  C   LIG    1        5.768   2.257   1.299  0.00  0.00    +0.110 A 
ATOM     27  C   LIG    1        4.811   2.122   2.290  0.00  0.00    -0.010 A 
ATOM     28  F   LIG    1        7.003   2.709   1.609  0.00  0.00    -0.140 F 
ATOM     29  C   LIG    1        3.548   1.659   1.973  0.00  0.00    +0.060 A 
ENDBRANCH  22  23
ENDBRANCH   1  22
TORSDOF 6
