REMARK  Name = ZINCnE000001Obfn.1
REMARK                            x       y       z     vdW  Elec       q    Type
REMARK                         _______ _______ _______ _____ _____    ______ ____
ROOT
ATOM      1  N   LIG    1       -0.721   1.571  -1.179  0.00  0.00    -0.750 N 
ATOM      2  H   LIG    1       -1.516   2.118  -1.079  0.00  0.00    +0.390 HD
ATOM      3  C   LIG    1       -0.268   1.258  -2.409  0.00  0.00    +0.560 C 
ATOM      4  O   LIG    1        0.729   0.574  -2.534  0.00  0.00    -0.510 OA
ENDROOT
BRANCH   3   5
ATOM      5  C   LIG    1       -0.982   1.747  -3.605  0.00  0.00    -0.220 A 
ATOM      6  C   LIG    1       -2.120   2.522  -3.457  0.00  0.00    +0.070 A 
ATOM      7  C   LIG    1       -2.791   2.989  -4.597  0.00  0.00    -0.160 A 
ATOM      8  C   LIG    1       -3.947   3.783  -4.485  0.00  0.00    +0.040 A 
ATOM      9  C   LIG    1       -4.579   4.216  -5.610  0.00  0.00    -0.090 A 
ATOM     10  C   LIG    1       -4.099   3.884  -6.875  0.00  0.00    -0.010 A 
ATOM     11  C   LIG    1       -2.983   3.118  -7.023  0.00  0.00    -0.040 A 
ATOM     12  C   LIG    1       -2.302   2.652  -5.886  0.00  0.00    +0.030 A 
ATOM     13  C   LIG    1       -1.148   1.859  -6.008  0.00  0.00    -0.200 A 
ATOM     14  C   LIG    1       -0.503   1.417  -4.891  0.00  0.00    +0.300 A 
ATOM     15  O   LIG    1        0.610   0.652  -5.017  0.00  0.00    -0.670 OA
ENDBRANCH   3   5
BRANCH   1  16
ATOM     16  C   LIG    1       -0.013   1.086   0.008  0.00  0.00    +0.240 C 
BRANCH  16  17
ATOM     17  C   LIG    1       -0.729   1.579   1.267  0.00  0.00    +0.020 C 
BRANCH  17  21
ATOM     18  C   LIG    1        1.540   1.502   4.994  0.00  0.00    +0.000 C 
ATOM     19  C   LIG    1        0.066   1.093   5.002  0.00  0.00    +0.190 C 
ATOM     20  C   LIG    1       -0.630   1.667   3.764  0.00  0.00    +0.000 C 
ATOM     21  C   LIG    1        0.011   1.072   2.506  0.00  0.00    -0.010 C 
ATOM     22  C   LIG    1       -0.084  -0.455   2.571  0.00  0.00    -0.010 C 
ATOM     23  C   LIG    1        0.591  -0.947   3.854  0.00  0.00    +0.200 C 
ATOM     24  O   LIG    1       -0.033  -0.332   4.984  0.00  0.00    -0.380 OA
ENDBRANCH  17  21
ENDBRANCH  16  17
ENDBRANCH   1  16
TORSDOF 4
