REMARK  Name = ZINCpk00000ea1Xw.0
REMARK                            x       y       z     vdW  Elec       q    Type
REMARK                         _______ _______ _______ _____ _____    ______ ____
ROOT
ATOM      1  C   LIG    1       -1.947  -2.700   1.518  0.00  0.00    +0.050 C 
ATOM      2  C   LIG    1       -1.105  -1.429   1.730  0.00  0.00    +0.240 C 
ATOM      3  N   LIG    1       -1.185  -0.641   0.481  0.00  0.00    -0.460 N 
ATOM      4  C   LIG    1       -1.474  -1.621  -0.597  0.00  0.00    +0.220 C 
ATOM      5  C   LIG    1       -2.477  -2.596   0.069  0.00  0.00    +0.110 C 
ENDROOT
BRANCH   3   6
ATOM      6  C   LIG    1        0.007   0.030   0.237  0.00  0.00    +0.330 A 
ATOM      7  N   LIG    1        1.159  -0.552   0.531  0.00  0.00    -0.500 NA
ATOM      8  C   LIG    1        2.314   0.050   0.316  0.00  0.00    +0.380 A 
ATOM      9  C   LIG    1        2.360   1.318  -0.227  0.00  0.00    -0.100 A 
ATOM     10  C   LIG    1        1.174   1.964  -0.549  0.00  0.00    +0.160 A 
ATOM     11  C   LIG    1       -0.021   1.308  -0.312  0.00  0.00    -0.100 A 
ATOM     12  C   LIG    1       -1.334   1.968  -0.645  0.00  0.00    +0.140 C 
BRANCH   9  13
ATOM     13  N   LIG    1        3.661   1.983  -0.464  0.00  0.00    +0.030 N 
ATOM     14  O   LIG    1        4.698   1.411  -0.179  0.00  0.00    -0.150 OA
ATOM     15  O   LIG    1        3.695   3.102  -0.943  0.00  0.00    -0.150 OA
ENDBRANCH   9  13
ENDBRANCH   3   6
BRANCH   5  16
ATOM     16  C   LIG    1       -2.443  -3.942  -0.609  0.00  0.00    -0.020 A 
ATOM     17  C   LIG    1       -1.515  -4.903  -0.440  0.00  0.00    +0.150 A 
ATOM     18  N   LIG    1       -1.848  -5.943  -1.219  0.00  0.00    -0.490 NA
ATOM     19  C   LIG    1       -2.942  -5.659  -1.871  0.00  0.00    +0.400 A 
ATOM     20  N   LIG    1       -3.347  -4.420  -1.519  0.00  0.00    -0.450 N 
ATOM     21  C   LIG    1       -4.532  -3.718  -2.018  0.00  0.00    +0.330 C 
ENDBRANCH   5  16
BRANCH   1  22
ATOM     22  C   LIG    1       -3.095  -2.737   2.494  0.00  0.00    +0.470 C 
ATOM     23  O   LIG    1       -4.233  -2.737   2.088  0.00  0.00    -0.500 OA
BRANCH  22  25
ATOM     24  C   LIG    1       -4.007  -2.802   4.694  0.00  0.00    +0.270 C 
ATOM     25  O   LIG    1       -2.853  -2.768   3.813  0.00  0.00    -0.350 OA
ENDBRANCH  22  25
ENDBRANCH   1  22
TORSDOF 5
