REMARK  Name = ZINCAx000000084S.0
REMARK                            x       y       z     vdW  Elec       q    Type
REMARK                         _______ _______ _______ _____ _____    ______ ____
ROOT
ATOM      1  C   LIG    1        2.414   0.022  -0.020  0.00  0.00    +0.100 A 
ATOM      2  C   LIG    1        2.402   1.403  -0.013  0.00  0.00    +0.020 A 
ATOM      3  C   LIG    1        1.184   2.089   0.002  0.00  0.00    -0.100 A 
ATOM      4  C   LIG    1       -0.017   1.374   0.010  0.00  0.00    +0.100 A 
ATOM      5  C   LIG    1        0.002  -0.004   0.002  0.00  0.00    -0.120 A 
ATOM      6  C   LIG    1        1.212  -0.685  -0.013  0.00  0.00    +0.130 A 
ENDROOT
BRANCH   1   8
ATOM      7  C   LIG    1        4.789   0.140  -0.042  0.00  0.00    +0.250 C 
ATOM      8  O   LIG    1        3.597  -0.648  -0.035  0.00  0.00    -0.300 OA
ENDBRANCH   1   8
BRANCH   3   9
ATOM      9  C   LIG    1        1.166   3.563   0.010  0.00  0.00    +0.520 C 
ATOM     10  O   LIG    1        0.106   4.158   0.022  0.00  0.00    -0.490 OA
BRANCH   9  11
ATOM     11  O   LIG    1        2.324   4.251   0.002  0.00  0.00    -0.330 OA
BRANCH  11  12
ATOM     12  C   LIG    1        2.231   5.700   0.010  0.00  0.00    +0.270 C 
BRANCH  12  13
ATOM     13  C   LIG    1        3.616   6.293   0.000  0.00  0.00    +0.520 C 
ATOM     14  N   LIG    1        3.776   7.632   0.006  0.00  0.00    -0.720 N 
ATOM     15  H   LIG    1        3.000   8.213   0.016  0.00  0.00    +0.410 HD
ATOM     16  O   LIG    1        4.587   5.566  -0.012  0.00  0.00    -0.500 OA
BRANCH  14  17
ATOM     17  C   LIG    1        5.123   8.208  -0.004  0.00  0.00    +0.290 C 
ATOM     18  C   LIG    1        5.887   7.739   1.236  0.00  0.00    +0.080 C 
BRANCH  17  19
ATOM     19  C   LIG    1        5.024   9.735   0.005  0.00  0.00    +0.010 C 
ATOM     20  C   LIG    1        4.371  10.211  -1.294  0.00  0.00    +0.030 C 
ATOM     21  C   LIG    1        6.427  10.336   0.120  0.00  0.00    +0.050 C 
ENDBRANCH  17  19
BRANCH  17  22
ATOM     22  C   LIG    1        5.836   7.769  -1.215  0.00  0.00    +0.200 C 
ATOM     23  N   LIG    1        6.386   7.431  -2.149  0.00  0.00    -0.410 NA
ENDBRANCH  17  22
ENDBRANCH  14  17
ENDBRANCH  12  13
ENDBRANCH  11  12
ENDBRANCH   9  11
ENDBRANCH   3   9
BRANCH   6  24
ATOM     24  O   LIG    1        1.225  -2.043  -0.021  0.00  0.00    -0.310 OA
ATOM     25  C   LIG    1        1.219  -2.685  -1.297  0.00  0.00    +0.230 C 
ENDBRANCH   6  24
BRANCH   5  26
ATOM     26  C   LIG    1       -1.294  -0.773   0.011  0.00  0.00    +0.380 C 
BRANCH  26  27
ATOM     27  N   LIG    1       -1.578  -1.236   1.371  0.00  0.00    -0.570 N 
ATOM     28  C   LIG    1       -1.174  -2.417   1.873  0.00  0.00    +0.570 C 
ATOM     29  C   LIG    1       -1.647  -2.522   3.270  0.00  0.00    -0.140 A 
ATOM     30  C   LIG    1       -1.536  -3.485   4.260  0.00  0.00    +0.090 A 
ATOM     31  C   LIG    1       -2.120  -3.268   5.498  0.00  0.00    +0.050 A 
ATOM     32  C   LIG    1       -2.812  -2.099   5.751  0.00  0.00    +0.040 A 
ATOM     33  C   LIG    1       -2.932  -1.127   4.770  0.00  0.00    +0.100 A 
ATOM     34  C   LIG    1       -2.354  -1.330   3.528  0.00  0.00    -0.140 A 
ATOM     35  O   LIG    1       -0.527  -3.256   1.279  0.00  0.00    -0.430 OA
ATOM     36  C   LIG    1       -2.281  -0.539   2.281  0.00  0.00    +0.570 C 
ATOM     37  O   LIG    1       -2.773   0.558   2.108  0.00  0.00    -0.460 OA
ENDBRANCH  26  27
ENDBRANCH   5  26
TORSDOF 11
