REMARK  Name = ZINCqH0000036Zly.0
REMARK                            x       y       z     vdW  Elec       q    Type
REMARK                         _______ _______ _______ _____ _____    ______ ____
ROOT
ATOM      1  C   LIG    1       -3.936   1.766  -0.177  0.00  0.00    +0.540 C 
ATOM      2  N   LIG    1       -2.862   1.334   0.514  0.00  0.00    -0.660 N 
ATOM      3  H   LIG    1       -2.843   0.431   0.867  0.00  0.00    +0.420 HD
ATOM      4  O   LIG    1       -3.921   2.860  -0.700  0.00  0.00    -0.500 OA
ENDROOT
BRANCH   1  15
ATOM      5  C   LIG    1       -5.504   1.651  -2.661  0.00  0.00    +0.100 C 
ATOM      6  C   LIG    1       -5.320   0.431  -1.756  0.00  0.00    +0.160 C 
ATOM      7  O   LIG    1       -6.477  -0.408  -1.834  0.00  0.00    -0.300 OA
ATOM      8  C   LIG    1       -6.602  -1.369  -0.878  0.00  0.00    +0.050 A 
ATOM      9  C   LIG    1       -7.477  -2.425  -1.083  0.00  0.00    +0.030 A 
ATOM     10  C   LIG    1       -7.616  -3.406  -0.120  0.00  0.00    +0.030 A 
ATOM     11  C   LIG    1       -6.885  -3.337   1.051  0.00  0.00    +0.020 A 
ATOM     12  C   LIG    1       -6.011  -2.288   1.262  0.00  0.00    +0.030 A 
ATOM     13  C   LIG    1       -5.865  -1.301   0.299  0.00  0.00    +0.050 A 
ATOM     14  O   LIG    1       -4.997  -0.276   0.519  0.00  0.00    -0.310 OA
ATOM     15  C   LIG    1       -5.155   0.888  -0.300  0.00  0.00    +0.160 C 
ENDBRANCH   1  15
BRANCH   2  16
ATOM     16  C   LIG    1       -1.774   2.189   0.721  0.00  0.00    +0.140 A 
ATOM     17  C   LIG    1       -1.981   3.554   0.876  0.00  0.00    +0.030 A 
ATOM     18  C   LIG    1       -0.905   4.396   1.074  0.00  0.00    +0.030 A 
ATOM     19  C   LIG    1        0.377   3.881   1.125  0.00  0.00    +0.020 A 
ATOM     20  C   LIG    1        0.587   2.522   0.978  0.00  0.00    -0.070 A 
ATOM     21  C   LIG    1       -0.485   1.675   0.779  0.00  0.00    +0.010 A 
BRANCH  20  22
ATOM     22  C   LIG    1        1.986   1.965   1.034  0.00  0.00    +0.220 C 
BRANCH  22  23
ATOM     23  O   LIG    1        2.547   1.952  -0.280  0.00  0.00    -0.380 OA
BRANCH  23  24
ATOM     24  C   LIG    1        3.879   1.440  -0.338  0.00  0.00    +0.190 C 
BRANCH  24  25
ATOM     25  C   LIG    1        4.376   1.473  -1.785  0.00  0.00    -0.050 C 
ATOM     26  C   LIG    1        4.694   0.134  -2.453  0.00  0.00    +0.020 C 
ATOM     27  C   LIG    1        5.830   1.072  -2.042  0.00  0.00    +0.030 C 
ENDBRANCH  24  25
ENDBRANCH  23  24
ENDBRANCH  22  23
ENDBRANCH  20  22
ENDBRANCH   2  16
TORSDOF 6
