REMARK  Name = ZINCrg000000rXw3.0
REMARK                            x       y       z     vdW  Elec       q    Type
REMARK                         _______ _______ _______ _____ _____    ______ ____
ROOT
ATOM      1  C   LIG    1       -0.351   6.052   3.745  0.00  0.00    +0.110 A 
ATOM      2  C   LIG    1        0.960   5.599   3.816  0.00  0.00    +0.060 A 
ATOM      3  C   LIG    1        1.238   4.259   3.631  0.00  0.00    +0.020 A 
ATOM      4  C   LIG    1        0.211   3.367   3.381  0.00  0.00    +0.160 A 
ATOM      5  C   LIG    1       -1.095   3.815   3.304  0.00  0.00    -0.650 A 
ATOM      6  C   LIG    1       -1.380   5.154   3.488  0.00  0.00    +0.130 A 
ENDROOT
BRANCH   1   8
ATOM      7  C   LIG    1       -1.791   7.778   4.519  0.00  0.00    +0.510 C 
ATOM      8  N   LIG    1       -0.636   7.407   3.932  0.00  0.00    -0.640 N 
ATOM      9  H   LIG    1       -0.002   8.081   3.640  0.00  0.00    +0.430 HD
ATOM     10  O   LIG    1       -2.540   6.937   4.971  0.00  0.00    -0.480 OA
BRANCH   7  13
ATOM     11  N   LIG    1       -3.304   9.596   5.199  0.00  0.00    -0.600 N 
ATOM     12  H   LIG    1       -3.903   8.923   5.561  0.00  0.00    +0.430 HD
ATOM     13  C   LIG    1       -2.149   9.224   4.613  0.00  0.00    +0.520 C 
ATOM     14  O   LIG    1       -1.400  10.066   4.161  0.00  0.00    -0.490 OA
BRANCH  11  18
ATOM     15  C   LIG    1       -3.288  14.569   4.862  0.00  0.00    +0.190 C 
ATOM     16  C   LIG    1       -3.624  13.125   5.136  0.00  0.00    -0.010 A 
ATOM     17  C   LIG    1       -2.877  12.046   4.811  0.00  0.00    -0.040 A 
ATOM     18  C   LIG    1       -3.639  10.946   5.287  0.00  0.00    +0.240 A 
ATOM     19  N   LIG    1       -4.720  11.454   5.819  0.00  0.00    -0.380 NA
ATOM     20  O   LIG    1       -4.723  12.661   5.748  0.00  0.00    +0.110 OA
ENDBRANCH  11  18
ENDBRANCH   7  13
ENDBRANCH   1   8
BRANCH   5  21
ATOM     21  S   LIG    1       -2.398   2.675   2.978  0.00  0.00    +2.690 S 
ATOM     22  O   LIG    1       -1.923   1.397   3.379  0.00  0.00    -0.920 OA
ATOM     23  O   LIG    1       -3.584   3.262   3.497  0.00  0.00    -0.940 OA
BRANCH  21  24
ATOM     24  N   LIG    1       -2.591   2.607   1.334  0.00  0.00    -1.020 N 
ATOM     25  H   LIG    1       -3.415   2.920   0.929  0.00  0.00    +0.440 HD
BRANCH  24  26
ATOM     26  C   LIG    1       -1.586   2.111   0.547  0.00  0.00    +0.370 C 
ATOM     27  N   LIG    1       -0.457   1.674   0.993  0.00  0.00    -0.550 NA
ATOM     28  C   LIG    1        0.420   1.203  -0.085  0.00  0.00    +0.220 C 
ATOM     29  C   LIG    1       -0.178   1.793  -1.383  0.00  0.00    +0.020 C 
ATOM     30  C   LIG    1       -1.652   2.002  -0.961  0.00  0.00    +0.060 C 
ENDBRANCH  24  26
ENDBRANCH  21  24
ENDBRANCH   5  21
TORSDOF 6
