REMARK  Name = ZINCrD00000bGMNY.0
REMARK                            x       y       z     vdW  Elec       q    Type
REMARK                         _______ _______ _______ _____ _____    ______ ____
ROOT
ATOM      1  C   LIG    1       -4.921   3.812   0.110  0.00  0.00    +0.290 C 
ATOM      2  C   LIG    1       -5.316   4.080   1.564  0.00  0.00    +0.040 C 
ENDROOT
BRANCH   1   3
ATOM      3  C   LIG    1       -3.618   3.055   0.075  0.00  0.00    -0.080 A 
ATOM      4  C   LIG    1       -3.609   1.690   0.293  0.00  0.00    +0.030 A 
ATOM      5  C   LIG    1       -2.417   0.990   0.268  0.00  0.00    +0.020 A 
ATOM      6  C   LIG    1       -1.229   1.659   0.017  0.00  0.00    +0.100 A 
ATOM      7  N   LIG    1       -0.011   0.966   0.007  0.00  0.00    -0.660 N 
ATOM      8  H   LIG    1        0.002  -0.004   0.002  0.00  0.00    +0.420 HD
ATOM      9  C   LIG    1        1.143   1.665   0.000  0.00  0.00    +0.500 C 
ATOM     10  C   LIG    1        1.109   3.165   0.148  0.00  0.00    +0.230 C 
ATOM     11  O   LIG    1       -0.073   3.682  -0.468  0.00  0.00    -0.290 OA
ATOM     12  O   LIG    1        2.204   1.089  -0.125  0.00  0.00    -0.500 OA
ATOM     13  C   LIG    1       -1.240   3.033  -0.208  0.00  0.00    +0.090 A 
ATOM     14  C   LIG    1       -2.436   3.728  -0.176  0.00  0.00    +0.050 A 
BRANCH  10  15
ATOM     15  C   LIG    1        1.109   3.531   1.633  0.00  0.00    +0.010 C 
ATOM     16  C   LIG    1        1.200   5.051   1.784  0.00  0.00    +0.030 C 
ENDBRANCH  10  15
ENDBRANCH   1   3
BRANCH   1  18
ATOM     17  C   LIG    1       -7.038   3.629  -1.081  0.00  0.00    +0.520 C 
ATOM     18  N   LIG    1       -5.965   3.018  -0.541  0.00  0.00    -0.730 N 
ATOM     19  H   LIG    1       -5.885   2.052  -0.585  0.00  0.00    +0.400 HD
ATOM     20  O   LIG    1       -7.140   4.837  -1.027  0.00  0.00    -0.530 OA
BRANCH  17  21
ATOM     21  C   LIG    1       -8.113   2.812  -1.752  0.00  0.00    +0.040 C 
BRANCH  21  22
ATOM     22  C   LIG    1       -9.209   3.743  -2.275  0.00  0.00    +0.130 C 
BRANCH  22  23
ATOM     23  C   LIG    1      -10.300   2.913  -2.955  0.00  0.00    +0.040 C 
ATOM     24  N   LIG    1      -10.528   1.542  -2.495  0.00  0.00    -0.120 NA
ATOM     25  N   LIG    1       -9.927   1.640  -3.577  0.00  0.00    -0.120 NA
BRANCH  23  26
ATOM     26  C   LIG    1      -11.479   3.695  -3.538  0.00  0.00    +0.120 C 
BRANCH  26  27
ATOM     27  C   LIG    1      -12.471   2.721  -4.177  0.00  0.00    +0.160 C 
BRANCH  27  29
ATOM     28  C   LIG    1      -14.510   4.074  -5.185  0.00  0.00    +0.030 C 
ATOM     29  C   LIG    1      -13.605   3.474  -4.738  0.00  0.00    -0.190 C 
ENDBRANCH  27  29
ENDBRANCH  26  27
ENDBRANCH  23  26
ENDBRANCH  22  23
ENDBRANCH  21  22
ENDBRANCH  17  21
ENDBRANCH   1  18
TORSDOF 9
