REMARK  Name = ZINCrD00000hQ4eu.0
REMARK                            x       y       z     vdW  Elec       q    Type
REMARK                         _______ _______ _______ _____ _____    ______ ____
ROOT
ATOM      1  C   LIG    1       -0.156   1.491   6.309  0.00  0.00    +0.520 C 
ATOM      2  N   LIG    1        0.440   1.093   7.450  0.00  0.00    -0.610 N 
ATOM      3  C   LIG    1        1.577   0.163   7.416  0.00  0.00    +0.280 C 
ATOM      4  C   LIG    1        1.276  -1.024   8.331  0.00  0.00    +0.030 C 
ATOM      5  C   LIG    1        0.924  -0.511   9.729  0.00  0.00    +0.080 C 
ATOM      6  C   LIG    1       -0.324   0.371   9.652  0.00  0.00    +0.020 C 
ATOM      7  C   LIG    1       -0.038   1.577   8.752  0.00  0.00    +0.280 C 
ATOM      8  O   LIG    1       -1.097   2.256   6.351  0.00  0.00    -0.530 OA
ENDROOT
BRANCH   5   9
ATOM      9  C   LIG    1        0.657  -1.681  10.640  0.00  0.00    +0.090 A 
ATOM     10  C   LIG    1        1.554  -2.271  11.464  0.00  0.00    -0.090 A 
ATOM     11  C   LIG    1        0.903  -3.313  12.133  0.00  0.00    +0.060 A 
ATOM     12  N   LIG    1       -0.338  -3.352  11.719  0.00  0.00    -0.280 NA
ATOM     13  N   LIG    1       -0.517  -2.332  10.777  0.00  0.00    -0.470 N 
ATOM     14  H   LIG    1       -1.340  -2.129  10.305  0.00  0.00    +0.440 HD
BRANCH  11  15
ATOM     15  C   LIG    1        1.525  -4.235  13.150  0.00  0.00    +0.260 C 
ATOM     16  C   LIG    1        0.708  -4.198  14.459  0.00  0.00    +0.030 C 
ATOM     17  C   LIG    1        1.819  -4.246  15.543  0.00  0.00    +0.010 C 
ATOM     18  C   LIG    1        2.945  -3.441  14.846  0.00  0.00    +0.200 C 
ATOM     19  O   LIG    1        2.853  -3.795  13.457  0.00  0.00    -0.370 OA
ENDBRANCH  11  15
ENDBRANCH   5   9
BRANCH   1  20
ATOM     20  C   LIG    1        0.346   0.986   4.981  0.00  0.00    +0.050 C 
BRANCH  20  21
ATOM     21  C   LIG    1       -0.498   1.585   3.855  0.00  0.00    +0.130 C 
BRANCH  21  22
ATOM     22  C   LIG    1        0.011   1.072   2.506  0.00  0.00    +0.040 C 
ATOM     23  N   LIG    1        1.426   0.715   2.381  0.00  0.00    -0.120 NA
ATOM     24  N   LIG    1        0.647  -0.246   2.453  0.00  0.00    -0.120 NA
BRANCH  22  25
ATOM     25  C   LIG    1       -0.729   1.579   1.267  0.00  0.00    +0.120 C 
BRANCH  25  26
ATOM     26  C   LIG    1       -0.013   1.086   0.008  0.00  0.00    +0.160 C 
BRANCH  26  28
ATOM     27  C   LIG    1       -1.292   1.962  -2.136  0.00  0.00    +0.030 C 
ATOM     28  C   LIG    1       -0.725   1.573  -1.185  0.00  0.00    -0.190 C 
ENDBRANCH  26  28
ENDBRANCH  25  26
ENDBRANCH  22  25
ENDBRANCH  21  22
ENDBRANCH  20  21
ENDBRANCH   1  20
TORSDOF 8
