REMARK  Name = ZINCpk000000oQmQ.0
REMARK                            x       y       z     vdW  Elec       q    Type
REMARK                         _______ _______ _______ _____ _____    ______ ____
ROOT
ATOM      1  C   LIG    1        0.999   2.091  -0.797  0.00  0.00    -0.680 A 
ATOM      2  C   LIG    1        1.155   3.166   0.060  0.00  0.00    +0.150 A 
ATOM      3  C   LIG    1        0.126   3.539   0.906  0.00  0.00    +0.000 A 
ATOM      4  C   LIG    1       -1.063   2.840   0.901  0.00  0.00    +0.100 A 
ATOM      5  C   LIG    1       -1.229   1.757   0.035  0.00  0.00    -0.150 A 
ATOM      6  C   LIG    1       -0.185   1.384  -0.813  0.00  0.00    +0.180 A 
ENDROOT
BRANCH   5   7
ATOM      7  C   LIG    1       -2.503   1.007   0.019  0.00  0.00    +0.560 C 
ATOM      8  N   LIG    1       -3.674   1.665   0.130  0.00  0.00    -0.610 N 
ATOM      9  C   LIG    1       -3.715   3.135   0.147  0.00  0.00    +0.290 C 
ATOM     10  C   LIG    1       -4.740   3.600  -0.900  0.00  0.00    +0.200 C 
ATOM     11  N   LIG    1       -6.027   2.941  -0.644  0.00  0.00    -0.450 N 
ATOM     12  C   LIG    1       -5.920   1.484  -0.801  0.00  0.00    +0.220 C 
ATOM     13  C   LIG    1       -4.944   0.932   0.244  0.00  0.00    +0.300 C 
ATOM     14  O   LIG    1       -2.494  -0.203  -0.093  0.00  0.00    -0.520 OA
BRANCH  11  15
ATOM     15  C   LIG    1       -7.021   3.456  -1.462  0.00  0.00    +0.220 A 
ATOM     16  N   LIG    1       -7.758   2.756  -2.266  0.00  0.00    -0.510 NA
ATOM     17  C   LIG    1       -8.663   3.412  -2.971  0.00  0.00    +0.240 A 
ATOM     18  C   LIG    1       -8.682   4.728  -2.759  0.00  0.00    -0.100 A 
ATOM     19  S   LIG    1       -7.447   5.109  -1.563  0.00  0.00    +0.140 S 
ENDBRANCH  11  15
ENDBRANCH   5   7
BRANCH   1  20
ATOM     20  S   LIG    1        2.316   1.626  -1.872  0.00  0.00    +2.700 S 
ATOM     21  O   LIG    1        2.110   0.256  -2.188  0.00  0.00    -0.950 OA
ATOM     22  O   LIG    1        3.510   2.116  -1.278  0.00  0.00    -0.950 OA
BRANCH  20  23
ATOM     23  N   LIG    1        2.116   2.467  -3.284  0.00  0.00    -1.120 NA
ATOM     24  H   LIG    1        1.922   1.993  -4.108  0.00  0.00    +0.420 HD
BRANCH  23  26
ATOM     25  C   LIG    1        2.381   4.422  -4.730  0.00  0.00    +0.040 C 
ATOM     26  C   LIG    1        2.233   3.928  -3.290  0.00  0.00    +0.250 C 
ENDBRANCH  23  26
ENDBRANCH  20  23
ENDBRANCH   1  20
TORSDOF 5
