REMARK  Name = ZINCpk00000y03jv.0
REMARK                            x       y       z     vdW  Elec       q    Type
REMARK                         _______ _______ _______ _____ _____    ______ ____
ROOT
ATOM      1  C   LIG    1        1.034  -2.693  -1.443  0.00  0.00    -0.060 A 
ATOM      2  C   LIG    1        2.088  -3.097  -2.189  0.00  0.00    +0.180 A 
ATOM      3  N   LIG    1        1.583  -3.455  -3.393  0.00  0.00    -0.290 N 
ATOM      4  N   LIG    1        0.310  -3.267  -3.368  0.00  0.00    -0.050 NA
ATOM      5  N   LIG    1       -0.049  -2.813  -2.220  0.00  0.00    -0.250 NA
ENDROOT
BRANCH   1   6
ATOM      6  C   LIG    1        1.073  -2.199  -0.020  0.00  0.00    +0.430 C 
BRANCH   6  17
ATOM      7  O   LIG    1        3.388  -0.769  -0.035  0.00  0.00    -0.510 OA
ATOM      8  C   LIG    1        2.355  -0.126  -0.021  0.00  0.00    +0.550 A 
ATOM      9  C   LIG    1        2.370   1.345  -0.014  0.00  0.00    -0.200 A 
ATOM     10  C   LIG    1        3.560   2.069  -0.022  0.00  0.00    +0.100 A 
ATOM     11  C   LIG    1        3.516   3.446  -0.015  0.00  0.00    -0.010 A 
ATOM     12  C   LIG    1        2.299   4.114   0.001  0.00  0.00    +0.070 A 
ATOM     13  C   LIG    1        1.112   3.417   0.009  0.00  0.00    +0.030 A 
ATOM     14  C   LIG    1        1.130   2.021   0.002  0.00  0.00    +0.150 A 
ATOM     15  N   LIG    1       -0.015   1.294   0.009  0.00  0.00    -0.520 NA
ATOM     16  C   LIG    1        0.002  -0.004   0.002  0.00  0.00    +0.580 A 
ATOM     17  N   LIG    1        1.147  -0.736  -0.013  0.00  0.00    -0.540 N 
ENDBRANCH   6  17
ENDBRANCH   1   6
BRANCH   3  18
ATOM     18  C   LIG    1        2.354  -3.962  -4.531  0.00  0.00    +0.370 C 
BRANCH  18  19
ATOM     19  C   LIG    1        1.772  -5.302  -4.984  0.00  0.00    +0.150 C 
ATOM     20  C   LIG    1        2.578  -5.870  -6.181  0.00  0.00    +0.050 C 
ATOM     21  C   LIG    1        1.536  -6.789  -6.865  0.00  0.00    +0.260 C 
ATOM     22  C   LIG    1        0.178  -6.259  -6.365  0.00  0.00    +0.220 C 
ATOM     23  F   LIG    1        1.624  -6.675  -8.257  0.00  0.00    -0.180 F 
ATOM     24  F   LIG    1        1.720  -8.118  -6.469  0.00  0.00    -0.180 F 
ATOM     25  O   LIG    1        0.446  -5.123  -5.526  0.00  0.00    -0.330 OA
ENDBRANCH  18  19
ENDBRANCH   3  18
TORSDOF 4
