REMARK  Name = ZINCrH000004qSuX.0
REMARK                            x       y       z     vdW  Elec       q    Type
REMARK                         _______ _______ _______ _____ _____    ______ ____
ROOT
ATOM      1  N   LIG    1       -1.575   1.902   6.234  0.00  0.00    -0.700 N 
ATOM      2  H   LIG    1       -1.858   2.181   5.349  0.00  0.00    +0.410 HD
ATOM      3  C   LIG    1       -0.609   0.972   6.371  0.00  0.00    +0.570 C 
ATOM      4  O   LIG    1       -0.256   0.623   7.480  0.00  0.00    -0.490 OA
ENDROOT
BRANCH   3   5
ATOM      5  C   LIG    1        0.022   0.375   5.168  0.00  0.00    +0.170 A 
ATOM      6  N   LIG    1       -0.358   0.750   3.949  0.00  0.00    -0.490 NA
ATOM      7  C   LIG    1        0.203   0.220   2.875  0.00  0.00    +0.500 A 
ATOM      8  N   LIG    1        1.153  -0.701   2.966  0.00  0.00    -0.520 NA
ATOM      9  C   LIG    1        1.585  -1.118   4.143  0.00  0.00    +0.380 A 
ATOM     10  C   LIG    1        1.024  -0.589   5.298  0.00  0.00    -0.130 A 
ATOM     11 CL   LIG    1        1.556  -1.113   6.865  0.00  0.00    +0.000 Cl
BRANCH   7  12
ATOM     12  N   LIG    1       -0.217   0.633   1.622  0.00  0.00    -0.460 N 
ATOM     13  C   LIG    1        0.522  -0.067   0.561  0.00  0.00    +0.200 C 
ATOM     14  C   LIG    1       -0.013   0.375  -0.804  0.00  0.00    +0.230 C 
ATOM     15  O   LIG    1        0.097   1.796  -0.916  0.00  0.00    -0.380 OA
ATOM     16  C   LIG    1       -0.611   2.510   0.101  0.00  0.00    +0.240 C 
ATOM     17  C   LIG    1       -0.083   2.090   1.475  0.00  0.00    +0.200 C 
ENDBRANCH   7  12
ENDBRANCH   3   5
BRANCH   1  18
ATOM     18  C   LIG    1       -2.198   2.492   7.421  0.00  0.00    +0.310 C 
BRANCH  18  22
ATOM     19  C   LIG    1       -5.678   5.968   6.265  0.00  0.00    +0.150 C 
ATOM     20  C   LIG    1       -5.125   4.596   6.549  0.00  0.00    -0.180 A 
ATOM     21  C   LIG    1       -3.855   4.327   6.855  0.00  0.00    +0.010 A 
ATOM     22  C   LIG    1       -3.578   2.988   7.071  0.00  0.00    -0.120 A 
ATOM     23  C   LIG    1       -4.625   2.171   6.950  0.00  0.00    -0.160 A 
ATOM     24  C   LIG    1       -4.587   0.676   7.142  0.00  0.00    +0.140 C 
ATOM     25  S   LIG    1       -6.057   3.104   6.535  0.00  0.00    +0.110 S 
ENDBRANCH  18  22
BRANCH  18  26
ATOM     26  C   LIG    1       -1.346   3.662   7.917  0.00  0.00    -0.030 C 
ATOM     27  C   LIG    1        0.091   3.188   8.139  0.00  0.00    +0.030 C 
ATOM     28  C   LIG    1       -1.919   4.189   9.234  0.00  0.00    +0.030 C 
ENDBRANCH  18  26
ENDBRANCH   1  18
TORSDOF 5
