REMARK  Name = ZINCqH0000000Ge3.0
REMARK                            x       y       z     vdW  Elec       q    Type
REMARK                         _______ _______ _______ _____ _____    ______ ____
ROOT
ATOM      1  C   LIG    1        1.605   3.696  -0.994  0.00  0.00    +0.680 C 
ATOM      2  N   LIG    1        0.308   3.860  -1.321  0.00  0.00    -0.630 N 
ATOM      3  C   LIG    1       -0.489   4.882  -2.019  0.00  0.00    +0.270 C 
ATOM      4  C   LIG    1       -1.479   3.773  -2.402  0.00  0.00    +0.050 C 
ATOM      5  C   LIG    1       -0.933   3.098  -1.139  0.00  0.00    +0.180 C 
ATOM      6  C   LIG    1       -0.746   1.588  -1.289  0.00  0.00    +0.030 C 
ATOM      7  C   LIG    1        0.001   1.052  -0.062  0.00  0.00    +0.310 C 
ATOM      8  N   LIG    1       -0.699   1.494   1.152  0.00  0.00    -0.580 N 
ATOM      9  C   LIG    1       -0.945   2.929   1.349  0.00  0.00    +0.280 C 
ATOM     10  C   LIG    1       -1.112   0.597   2.068  0.00  0.00    +0.650 C 
ATOM     11  O   LIG    1       -0.907  -0.588   1.894  0.00  0.00    -0.570 OA
ATOM     12  C   LIG    1       -1.697   3.476   0.130  0.00  0.00    +0.050 C 
ATOM     13  O   LIG    1        1.941   2.763  -0.293  0.00  0.00    -0.550 OA
ENDROOT
BRANCH   1  14
ATOM     14  O   LIG    1        2.528   4.567  -1.444  0.00  0.00    -0.360 OA
BRANCH  14  16
ATOM     15  C   LIG    1        4.351   2.957  -1.563  0.00  0.00    +0.040 C 
ATOM     16  C   LIG    1        3.905   4.329  -1.053  0.00  0.00    +0.140 C 
ATOM     17  C   LIG    1        4.015   4.365   0.473  0.00  0.00    +0.040 C 
ATOM     18  C   LIG    1        4.802   5.412  -1.655  0.00  0.00    +0.080 C 
ENDBRANCH  14  16
ENDBRANCH   1  14
BRANCH  10  19
ATOM     19  O   LIG    1       -1.753   1.013   3.177  0.00  0.00    -0.370 OA
BRANCH  19  20
ATOM     20  C   LIG    1       -2.169  -0.009   4.121  0.00  0.00    +0.290 C 
BRANCH  20  21
ATOM     21  C   LIG    1       -2.864   0.640   5.290  0.00  0.00    -0.100 A 
ATOM     22  C   LIG    1       -2.135   1.031   6.397  0.00  0.00    +0.030 A 
ATOM     23  C   LIG    1       -2.771   1.630   7.468  0.00  0.00    +0.010 A 
ATOM     24  C   LIG    1       -4.139   1.830   7.435  0.00  0.00    +0.020 A 
ATOM     25  C   LIG    1       -4.869   1.434   6.330  0.00  0.00    +0.010 A 
ATOM     26  C   LIG    1       -4.231   0.839   5.257  0.00  0.00    +0.030 A 
ENDBRANCH  20  21
ENDBRANCH  19  20
ENDBRANCH  10  19
TORSDOF 5
