REMARK  Name = ZINCkj000005gRBR.0
REMARK                            x       y       z     vdW  Elec       q    Type
REMARK                         _______ _______ _______ _____ _____    ______ ____
ROOT
ATOM      1  C   LIG    1       -2.143   1.058   1.278  0.00  0.00    +0.490 C 
ATOM      2  N   LIG    1       -2.572   0.298   0.285  0.00  0.00    -0.570 NA
ATOM      3  C   LIG    1       -3.820  -0.165   0.291  0.00  0.00    +0.680 C 
ATOM      4  N   LIG    1       -4.635   0.138   1.296  0.00  0.00    -0.620 N 
ATOM      5  C   LIG    1       -4.199   0.903   2.292  0.00  0.00    +0.670 C 
ATOM      6  N   LIG    1       -5.041   1.220   3.338  0.00  0.00    -0.650 N 
ATOM      7  H   LIG    1       -5.951   0.885   3.347  0.00  0.00    +0.430 HD
ATOM      8  H   LIG    1       -5.545  -0.198   1.303  0.00  0.00    +0.440 HD
ATOM      9  N   LIG    1       -2.948   1.357   2.282  0.00  0.00    -0.580 NA
ENDROOT
BRANCH   3  10
ATOM     10  N   LIG    1       -4.268  -0.959  -0.745  0.00  0.00    -0.770 NA
ATOM     11  H   LIG    1       -5.177  -1.296  -0.740  0.00  0.00    +0.430 HD
ATOM     12  H   LIG    1       -3.673  -1.180  -1.478  0.00  0.00    +0.450 HD
ENDBRANCH   3  10
BRANCH   1  14
ATOM     13  C   LIG    1       -0.013   1.086   0.008  0.00  0.00    +0.070 C 
ATOM     14  C   LIG    1       -0.729   1.579   1.267  0.00  0.00    +0.170 C 
ENDBRANCH   1  14
BRANCH   6  15
ATOM     15  C   LIG    1       -4.560   2.063   4.435  0.00  0.00    +0.310 C 
BRANCH  15  16
ATOM     16  C   LIG    1       -5.336   3.382   4.444  0.00  0.00    +0.130 C 
ATOM     17  C   LIG    1       -5.226   4.047   3.070  0.00  0.00    -0.010 C 
ATOM     18  C   LIG    1       -4.567   5.420   3.219  0.00  0.00    -0.010 C 
ATOM     19  C   LIG    1       -5.417   6.295   4.143  0.00  0.00    +0.010 C 
ATOM     20  C   LIG    1       -5.526   5.630   5.517  0.00  0.00    +0.030 C 
ATOM     21  C   LIG    1       -3.169   5.252   3.818  0.00  0.00    +0.010 C 
ATOM     22  C   LIG    1       -3.279   4.587   5.192  0.00  0.00    +0.030 C 
ATOM     23  C   LIG    1       -4.750   4.311   5.509  0.00  0.00    +0.010 C 
BRANCH  16  24
ATOM     24  O   LIG    1       -6.710   3.124   4.739  0.00  0.00    -0.540 OA
ATOM     25  H   LIG    1       -7.146   2.540   4.104  0.00  0.00    +0.370 HD
ENDBRANCH  16  24
ENDBRANCH  15  16
ENDBRANCH   6  15
TORSDOF 5
