REMARK  Name = ZINCrD00000hQ6YW.0
REMARK                            x       y       z     vdW  Elec       q    Type
REMARK                         _______ _______ _______ _____ _____    ______ ____
ROOT
ATOM      1  N   LIG    1        2.503  -0.260  -0.022  0.00  0.00    -0.680 NA
ATOM      2  C   LIG    1        3.668  -0.909  -0.138  0.00  0.00    +0.480 A 
ATOM      3  C   LIG    1        4.873  -0.192  -0.151  0.00  0.00    -0.070 A 
ATOM      4  C   LIG    1        6.054  -0.871  -0.265  0.00  0.00    +0.130 A 
ATOM      5  C   LIG    1        6.038  -2.266  -0.376  0.00  0.00    -0.070 A 
ATOM      6  C   LIG    1        4.860  -2.936  -0.365  0.00  0.00    +0.310 A 
ATOM      7  N   LIG    1        3.686  -2.269  -0.248  0.00  0.00    -0.440 N 
ENDROOT
BRANCH   1   8
ATOM      8  C   LIG    1        2.478   1.072  -0.036  0.00  0.00    +0.550 C 
ATOM      9  O   LIG    1        3.009   1.683  -0.949  0.00  0.00    -0.510 OA
BRANCH   8  14
ATOM     10  C   LIG    1        0.567   1.811   3.114  0.00  0.00    -0.680 A 
ATOM     11  C   LIG    1        0.548   3.195   3.101  0.00  0.00    +0.170 A 
ATOM     12  C   LIG    1        1.149   3.891   2.067  0.00  0.00    +0.010 A 
ATOM     13  C   LIG    1        1.777   3.208   1.045  0.00  0.00    +0.060 A 
ATOM     14  C   LIG    1        1.805   1.812   1.056  0.00  0.00    -0.140 A 
ATOM     15 CL   LIG    1        2.531   4.082  -0.252  0.00  0.00    -0.020 Cl
ATOM     16  C   LIG    1        1.197   1.117   2.101  0.00  0.00    +0.200 A 
BRANCH  10  18
ATOM     17  C   LIG    1        1.094   0.745   5.678  0.00  0.00    -0.250 C 
ATOM     18  S   LIG    1       -0.209   0.934   4.430  0.00  0.00    +2.500 S 
ATOM     19  O   LIG    1       -0.543  -0.325   3.863  0.00  0.00    -0.930 OA
ATOM     20  O   LIG    1       -1.219   1.820   4.894  0.00  0.00    -0.930 OA
ENDBRANCH  10  18
ENDBRANCH   8  14
ENDBRANCH   1   8
BRANCH   7  21
ATOM     21  C   LIG    1        2.424  -3.014  -0.239  0.00  0.00    +0.350 C 
BRANCH  21  22
ATOM     22  C   LIG    1        1.915  -3.157  -1.650  0.00  0.00    -0.120 A 
ATOM     23  C   LIG    1        1.071  -2.199  -2.180  0.00  0.00    +0.050 A 
ATOM     24  C   LIG    1        0.608  -2.327  -3.476  0.00  0.00    +0.000 A 
ATOM     25  C   LIG    1        0.981  -3.418  -4.239  0.00  0.00    +0.010 A 
ATOM     26  C   LIG    1        1.821  -4.378  -3.707  0.00  0.00    -0.010 A 
ATOM     27  C   LIG    1        2.288  -4.248  -2.413  0.00  0.00    +0.020 A 
ENDBRANCH  21  22
ENDBRANCH   7  21
TORSDOF 5
