REMARK  Name = ZINC650000002u76.0
REMARK                            x       y       z     vdW  Elec       q    Type
REMARK                         _______ _______ _______ _____ _____    ______ ____
ROOT
ATOM      1  C   LIG    1        1.280   1.975   0.000  0.00  0.00    +0.050 C 
ATOM      2  C   LIG    1       -0.014   1.204   0.009  0.00  0.00    +0.290 C 
ATOM      3  O   LIG    1        0.002  -0.004   0.002  0.00  0.00    -0.470 OA
ENDROOT
BRANCH   2   4
ATOM      4  C   LIG    1       -1.318   1.933   0.019  0.00  0.00    +0.460 C 
ATOM      5  O   LIG    1       -1.334   3.153   0.025  0.00  0.00    -0.670 OA
ATOM      6  O   LIG    1       -2.366   1.308   0.020  0.00  0.00    -0.660 OA
ENDBRANCH   2   4
TORSDOF 1
