REMARK  Name = ZINCvU0000000DB2.0
REMARK                            x       y       z     vdW  Elec       q    Type
REMARK                         _______ _______ _______ _____ _____    ______ ____
ROOT
ATOM      1  N   LIG    1       -0.197   8.219   1.361  0.00  0.00    -0.740 N 
ATOM      2  H   LIG    1       -0.933   7.612   1.541  0.00  0.00    +0.400 HD
ATOM      3  C   LIG    1       -0.123   9.398   2.008  0.00  0.00    +0.710 C 
ATOM      4  N   LIG    1       -1.070   9.736   2.906  0.00  0.00    -0.680 N 
ATOM      5  H   LIG    1       -1.760   9.097   3.146  0.00  0.00    +0.400 HD
ATOM      6  O   LIG    1        0.799  10.158   1.783  0.00  0.00    -0.570 OA
ENDROOT
BRANCH   4   7
ATOM      7  C   LIG    1       -1.060  11.007   3.490  0.00  0.00    +0.180 A 
ATOM      8  C   LIG    1       -0.456  12.070   2.832  0.00  0.00    +0.020 A 
ATOM      9  C   LIG    1       -0.447  13.324   3.412  0.00  0.00    +0.020 A 
ATOM     10  C   LIG    1       -1.038  13.521   4.646  0.00  0.00    -0.020 A 
ATOM     11  C   LIG    1       -1.641  12.464   5.304  0.00  0.00    +0.030 A 
ATOM     12  C   LIG    1       -1.658  11.209   4.727  0.00  0.00    -0.110 A 
BRANCH  12  13
ATOM     13  C   LIG    1       -2.320  10.059   5.442  0.00  0.00    +0.120 C 
BRANCH  13  14
ATOM     14  C   LIG    1       -1.286   9.295   6.229  0.00  0.00    -0.080 A 
ATOM     15  C   LIG    1       -0.616   8.237   5.644  0.00  0.00    +0.000 A 
ATOM     16  C   LIG    1        0.335   7.539   6.364  0.00  0.00    +0.000 A 
ATOM     17  C   LIG    1        0.609   7.893   7.672  0.00  0.00    +0.000 A 
ATOM     18  C   LIG    1       -0.065   8.948   8.259  0.00  0.00    +0.000 A 
ATOM     19  C   LIG    1       -1.013   9.649   7.537  0.00  0.00    +0.010 A 
ENDBRANCH  13  14
ENDBRANCH  12  13
ENDBRANCH   4   7
BRANCH   1  21
ATOM     20  C   LIG    1        0.483   8.454  -0.976  0.00  0.00    +0.040 C 
ATOM     21  C   LIG    1        0.833   7.852   0.386  0.00  0.00    +0.300 C 
BRANCH  21  22
ATOM     22  C   LIG    1        0.902   6.351   0.268  0.00  0.00    -0.110 A 
ATOM     23  C   LIG    1        2.129   5.724   0.154  0.00  0.00    +0.040 A 
ATOM     24  C   LIG    1        2.196   4.349   0.047  0.00  0.00    +0.020 A 
ATOM     25  C   LIG    1        1.029   3.595   0.053  0.00  0.00    +0.150 A 
ATOM     26  C   LIG    1       -0.202   4.229   0.163  0.00  0.00    -0.010 A 
ATOM     27  C   LIG    1       -0.262   5.604   0.276  0.00  0.00    +0.020 A 
BRANCH  25  28
ATOM     28  N   LIG    1        1.093   2.202  -0.056  0.00  0.00    -0.670 N 
ATOM     29  H   LIG    1        0.403   1.721  -0.539  0.00  0.00    +0.410 HD
ATOM     30  C   LIG    1        2.114   1.528   0.510  0.00  0.00    +0.540 C 
ATOM     31  O   LIG    1        3.019   2.134   1.044  0.00  0.00    -0.520 OA
BRANCH  30  32
ATOM     32  C   LIG    1        2.128   0.021   0.484  0.00  0.00    -0.070 C 
ATOM     33  C   LIG    1        1.937  -0.710   1.815  0.00  0.00    +0.060 C 
ATOM     34  C   LIG    1        3.313  -0.685   1.146  0.00  0.00    +0.080 C 
ENDBRANCH  30  32
ENDBRANCH  25  28
ENDBRANCH  21  22
ENDBRANCH   1  21
TORSDOF 7
