REMARK  Name = ZINCpe000000VbDo.0
REMARK                            x       y       z     vdW  Elec       q    Type
REMARK                         _______ _______ _______ _____ _____    ______ ____
ROOT
ATOM      1  N   LIG    1        0.007  10.042  -1.695  0.00  0.00    -0.630 N 
ATOM      2  H   LIG    1        0.423   9.625  -2.466  0.00  0.00    +0.420 HD
ATOM      3  C   LIG    1       -0.635   9.284  -0.783  0.00  0.00    +0.520 C 
ATOM      4  O   LIG    1       -1.154   9.805   0.180  0.00  0.00    -0.480 OA
ENDROOT
BRANCH   3   5
ATOM      5  C   LIG    1       -0.706   7.789  -0.963  0.00  0.00    +0.010 C 
ATOM      6  C   LIG    1       -1.484   7.171   0.202  0.00  0.00    +0.080 C 
ATOM      7  C   LIG    1       -1.501   5.649   0.047  0.00  0.00    +0.220 C 
ATOM      8  N   LIG    1       -0.123   5.141   0.031  0.00  0.00    -0.470 N 
ATOM      9  C   LIG    1        0.630   5.685  -1.106  0.00  0.00    +0.200 C 
ATOM     10  C   LIG    1        0.710   7.208  -0.986  0.00  0.00    +0.060 C 
BRANCH   8  11
ATOM     11  C   LIG    1       -0.104   3.752   0.023  0.00  0.00    +0.260 A 
ATOM     12  C   LIG    1        1.111   3.070   0.008  0.00  0.00    +0.210 A 
ATOM     13  N   LIG    1        1.125   1.751   0.001  0.00  0.00    -0.420 NA
ATOM     14  C   LIG    1       -0.013   1.076   0.008  0.00  0.00    +0.180 A 
ATOM     15  C   LIG    1       -1.220   1.748   0.017  0.00  0.00    +0.250 A 
ATOM     16  N   LIG    1       -1.242   3.071   0.030  0.00  0.00    -0.480 NA
ENDBRANCH   8  11
ENDBRANCH   3   5
BRANCH   1  20
ATOM     17  C   LIG    1        0.657  13.642  -2.055  0.00  0.00    +0.230 C 
ATOM     18  C   LIG    1       -0.094  13.951  -0.750  0.00  0.00    +0.060 C 
ATOM     19  S   LIG    1       -0.642  12.308  -0.184  0.00  0.00    -0.080 S 
ATOM     20  C   LIG    1        0.072  11.413  -1.530  0.00  0.00    +0.390 C 
ATOM     21  N   LIG    1        0.656  12.223  -2.336  0.00  0.00    -0.550 NA
BRANCH  17  22
ATOM     22  C   LIG    1        2.103  14.127  -1.929  0.00  0.00    +0.130 C 
BRANCH  22  23
ATOM     23  C   LIG    1        2.789  14.013  -3.265  0.00  0.00    +0.460 C 
ATOM     24  O   LIG    1        2.184  13.586  -4.221  0.00  0.00    -0.490 OA
BRANCH  23  26
ATOM     25  C   LIG    1        4.669  14.246  -4.711  0.00  0.00    +0.260 C 
ATOM     26  O   LIG    1        4.073  14.384  -3.395  0.00  0.00    -0.360 OA
ENDBRANCH  23  26
ENDBRANCH  22  23
ENDBRANCH  17  22
ENDBRANCH   1  20
TORSDOF 6
