REMARK  Name = ZINCnE000001PDtW.0
REMARK                            x       y       z     vdW  Elec       q    Type
REMARK                         _______ _______ _______ _____ _____    ______ ____
ROOT
ATOM      1  S   LIG    1       -2.841   0.847  -0.005  0.00  0.00    +2.690 S 
ATOM      2  O   LIG    1       -2.531  -0.422  -0.563  0.00  0.00    -0.950 OA
ATOM      3  O   LIG    1       -3.893   1.672  -0.486  0.00  0.00    -0.950 OA
ENDROOT
BRANCH   1   4
ATOM      4  C   LIG    1       -1.367   1.808  -0.108  0.00  0.00    -0.690 A 
ATOM      5  C   LIG    1       -0.138   1.182  -0.185  0.00  0.00    +0.120 A 
ATOM      6  C   LIG    1        1.018   1.935  -0.272  0.00  0.00    -0.010 A 
ATOM      7  C   LIG    1        0.944   3.316  -0.276  0.00  0.00    +0.000 A 
ATOM      8  C   LIG    1       -0.286   3.942  -0.193  0.00  0.00    -0.010 A 
ATOM      9  C   LIG    1       -1.441   3.188  -0.108  0.00  0.00    +0.130 A 
BRANCH   7  10
ATOM     10  C   LIG    1        2.204   4.138  -0.369  0.00  0.00    +0.090 C 
BRANCH  10  11
ATOM     11  C   LIG    1        2.529   4.407  -1.840  0.00  0.00    -0.060 C 
BRANCH  11  12
ATOM     12  C   LIG    1        3.789   5.229  -1.933  0.00  0.00    +0.490 C 
ATOM     13  O   LIG    1        4.225   5.554  -3.024  0.00  0.00    -0.700 OA
ATOM     14  O   LIG    1        4.372   5.568  -0.917  0.00  0.00    -0.700 OA
ENDBRANCH  11  12
ENDBRANCH  10  11
ENDBRANCH   7  10
ENDBRANCH   1   4
BRANCH   1  15
ATOM     15  N   LIG    1       -3.146   0.590   1.602  0.00  0.00    -1.050 N 
ATOM     16  H   LIG    1       -3.177  -0.315   1.951  0.00  0.00    +0.430 HD
BRANCH  15  24
ATOM     17  C   LIG    1       -2.187   0.405   4.274  0.00  0.00    +0.100 C 
ATOM     18  C   LIG    1       -2.908   1.628   3.768  0.00  0.00    -0.100 A 
ATOM     19  C   LIG    1       -3.115   2.704   4.607  0.00  0.00    +0.060 A 
ATOM     20  C   LIG    1       -3.781   3.825   4.147  0.00  0.00    +0.020 A 
ATOM     21  C   LIG    1       -4.239   3.873   2.841  0.00  0.00    -0.010 A 
ATOM     22  C   LIG    1       -4.029   2.801   1.994  0.00  0.00    +0.010 A 
ATOM     23 CL   LIG    1       -5.075   5.282   2.267  0.00  0.00    -0.060 Cl
ATOM     24  C   LIG    1       -3.360   1.675   2.455  0.00  0.00    +0.170 A 
ENDBRANCH  15  24
ENDBRANCH   1  15
TORSDOF 6
