REMARK  Name = ZINCrD000000gT6t.0
REMARK                            x       y       z     vdW  Elec       q    Type
REMARK                         _______ _______ _______ _____ _____    ______ ____
ROOT
ATOM      1  C   LIG    1        3.592   5.978  -0.214  0.00  0.00    -0.060 A 
ATOM      2  C   LIG    1        3.722   7.346  -0.324  0.00  0.00    +0.160 A 
ATOM      3  C   LIG    1        5.090   7.624  -0.410  0.00  0.00    -0.760 A 
ATOM      4  C   LIG    1        5.757   6.446  -0.362  0.00  0.00    +0.350 A 
ATOM      5  N   LIG    1        4.859   5.438  -0.243  0.00  0.00    -0.530 N 
ATOM      6  H   LIG    1        5.072   4.494  -0.186  0.00  0.00    +0.420 HD
ENDROOT
BRANCH   1   9
ATOM      7  N   LIG    1        2.355   3.889  -0.001  0.00  0.00    -0.670 N 
ATOM      8  H   LIG    1        3.201   3.419   0.066  0.00  0.00    +0.400 HD
ATOM      9  C   LIG    1        2.335   5.233  -0.095  0.00  0.00    +0.590 C 
ATOM     10  O   LIG    1        1.274   5.828  -0.082  0.00  0.00    -0.500 OA
BRANCH   7  14
ATOM     11  C   LIG    1       -1.221   1.752   0.011  0.00  0.00    -0.080 A 
ATOM     12  C   LIG    1       -1.114   2.914  -0.731  0.00  0.00    +0.040 A 
ATOM     13  C   LIG    1        0.070   3.626  -0.736  0.00  0.00    +0.020 A 
ATOM     14  C   LIG    1        1.155   3.170   0.002  0.00  0.00    +0.140 A 
ATOM     15  C   LIG    1        1.046   2.000   0.742  0.00  0.00    -0.020 A 
ATOM     16  C   LIG    1       -0.141   1.293   0.743  0.00  0.00    +0.030 A 
BRANCH  11  18
ATOM     17  C   LIG    1       -2.857   0.543  -1.407  0.00  0.00    +0.040 C 
ATOM     18  C   LIG    1       -2.516   0.982   0.019  0.00  0.00    -0.030 C 
ATOM     19  C   LIG    1       -3.636   1.872   0.560  0.00  0.00    +0.040 C 
ATOM     20  C   LIG    1       -2.370  -0.253   0.911  0.00  0.00    +0.030 C 
ENDBRANCH  11  18
ENDBRANCH   7  14
ENDBRANCH   1   9
BRANCH   3  21
ATOM     21  S   LIG    1        5.816   9.222  -0.562  0.00  0.00    +2.720 S 
ATOM     22  O   LIG    1        7.147   9.105  -0.077  0.00  0.00    -0.950 OA
ATOM     23  O   LIG    1        4.873  10.143  -0.031  0.00  0.00    -0.950 OA
BRANCH  21  24
ATOM     24  N   LIG    1        5.935   9.555  -2.180  0.00  0.00    -1.000 NA
ATOM     25  C   LIG    1        7.147   9.178  -2.909  0.00  0.00    +0.310 C 
ATOM     26  C   LIG    1        6.795   8.108  -3.956  0.00  0.00    +0.090 C 
ATOM     27  S   LIG    1        5.520   8.774  -5.067  0.00  0.00    -0.250 S 
ATOM     28  C   LIG    1        4.220   9.283  -3.903  0.00  0.00    +0.100 C 
ATOM     29  C   LIG    1        4.830  10.229  -2.863  0.00  0.00    +0.310 C 
ENDBRANCH  21  24
ENDBRANCH   3  21
TORSDOF 5
