REMARK  Name = ZINCrg00000AuIBc.0
REMARK                            x       y       z     vdW  Elec       q    Type
REMARK                         _______ _______ _______ _____ _____    ______ ____
ROOT
ATOM      1  C   LIG    1       -0.050  -2.081   9.059  0.00  0.00    +0.530 C 
ATOM      2  N   LIG    1       -0.246  -0.952   8.348  0.00  0.00    -0.640 N 
ATOM      3  C   LIG    1        0.649   0.025   7.693  0.00  0.00    +0.310 C 
ATOM      4  C   LIG    1       -0.549   0.351   6.799  0.00  0.00    -0.120 C 
ATOM      5  C   LIG    1       -0.758   1.754   6.234  0.00  0.00    +0.070 C 
ATOM      6  C   LIG    1       -0.187   1.212   4.911  0.00  0.00    -0.020 C 
ATOM      7  C   LIG    1       -0.642  -0.185   5.371  0.00  0.00    +0.050 C 
ATOM      8  C   LIG    1       -1.440  -0.198   7.914  0.00  0.00    +0.300 C 
ATOM      9  O   LIG    1        1.076  -2.478   9.268  0.00  0.00    -0.530 OA
ENDROOT
BRANCH   1  10
ATOM     10  C   LIG    1       -1.232  -2.849   9.592  0.00  0.00    +0.360 C 
BRANCH  10  14
ATOM     11  C   LIG    1        0.001  -7.482   9.474  0.00  0.00    +0.150 C 
ATOM     12  C   LIG    1       -0.173  -6.219  10.277  0.00  0.00    +0.070 A 
ATOM     13  N   LIG    1       -0.597  -5.133   9.691  0.00  0.00    -0.220 NA
ATOM     14  N   LIG    1       -0.758  -4.027  10.323  0.00  0.00    -0.330 N 
ATOM     15  C   LIG    1       -0.508  -3.925  11.643  0.00  0.00    +0.480 A 
ATOM     16  C   LIG    1       -0.051  -5.058  12.350  0.00  0.00    -0.010 A 
ATOM     17  O   LIG    1       -0.674  -2.863  12.221  0.00  0.00    -0.530 OA
ATOM     18  C   LIG    1        0.117  -6.220  11.651  0.00  0.00    +0.090 A 
ENDBRANCH  10  14
ENDBRANCH   1  10
BRANCH   6  19
ATOM     19  C   LIG    1       -0.927   1.718   3.671  0.00  0.00    +0.270 C 
BRANCH  19  20
ATOM     20  N   LIG    1       -0.242   1.246   2.466  0.00  0.00    -0.730 N 
ATOM     21  H   LIG    1        0.555   0.699   2.544  0.00  0.00    +0.400 HD
ATOM     22  C   LIG    1       -0.718   1.572   1.248  0.00  0.00    +0.510 C 
ATOM     23  O   LIG    1       -1.714   2.256   1.150  0.00  0.00    -0.540 OA
BRANCH  22  24
ATOM     24  C   LIG    1       -0.013   1.086   0.008  0.00  0.00    +0.050 C 
BRANCH  24  25
ATOM     25  C   LIG    1       -0.753   1.593  -1.232  0.00  0.00    +0.000 C 
ATOM     26  C   LIG    1       -1.914   0.685  -1.670  0.00  0.00    +0.020 C 
ATOM     27  C   LIG    1       -1.468   0.950  -3.119  0.00  0.00    +0.010 C 
ATOM     28  C   LIG    1       -0.064   1.221  -2.555  0.00  0.00    +0.010 C 
ENDBRANCH  24  25
ENDBRANCH  22  24
ENDBRANCH  19  20
ENDBRANCH   6  19
TORSDOF 6
