REMARK  Name = ZINCqH0000007jWI.1
REMARK                            x       y       z     vdW  Elec       q    Type
REMARK                         _______ _______ _______ _____ _____    ______ ____
ROOT
ATOM      1  C   LIG    1        2.457   1.579   0.366  0.00  0.00    -0.650 A 
ATOM      2  C   LIG    1        1.245   2.220   0.536  0.00  0.00    +0.130 A 
ATOM      3  C   LIG    1        0.059   1.524   0.338  0.00  0.00    +0.140 A 
ATOM      4  C   LIG    1        0.096   0.185  -0.029  0.00  0.00    +0.100 A 
ATOM      5  C   LIG    1        1.310  -0.451  -0.197  0.00  0.00    +0.050 A 
ATOM      6  C   LIG    1        2.490   0.245   0.000  0.00  0.00    +0.040 A 
ATOM      7 CL   LIG    1        4.015  -0.557  -0.212  0.00  0.00    -0.040 Cl
ENDROOT
BRANCH   3   8
ATOM      8  N   LIG    1       -1.170   2.172   0.504  0.00  0.00    -0.670 N 
ATOM      9  H   LIG    1       -1.256   3.112   0.281  0.00  0.00    +0.420 HD
ATOM     10  C   LIG    1       -2.234   1.490   0.973  0.00  0.00    +0.550 C 
ATOM     11  O   LIG    1       -2.104   0.342   1.340  0.00  0.00    -0.510 OA
BRANCH  10  12
ATOM     12  C   LIG    1       -3.584   2.155   1.041  0.00  0.00    -0.070 C 
ATOM     13  C   LIG    1       -4.670   1.648   0.089  0.00  0.00    +0.060 C 
ATOM     14  C   LIG    1       -4.752   1.328   1.583  0.00  0.00    +0.010 C 
ATOM     15  C   LIG    1       -4.459  -0.110   2.014  0.00  0.00    +0.060 C 
ENDBRANCH  10  12
ENDBRANCH   3   8
BRANCH   1  16
ATOM     16  S   LIG    1        3.961   2.462   0.616  0.00  0.00    +2.690 S 
ATOM     17  O   LIG    1        3.595   3.770   1.031  0.00  0.00    -0.950 OA
ATOM     18  O   LIG    1        4.770   2.206  -0.524  0.00  0.00    -0.930 OA
BRANCH  16  19
ATOM     19  N   LIG    1        4.732   1.762   1.903  0.00  0.00    -1.050 N 
ATOM     20  H   LIG    1        5.605   1.355   1.784  0.00  0.00    +0.430 HD
BRANCH  19  24
ATOM     21  C   LIG    1        2.923   1.744   5.659  0.00  0.00    +0.120 A 
ATOM     22  C   LIG    1        3.498   0.585   5.161  0.00  0.00    +0.010 A 
ATOM     23  C   LIG    1        4.098   0.589   3.917  0.00  0.00    +0.060 A 
ATOM     24  C   LIG    1        4.125   1.756   3.164  0.00  0.00    +0.100 A 
ATOM     25  C   LIG    1        3.553   2.918   3.665  0.00  0.00    +0.050 A 
ATOM     26  C   LIG    1        2.949   2.910   4.907  0.00  0.00    -0.050 A 
BRANCH  21  28
ATOM     27  C   LIG    1        1.760   2.969   7.334  0.00  0.00    +0.250 C 
ATOM     28  O   LIG    1        2.333   1.739   6.884  0.00  0.00    -0.320 OA
ENDBRANCH  21  28
ENDBRANCH  19  24
ENDBRANCH  16  19
ENDBRANCH   1  16
TORSDOF 6
