REMARK  Name = ZINCpk00000ebL9f.0
REMARK                            x       y       z     vdW  Elec       q    Type
REMARK                         _______ _______ _______ _____ _____    ______ ____
ROOT
ATOM      1  C   LIG    1       -0.012   1.256  -2.348  0.00  0.00    +0.090 A 
ATOM      2  C   LIG    1       -0.623   0.522  -3.357  0.00  0.00    +0.050 A 
ATOM      3  C   LIG    1        0.078   0.217  -4.508  0.00  0.00    +0.040 A 
ATOM      4  C   LIG    1        1.389   0.632  -4.651  0.00  0.00    -0.110 A 
ATOM      5  C   LIG    1        2.002   1.357  -3.646  0.00  0.00    +0.040 A 
ATOM      6  C   LIG    1        1.306   1.671  -2.495  0.00  0.00    -0.030 A 
ENDROOT
BRANCH   1  10
ATOM      7  O   LIG    1       -0.470   1.020   2.302  0.00  0.00    -0.550 OA
ATOM      8  C   LIG    1       -0.712   1.568   1.247  0.00  0.00    +0.530 C 
ATOM      9  C   LIG    1       -0.013   1.086   0.008  0.00  0.00    +0.240 C 
ATOM     10  N   LIG    1       -0.719   1.571  -1.185  0.00  0.00    -0.500 N 
ATOM     11  C   LIG    1       -0.950   3.021  -1.085  0.00  0.00    +0.190 C 
ATOM     12  C   LIG    1       -1.977   3.279   0.020  0.00  0.00    +0.280 C 
ATOM     13  N   LIG    1       -1.587   2.577   1.239  0.00  0.00    -0.720 N 
ATOM     14  H   LIG    1       -1.983   2.855   2.080  0.00  0.00    +0.400 HD
ENDBRANCH   1  10
BRANCH   4  15
ATOM     15  C   LIG    1        2.152   0.292  -5.905  0.00  0.00    +0.330 C 
BRANCH  15  16
ATOM     16  N   LIG    1        2.834  -0.992  -5.729  0.00  0.00    -0.710 N 
ATOM     17  H   LIG    1        2.748  -1.477  -4.894  0.00  0.00    +0.410 HD
ATOM     18  C   LIG    1        3.583  -1.500  -6.729  0.00  0.00    +0.610 C 
ATOM     19  O   LIG    1        3.692  -0.893  -7.776  0.00  0.00    -0.510 OA
BRANCH  18  20
ATOM     20  C   LIG    1        4.270  -2.793  -6.551  0.00  0.00    -0.090 A 
ATOM     21  C   LIG    1        5.056  -3.439  -7.466  0.00  0.00    +0.040 A 
ATOM     22  C   LIG    1        5.459  -4.616  -6.796  0.00  0.00    +0.040 A 
ATOM     23  N   LIG    1        4.908  -4.578  -5.617  0.00  0.00    -0.330 NA
ATOM     24  O   LIG    1        4.246  -3.580  -5.458  0.00  0.00    +0.120 OA
BRANCH  22  25
ATOM     25  C   LIG    1        6.347  -5.704  -7.341  0.00  0.00    +0.040 C 
ATOM     26  C   LIG    1        6.571  -5.742  -8.854  0.00  0.00    +0.050 C 
ATOM     27  C   LIG    1        5.689  -6.798  -8.184  0.00  0.00    +0.050 C 
ENDBRANCH  22  25
ENDBRANCH  18  20
ENDBRANCH  15  16
ENDBRANCH   4  15
TORSDOF 5
