REMARK  Name = ZINCqH000005084m.0
REMARK                            x       y       z     vdW  Elec       q    Type
REMARK                         _______ _______ _______ _____ _____    ______ ____
ROOT
ATOM      1  C   LIG    1        0.555  12.269   1.243  0.00  0.00    +0.150 C 
ATOM      2  C   LIG    1       -0.712  11.515   1.556  0.00  0.00    +0.190 A 
ATOM      3  C   LIG    1       -0.824  10.189   1.167  0.00  0.00    +0.010 A 
ATOM      4  C   LIG    1       -1.994   9.489   1.455  0.00  0.00    -0.000 A 
ATOM      5  C   LIG    1       -3.024  10.177   2.134  0.00  0.00    -0.180 A 
ATOM      6  C   LIG    1       -4.313   9.816   2.580  0.00  0.00    +0.290 A 
ATOM      7  N   LIG    1       -4.856  10.848   3.159  0.00  0.00    -0.230 NA
ATOM      8  N   LIG    1       -3.964  11.927   3.136  0.00  0.00    -0.380 N 
ATOM      9  C   LIG    1       -2.821  11.524   2.496  0.00  0.00    +0.310 A 
ATOM     10  N   LIG    1       -1.683  12.132   2.192  0.00  0.00    -0.480 NA
ENDROOT
BRANCH   8  11
ATOM     11  C   LIG    1       -4.214  13.261   3.689  0.00  0.00    +0.270 C 
ATOM     12  C   LIG    1       -4.470  13.150   5.193  0.00  0.00    +0.050 C 
ATOM     13  C   LIG    1       -5.439  13.873   3.007  0.00  0.00    +0.050 C 
ENDBRANCH   8  11
BRANCH   4  14
ATOM     14  C   LIG    1       -2.153   8.075   1.057  0.00  0.00    +0.510 C 
ATOM     15  O   LIG    1       -3.182   7.483   1.319  0.00  0.00    -0.490 OA
BRANCH  14  16
ATOM     16  O   LIG    1       -1.159   7.441   0.406  0.00  0.00    -0.330 OA
BRANCH  16  17
ATOM     17  C   LIG    1       -1.385   6.053   0.046  0.00  0.00    +0.170 C 
ATOM     18  C   LIG    1       -2.026   5.983  -1.341  0.00  0.00    +0.080 C 
BRANCH  17  19
ATOM     19  C   LIG    1       -0.070   5.317   0.030  0.00  0.00    +0.400 C 
ATOM     20  O   LIG    1        0.972   5.938   0.024  0.00  0.00    -0.420 OA
BRANCH  19  21
ATOM     21  C   LIG    1       -0.050   3.846   0.023  0.00  0.00    -0.170 A 
ATOM     22  C   LIG    1        1.168   3.159   0.008  0.00  0.00    +0.080 A 
ATOM     23  C   LIG    1        1.179   1.780   0.000  0.00  0.00    +0.000 A 
ATOM     24  C   LIG    1       -0.013   1.076   0.008  0.00  0.00    +0.050 A 
ATOM     25  C   LIG    1       -1.222   1.748   0.017  0.00  0.00    +0.000 A 
ATOM     26  C   LIG    1       -1.250   3.126   0.030  0.00  0.00    +0.050 A 
ENDBRANCH  19  21
ENDBRANCH  17  19
ENDBRANCH  16  17
ENDBRANCH  14  16
ENDBRANCH   4  14
TORSDOF 6
