REMARK  Name = ZINCqH0000002f6B.0
REMARK                            x       y       z     vdW  Elec       q    Type
REMARK                         _______ _______ _______ _____ _____    ______ ____
ROOT
ATOM      1  N   LIG    1        0.982   2.776   0.397  0.00  0.00    -0.740 N 
ATOM      2  H   LIG    1        1.744   2.176   0.375  0.00  0.00    +0.400 HD
ATOM      3  C   LIG    1       -0.263   2.280   0.538  0.00  0.00    +0.700 C 
ATOM      4  N   LIG    1       -0.450   0.950   0.648  0.00  0.00    -0.670 N 
ATOM      5  H   LIG    1        0.302   0.345   0.551  0.00  0.00    +0.410 HD
ATOM      6  O   LIG    1       -1.218   3.032   0.560  0.00  0.00    -0.570 OA
ENDROOT
BRANCH   1   9
ATOM      7  C   LIG    1        3.616   3.903  -0.190  0.00  0.00    +0.160 C 
ATOM      8  C   LIG    1        2.602   4.580   0.736  0.00  0.00    +0.020 C 
ATOM      9  C   LIG    1        1.185   4.222   0.277  0.00  0.00    +0.260 C 
ATOM     10  C   LIG    1        1.011   4.645  -1.185  0.00  0.00    -0.010 C 
ATOM     11  C   LIG    1        2.086   3.965  -2.036  0.00  0.00    +0.200 C 
ATOM     12  O   LIG    1        3.378   4.315  -1.538  0.00  0.00    -0.370 OA
BRANCH   7  13
ATOM     13  C   LIG    1        5.033   4.303   0.224  0.00  0.00    +0.000 C 
BRANCH  13  15
ATOM     14  C   LIG    1        5.968   2.110  -0.521  0.00  0.00    +0.000 C 
ATOM     15  C   LIG    1        6.046   3.627  -0.702  0.00  0.00    +0.010 C 
ENDBRANCH  13  15
BRANCH  13  16
ATOM     16  C   LIG    1        5.184   5.823   0.122  0.00  0.00    +0.010 C 
ATOM     17  C   LIG    1        6.562   6.235   0.643  0.00  0.00    +0.000 C 
ENDBRANCH  13  16
ENDBRANCH   7  13
ENDBRANCH   1   9
BRANCH   4  18
ATOM     18  C   LIG    1       -1.731   0.440   0.902  0.00  0.00    +0.120 A 
ATOM     19  C   LIG    1       -2.856   1.075   0.393  0.00  0.00    +0.100 A 
ATOM     20  C   LIG    1       -4.103   0.531   0.668  0.00  0.00    -0.030 A 
ATOM     21  C   LIG    1       -4.190  -0.609   1.442  0.00  0.00    +0.260 A 
ATOM     22  N   LIG    1       -3.104  -1.190   1.919  0.00  0.00    -0.500 NA
ATOM     23  C   LIG    1       -1.896  -0.710   1.678  0.00  0.00    +0.270 A 
BRANCH  23  24
ATOM     24  N   LIG    1       -0.779  -1.356   2.201  0.00  0.00    -0.460 N 
ATOM     25  C   LIG    1       -0.128  -0.528   3.249  0.00  0.00    +0.170 C 
ATOM     26  C   LIG    1        0.704  -1.561   4.050  0.00  0.00    +0.040 C 
ATOM     27  C   LIG    1       -0.211  -2.807   4.063  0.00  0.00    +0.020 C 
ATOM     28  C   LIG    1       -1.162  -2.620   2.866  0.00  0.00    +0.190 C 
ENDBRANCH  23  24
ENDBRANCH   4  18
TORSDOF 6
