REMARK  Name = ZINCpe00000gMNDj.0
REMARK                            x       y       z     vdW  Elec       q    Type
REMARK                         _______ _______ _______ _____ _____    ______ ____
ROOT
ATOM      1  C   LIG    1       -2.482   0.853   0.018  0.00  0.00    +0.390 C 
ENDROOT
BRANCH   1   7
ATOM      2  C   LIG    1       -6.655   2.683   1.160  0.00  0.00    +0.110 C 
ATOM      3  C   LIG    1       -5.293   3.188   0.679  0.00  0.00    +0.210 C 
ATOM      4  N   LIG    1       -5.204   3.116  -0.790  0.00  0.00    -0.710 N 
ATOM      5  H   LIG    1       -5.765   3.583  -1.429  0.00  0.00    +0.440 HD
ATOM      6  C   LIG    1       -4.192   2.276  -1.073  0.00  0.00    +0.710 C 
ATOM      7  N   LIG    1       -3.608   1.789   0.029  0.00  0.00    -0.560 N 
ATOM      8  O   LIG    1       -3.846   1.990  -2.202  0.00  0.00    -0.530 OA
ATOM      9  C   LIG    1       -4.189   2.263   1.149  0.00  0.00    +0.540 C 
ATOM     10  O   LIG    1       -3.888   2.005   2.295  0.00  0.00    -0.440 OA
BRANCH   3  11
ATOM     11  C   LIG    1       -5.054   4.598   1.155  0.00  0.00    -0.030 A 
ATOM     12  C   LIG    1       -5.365   5.720   0.482  0.00  0.00    -0.020 A 
ATOM     13  C   LIG    1       -4.972   6.808   1.294  0.00  0.00    -0.070 A 
ATOM     14  C   LIG    1       -4.435   6.285   2.412  0.00  0.00    +0.190 A 
ATOM     15  O   LIG    1       -4.488   4.947   2.322  0.00  0.00    -0.160 OA
ENDBRANCH   3  11
ENDBRANCH   1   7
BRANCH   1  16
ATOM     16  C   LIG    1       -1.187   1.624   0.017  0.00  0.00    +0.490 C 
ATOM     17  N   LIG    1       -0.011   0.966   0.007  0.00  0.00    -0.620 N 
ATOM     18  H   LIG    1        0.002  -0.004   0.002  0.00  0.00    +0.440 HD
ATOM     19  O   LIG    1       -1.204   2.836   0.023  0.00  0.00    -0.490 OA
BRANCH  17  20
ATOM     20  C   LIG    1        1.180   1.675  -0.000  0.00  0.00    +0.080 A 
ATOM     21  C   LIG    1        2.427   1.106  -0.010  0.00  0.00    -0.240 A 
ATOM     22  C   LIG    1        3.491   2.085  -0.021  0.00  0.00    +0.060 A 
ATOM     23  C   LIG    1        3.050   3.335  -0.009  0.00  0.00    -0.110 A 
ATOM     24  S   LIG    1        1.296   3.376   0.008  0.00  0.00    +0.300 S 
BRANCH  21  25
ATOM     25  C   LIG    1        2.657  -0.343  -0.013  0.00  0.00    +0.600 C 
ATOM     26  O   LIG    1        1.712  -1.109  -0.007  0.00  0.00    -0.560 OA
ATOM     27  N   LIG    1        3.915  -0.825  -0.023  0.00  0.00    -0.850 N 
ATOM     28  H   LIG    1        4.068  -1.783  -0.025  0.00  0.00    +0.410 HD
ATOM     29  H   LIG    1        4.669  -0.214  -0.027  0.00  0.00    +0.400 HD
ENDBRANCH  21  25
ENDBRANCH  17  20
ENDBRANCH   1  16
TORSDOF 5
