REMARK  Name = ZINCvU00000008De.0
REMARK                            x       y       z     vdW  Elec       q    Type
REMARK                         _______ _______ _______ _____ _____    ______ ____
ROOT
ATOM      1  C   LIG    1       -2.528   1.386   0.020  0.00  0.00    +0.140 C 
ATOM      2  C   LIG    1       -1.099   1.866   0.017  0.00  0.00    +0.020 A 
ATOM      3  C   LIG    1       -0.013   1.076   0.008  0.00  0.00    +0.020 A 
ATOM      4  C   LIG    1        1.152   1.972   0.002  0.00  0.00    -0.250 A 
ATOM      5  C   LIG    1        0.642   3.257   0.013  0.00  0.00    +0.130 A 
ATOM      6  C   LIG    1        1.450   4.529   0.011  0.00  0.00    +0.150 C 
ATOM      7  N   LIG    1       -0.703   3.174   0.025  0.00  0.00    -0.400 N 
ENDROOT
BRANCH   7   8
ATOM      8  C   LIG    1       -1.572   4.274   0.038  0.00  0.00    +0.110 A 
ATOM      9  C   LIG    1       -1.599   5.125   1.134  0.00  0.00    +0.090 A 
ATOM     10  C   LIG    1       -2.452   6.212   1.142  0.00  0.00    +0.070 A 
ATOM     11  C   LIG    1       -3.288   6.445   0.064  0.00  0.00    +0.010 A 
ATOM     12  C   LIG    1       -3.267   5.594  -1.027  0.00  0.00    -0.160 A 
ATOM     13 CL   LIG    1       -4.364   7.807   0.080  0.00  0.00    -0.030 Cl
ATOM     14  C   LIG    1       -2.412   4.510  -1.043  0.00  0.00    +0.110 A 
BRANCH  12  15
ATOM     15  C   LIG    1       -4.178   5.850  -2.200  0.00  0.00    +0.510 C 
ATOM     16  F   LIG    1       -3.894   7.107  -2.745  0.00  0.00    -0.170 F 
ATOM     17  F   LIG    1       -5.510   5.818  -1.772  0.00  0.00    -0.170 F 
ATOM     18  F   LIG    1       -3.977   4.864  -3.171  0.00  0.00    -0.170 F 
ENDBRANCH  12  15
ENDBRANCH   7   8
BRANCH   4  19
ATOM     19  C   LIG    1        2.564   1.583  -0.013  0.00  0.00    +0.450 C 
ATOM     20  O   LIG    1        3.427   2.436  -0.017  0.00  0.00    -0.450 OA
BRANCH  19  21
ATOM     21  C   LIG    1        2.944   0.125  -0.023  0.00  0.00    +0.100 C 
BRANCH  21  22
ATOM     22  S   LIG    1        4.751  -0.028  -0.041  0.00  0.00    +0.050 S 
BRANCH  22  23
ATOM     23  C   LIG    1        5.001  -1.773  -0.051  0.00  0.00    +0.110 A 
ATOM     24  N   LIG    1        4.063  -2.693  -0.047  0.00  0.00    -0.250 NA
ATOM     25  N   LIG    1        4.590  -3.867  -0.057  0.00  0.00    -0.280 NA
ATOM     26  C   LIG    1        5.906  -3.764  -0.068  0.00  0.00    +0.200 A 
ATOM     27  C   LIG    1        6.954  -4.707  -0.082  0.00  0.00    +0.080 A 
ATOM     28  C   LIG    1        8.241  -4.269  -0.091  0.00  0.00    +0.070 A 
ATOM     29  C   LIG    1        8.512  -2.888  -0.088  0.00  0.00    +0.030 A 
ATOM     30  C   LIG    1        7.503  -1.994  -0.074  0.00  0.00    +0.240 A 
ATOM     31  N   LIG    1        6.202  -2.417  -0.070  0.00  0.00    -0.380 N 
ENDBRANCH  22  23
ENDBRANCH  21  22
ENDBRANCH  19  21
ENDBRANCH   4  19
TORSDOF 6
