REMARK  Name = ZINCrH000004nQKh.0
REMARK                            x       y       z     vdW  Elec       q    Type
REMARK                         _______ _______ _______ _____ _____    ______ ____
ROOT
ATOM      1  C   LIG    1       -2.534   1.606  -0.046  0.00  0.00    +0.270 C 
ENDROOT
BRANCH   1   2
ATOM      2  N   LIG    1       -1.238   2.284  -0.137  0.00  0.00    -0.560 N 
ATOM      3  C   LIG    1       -0.049   1.655  -0.138  0.00  0.00    +0.580 C 
ATOM      4  C   LIG    1        1.020   2.670  -0.250  0.00  0.00    -0.140 A 
ATOM      5  C   LIG    1        2.403   2.616  -0.303  0.00  0.00    +0.100 A 
ATOM      6  C   LIG    1        3.133   3.790  -0.413  0.00  0.00    +0.040 A 
ATOM      7  C   LIG    1        2.490   5.012  -0.468  0.00  0.00    +0.050 A 
ATOM      8  C   LIG    1        1.106   5.081  -0.416  0.00  0.00    +0.100 A 
ATOM      9  C   LIG    1        0.364   3.917  -0.307  0.00  0.00    -0.130 A 
ATOM     10  O   LIG    1        0.118   0.455  -0.064  0.00  0.00    -0.460 OA
ATOM     11  C   LIG    1       -1.081   3.617  -0.228  0.00  0.00    +0.580 C 
ATOM     12  O   LIG    1       -1.977   4.437  -0.247  0.00  0.00    -0.440 OA
ENDBRANCH   1   2
BRANCH   1  13
ATOM     13  C   LIG    1       -3.265   2.083   1.183  0.00  0.00    +0.510 C 
ATOM     14  N   LIG    1       -4.487   1.593   1.472  0.00  0.00    -0.670 N 
ATOM     15  H   LIG    1       -4.928   0.992   0.852  0.00  0.00    +0.410 HD
ATOM     16  O   LIG    1       -2.754   2.908   1.911  0.00  0.00    -0.490 OA
BRANCH  14  17
ATOM     17  C   LIG    1       -5.118   1.952   2.668  0.00  0.00    +0.170 A 
ATOM     18  C   LIG    1       -4.364   2.180   3.812  0.00  0.00    +0.020 A 
ATOM     19  C   LIG    1       -4.986   2.538   4.993  0.00  0.00    +0.050 A 
ATOM     20  C   LIG    1       -6.361   2.661   5.043  0.00  0.00    -0.020 A 
ATOM     21  C   LIG    1       -7.122   2.429   3.903  0.00  0.00    -0.060 A 
ATOM     22  C   LIG    1       -6.500   2.074   2.715  0.00  0.00    +0.010 A 
BRANCH  21  23
ATOM     23  S   LIG    1       -8.876   2.586   3.968  0.00  0.00    -0.110 S 
ATOM     24  C   LIG    1       -9.181   3.054   5.693  0.00  0.00    +0.140 C 
ENDBRANCH  21  23
ENDBRANCH  14  17
ENDBRANCH   1  13
BRANCH   1  25
ATOM     25  C   LIG    1       -3.365   1.926  -1.290  0.00  0.00    +0.080 C 
BRANCH  25  26
ATOM     26  C   LIG    1       -2.684   1.332  -2.525  0.00  0.00    +0.080 C 
BRANCH  26  28
ATOM     27  C   LIG    1       -2.716   0.938  -5.336  0.00  0.00    +0.140 C 
ATOM     28  S   LIG    1       -3.669   1.711  -4.000  0.00  0.00    -0.250 S 
ENDBRANCH  26  28
ENDBRANCH  25  26
ENDBRANCH   1  25
TORSDOF 7
