REMARK  Name = ZINCrH000004n8Xo.0
REMARK                            x       y       z     vdW  Elec       q    Type
REMARK                         _______ _______ _______ _____ _____    ______ ____
ROOT
ATOM      1  C   LIG    1       -1.738   6.277  -0.509  0.00  0.00    +0.540 C 
ATOM      2  N   LIG    1       -1.240   7.348  -1.159  0.00  0.00    -0.740 N 
ATOM      3  H   LIG    1       -1.548   7.559  -2.054  0.00  0.00    +0.400 HD
ATOM      4  O   LIG    1       -1.422   6.066   0.643  0.00  0.00    -0.540 OA
ENDROOT
BRANCH   1   5
ATOM      5  C   LIG    1       -2.686   5.342  -1.214  0.00  0.00    +0.060 C 
BRANCH   5  14
ATOM      6  C   LIG    1       -5.538   1.444  -2.393  0.00  0.00    +0.120 A 
ATOM      7  C   LIG    1       -4.342   1.926  -2.904  0.00  0.00    -0.080 A 
ATOM      8  C   LIG    1       -3.614   2.849  -2.185  0.00  0.00    +0.050 A 
ATOM      9  C   LIG    1       -4.067   3.304  -0.953  0.00  0.00    -0.110 A 
ATOM     10  C   LIG    1       -5.260   2.836  -0.448  0.00  0.00    -0.030 A 
ATOM     11  C   LIG    1       -5.814   3.292   0.876  0.00  0.00    +0.080 C 
ATOM     12  C   LIG    1       -4.724   3.952   1.718  0.00  0.00    +0.020 C 
ATOM     13  C   LIG    1       -4.028   5.015   0.861  0.00  0.00    +0.030 C 
ATOM     14  C   LIG    1       -3.215   4.307  -0.220  0.00  0.00    +0.070 C 
ATOM     15  C   LIG    1       -5.990   1.899  -1.165  0.00  0.00    -0.030 A 
BRANCH   6  17
ATOM     16  C   LIG    1       -5.732   0.110  -4.351  0.00  0.00    +0.230 C 
ATOM     17  O   LIG    1       -6.262   0.532  -3.093  0.00  0.00    -0.320 OA
ENDBRANCH   6  17
ENDBRANCH   5  14
ENDBRANCH   1   5
BRANCH   2  18
ATOM     18  C   LIG    1       -0.233   8.194  -0.513  0.00  0.00    +0.330 C 
BRANCH  18  19
ATOM     19  C   LIG    1       -0.466   9.633  -0.895  0.00  0.00    -0.090 A 
ATOM     20  C   LIG    1       -0.823   9.955  -2.191  0.00  0.00    +0.010 A 
ATOM     21  C   LIG    1       -1.041  11.275  -2.539  0.00  0.00    +0.000 A 
ATOM     22  C   LIG    1       -0.892  12.273  -1.595  0.00  0.00    +0.000 A 
ATOM     23  C   LIG    1       -0.530  11.951  -0.300  0.00  0.00    +0.020 A 
ATOM     24  C   LIG    1       -0.317  10.631   0.050  0.00  0.00    +0.020 A 
ENDBRANCH  18  19
BRANCH  18  25
ATOM     25  C   LIG    1        1.163   7.764  -0.970  0.00  0.00    -0.250 C 
BRANCH  25  26
ATOM     26  S   LIG    1        1.454   6.041  -0.484  0.00  0.00    +1.260 S 
ATOM     27  O   LIG    1        0.572   5.191  -1.204  0.00  0.00    -0.840 OA
ATOM     28  C   LIG    1        3.159   5.746  -1.032  0.00  0.00    -0.210 C 
ENDBRANCH  25  26
ENDBRANCH  18  25
ENDBRANCH   2  18
TORSDOF 7
