REMARK  Name = ZINCrH000004q8nd.0
REMARK                            x       y       z     vdW  Elec       q    Type
REMARK                         _______ _______ _______ _____ _____    ______ ____
ROOT
ATOM      1  C   LIG    1       -5.281  -2.446   0.645  0.00  0.00    +0.600 C 
ATOM      2  N   LIG    1       -4.042  -1.917   0.614  0.00  0.00    -0.730 N 
ATOM      3  H   LIG    1       -3.283  -2.472   0.378  0.00  0.00    +0.400 HD
ATOM      4  O   LIG    1       -6.233  -1.750   0.942  0.00  0.00    -0.550 OA
ENDROOT
BRANCH   1   7
ATOM      5  C   LIG    1       -8.039  -3.964   0.629  0.00  0.00    +0.170 C 
ATOM      6  C   LIG    1       -6.686  -4.546   0.308  0.00  0.00    +0.160 A 
ATOM      7  C   LIG    1       -5.482  -3.870   0.318  0.00  0.00    -0.300 A 
ATOM      8  C   LIG    1       -4.480  -4.796  -0.049  0.00  0.00    +0.270 A 
ATOM      9  N   LIG    1       -5.053  -5.950  -0.255  0.00  0.00    -0.290 NA
ATOM     10  N   LIG    1       -6.430  -5.817  -0.042  0.00  0.00    -0.350 N 
BRANCH  10  11
ATOM     11  C   LIG    1       -7.424  -6.884  -0.176  0.00  0.00    +0.260 C 
ATOM     12  C   LIG    1       -7.070  -8.057   0.761  0.00  0.00    +0.020 C 
ATOM     13  C   LIG    1       -7.453  -9.320  -0.050  0.00  0.00    +0.020 C 
ATOM     14  C   LIG    1       -7.040  -8.939  -1.493  0.00  0.00    +0.020 C 
ATOM     15  C   LIG    1       -7.405  -7.445  -1.609  0.00  0.00    +0.030 C 
ENDBRANCH  10  11
ENDBRANCH   1   7
BRANCH   2  16
ATOM     16  C   LIG    1       -3.842  -0.502   0.939  0.00  0.00    +0.280 C 
BRANCH  16  17
ATOM     17  C   LIG    1       -2.355  -0.159   0.830  0.00  0.00    +0.170 C 
BRANCH  17  18
ATOM     18  N   LIG    1       -2.155   1.259   1.155  0.00  0.00    -0.520 NA
ATOM     19  C   LIG    1       -0.724   1.577   1.269  0.00  0.00    +0.220 C 
ATOM     20  C   LIG    1       -0.013   1.086   0.008  0.00  0.00    +0.050 C 
ATOM     21  C   LIG    1       -0.738   1.583  -1.216  0.00  0.00    -0.070 A 
ATOM     22  C   LIG    1       -0.076   1.551  -2.436  0.00  0.00    -0.030 A 
ATOM     23  C   LIG    1       -0.707   1.995  -3.583  0.00  0.00    +0.020 A 
ATOM     24  C   LIG    1       -2.002   2.473  -3.514  0.00  0.00    +0.020 A 
ATOM     25  C   LIG    1       -2.659   2.506  -2.301  0.00  0.00    +0.020 A 
ATOM     26 CL   LIG    1        1.550   0.952  -2.521  0.00  0.00    -0.070 Cl
ATOM     27  C   LIG    1       -2.029   2.062  -1.148  0.00  0.00    -0.100 A 
ATOM     28  C   LIG    1       -2.786   2.123   0.152  0.00  0.00    +0.280 C 
ENDBRANCH  17  18
ENDBRANCH  16  17
ENDBRANCH   2  16
TORSDOF 5
