REMARK  Name = ZINCrg00000xb52z.0
REMARK                            x       y       z     vdW  Elec       q    Type
REMARK                         _______ _______ _______ _____ _____    ______ ____
ROOT
ATOM      1  C   LIG    1       -7.043   4.544  -2.163  0.00  0.00    +0.160 C 
ATOM      2  C   LIG    1       -8.312   3.675  -2.003  0.00  0.00    +0.020 C 
ATOM      3  C   LIG    1       -9.362   4.439  -2.852  0.00  0.00    +0.190 C 
ATOM      4  N   LIG    1       -8.572   4.932  -4.009  0.00  0.00    -0.500 NA
ATOM      5  C   LIG    1       -7.265   5.350  -3.456  0.00  0.00    +0.200 C 
ENDROOT
BRANCH   1   6
ATOM      6  O   LIG    1       -5.887   3.714  -2.288  0.00  0.00    -0.290 OA
BRANCH   6   9
ATOM      7  C   LIG    1       -3.608   2.076   0.028  0.00  0.00    +0.140 A 
ATOM      8  C   LIG    1       -4.190   2.457  -1.163  0.00  0.00    -0.040 A 
ATOM      9  C   LIG    1       -5.287   3.316  -1.137  0.00  0.00    +0.180 A 
ATOM     10  C   LIG    1       -5.751   3.756   0.100  0.00  0.00    -0.120 A 
ATOM     11  C   LIG    1       -5.114   3.329   1.246  0.00  0.00    +0.300 A 
ATOM     12  N   LIG    1       -4.081   2.510   1.181  0.00  0.00    -0.490 NA
BRANCH   7  13
ATOM     13  C   LIG    1       -2.421   1.148   0.012  0.00  0.00    +0.350 C 
BRANCH  13  16
ATOM     14  C   LIG    1        1.281   2.119   0.099  0.00  0.00    +0.110 C 
ATOM     15  C   LIG    1        0.010   1.311   0.056  0.00  0.00    +0.510 C 
ATOM     16  N   LIG    1       -1.186   1.934   0.060  0.00  0.00    -0.730 N 
ATOM     17  H   LIG    1       -1.228   2.902   0.095  0.00  0.00    +0.400 HD
ATOM     18  O   LIG    1        0.062   0.100   0.013  0.00  0.00    -0.540 OA
ENDBRANCH  13  16
ENDBRANCH   7  13
ENDBRANCH   6   9
ENDBRANCH   1   6
BRANCH   4  19
ATOM     19  C   LIG    1       -9.249   6.057  -4.668  0.00  0.00    +0.210 C 
BRANCH  19  20
ATOM     20  C   LIG    1      -10.666   5.667  -4.999  0.00  0.00    +0.520 C 
ATOM     21  N   LIG    1      -11.482   6.547  -5.611  0.00  0.00    -0.730 N 
ATOM     22  H   LIG    1      -11.158   7.432  -5.839  0.00  0.00    +0.400 HD
ATOM     23  O   LIG    1      -11.072   4.560  -4.714  0.00  0.00    -0.520 OA
BRANCH  21  24
ATOM     24  C   LIG    1      -12.860   6.167  -5.933  0.00  0.00    +0.400 C 
BRANCH  24  25
ATOM     25  C   LIG    1      -13.555   7.322  -6.609  0.00  0.00    -0.040 A 
ATOM     26  C   LIG    1      -13.588   7.553  -7.933  0.00  0.00    -0.030 A 
ATOM     27  C   LIG    1      -14.343   8.734  -8.124  0.00  0.00    -0.070 A 
ATOM     28  C   LIG    1      -14.726   9.152  -6.904  0.00  0.00    +0.180 A 
ATOM     29  O   LIG    1      -14.250   8.290  -5.991  0.00  0.00    -0.170 OA
ENDBRANCH  24  25
ENDBRANCH  21  24
ENDBRANCH  19  20
ENDBRANCH   4  19
TORSDOF 8
