REMARK  Name = ZINCvU00000009fn.0
REMARK                            x       y       z     vdW  Elec       q    Type
REMARK                         _______ _______ _______ _____ _____    ______ ____
ROOT
ATOM      1  O   LIG    1        1.822   9.088  -7.016  0.00  0.00    -0.500 OA
ATOM      2  C   LIG    1        0.674   8.699  -6.963  0.00  0.00    +0.540 C 
ATOM      3  N   LIG    1       -0.061   8.617  -8.089  0.00  0.00    -0.650 N 
ATOM      4  H   LIG    1       -0.975   8.292  -8.050  0.00  0.00    +0.420 HD
ENDROOT
BRANCH   3   5
ATOM      5  C   LIG    1        0.493   8.999  -9.318  0.00  0.00    +0.150 A 
ATOM      6  C   LIG    1        1.870   9.067  -9.468  0.00  0.00    +0.050 A 
ATOM      7  C   LIG    1        2.415   9.441 -10.683  0.00  0.00    -0.010 A 
ATOM      8  C   LIG    1        1.589   9.757 -11.747  0.00  0.00    +0.040 A 
ATOM      9  C   LIG    1        0.215   9.697 -11.603  0.00  0.00    +0.070 A 
ATOM     10 CL   LIG    1        4.139   9.519 -10.872  0.00  0.00    -0.050 Cl
ATOM     11  C   LIG    1       -0.338   9.319 -10.390  0.00  0.00    +0.060 A 
BRANCH  11  12
ATOM     12  O   LIG    1       -1.689   9.259 -10.247  0.00  0.00    -0.250 OA
BRANCH  12  13
ATOM     13  C   LIG    1       -2.317  10.319  -9.675  0.00  0.00    +0.110 A 
ATOM     14  C   LIG    1       -1.575  11.372  -9.159  0.00  0.00    -0.060 A 
ATOM     15  C   LIG    1       -2.216  12.450  -8.582  0.00  0.00    +0.050 A 
ATOM     16  C   LIG    1       -3.597  12.478  -8.510  0.00  0.00    -0.020 A 
ATOM     17  C   LIG    1       -4.339  11.428  -9.019  0.00  0.00    +0.050 A 
ATOM     18  C   LIG    1       -3.702  10.349  -9.601  0.00  0.00    -0.010 A 
ENDBRANCH  12  13
ENDBRANCH  11  12
ENDBRANCH   3   5
BRANCH   2  19
ATOM     19  C   LIG    1        0.071   8.309  -5.639  0.00  0.00    +0.110 C 
BRANCH  19  20
ATOM     20  S   LIG    1        1.299   8.528  -4.328  0.00  0.00    +0.160 S 
BRANCH  20  21
ATOM     21  C   LIG    1        0.353   8.014  -2.933  0.00  0.00    +0.110 A 
ATOM     22  N   LIG    1       -0.892   7.603  -2.946  0.00  0.00    -0.290 NA
ATOM     23  N   LIG    1       -1.257   7.311  -1.748  0.00  0.00    -0.270 NA
ATOM     24  C   LIG    1       -0.268   7.521  -0.928  0.00  0.00    +0.180 A 
ATOM     25  O   LIG    1        0.772   7.976  -1.654  0.00  0.00    -0.200 OA
BRANCH  24  26
ATOM     26  C   LIG    1       -0.286   7.302   0.563  0.00  0.00    +0.250 C 
BRANCH  26  27
ATOM     27  C   LIG    1        0.152   5.893   0.868  0.00  0.00    -0.100 A 
ATOM     28  C   LIG    1        1.490   5.614   1.076  0.00  0.00    +0.010 A 
ATOM     29  C   LIG    1        1.892   4.322   1.356  0.00  0.00    +0.010 A 
ATOM     30  C   LIG    1        0.955   3.307   1.428  0.00  0.00    +0.020 A 
ATOM     31  C   LIG    1       -0.382   3.585   1.216  0.00  0.00    +0.010 A 
ATOM     32  C   LIG    1       -0.784   4.878   0.941  0.00  0.00    +0.030 A 
ENDBRANCH  26  27
ENDBRANCH  24  26
ENDBRANCH  20  21
ENDBRANCH  19  20
ENDBRANCH   2  19
TORSDOF 8
