REMARK  Name = ZINCrD000000DhO7.0
REMARK                            x       y       z     vdW  Elec       q    Type
REMARK                         _______ _______ _______ _____ _____    ______ ____
ROOT
ATOM      1  N   LIG    1       -2.130   1.125   1.238  0.00  0.00    -0.530 NA
ATOM      2  C   LIG    1       -0.731   1.581   1.266  0.00  0.00    +0.150 C 
ATOM      3  C   LIG    1       -0.013   1.086   0.008  0.00  0.00    +0.220 C 
ATOM      4  O   LIG    1       -0.707   1.561  -1.150  0.00  0.00    -0.370 OA
ATOM      5  C   LIG    1       -2.073   1.160  -1.206  0.00  0.00    +0.170 C 
ATOM      6  C   LIG    1       -2.168  -0.372  -1.327  0.00  0.00    +0.040 C 
ATOM      7  C   LIG    1       -3.410  -0.555  -2.227  0.00  0.00    +0.080 C 
ATOM      8  C   LIG    1       -3.502   0.720  -3.039  0.00  0.00    -0.080 A 
ATOM      9  C   LIG    1       -4.204   0.994  -4.200  0.00  0.00    +0.010 A 
ATOM     10  C   LIG    1       -4.139   2.250  -4.772  0.00  0.00    +0.020 A 
ATOM     11  C   LIG    1       -3.370   3.237  -4.183  0.00  0.00    +0.000 A 
ATOM     12  C   LIG    1       -2.669   2.965  -3.025  0.00  0.00    +0.040 A 
ATOM     13  C   LIG    1       -2.732   1.707  -2.449  0.00  0.00    -0.090 A 
ATOM     14  C   LIG    1       -2.818   1.630   0.040  0.00  0.00    +0.190 C 
ENDROOT
BRANCH   1  15
ATOM     15  C   LIG    1       -2.838   1.525   2.461  0.00  0.00    +0.360 C 
BRANCH  15  19
ATOM     16  C   LIG    1       -0.595   1.297   5.254  0.00  0.00    +0.180 A 
ATOM     17  N   LIG    1       -1.180   0.137   5.263  0.00  0.00    -0.370 NA
ATOM     18  O   LIG    1       -1.987   0.067   4.360  0.00  0.00    +0.090 OA
ATOM     19  C   LIG    1       -1.986   1.207   3.662  0.00  0.00    +0.180 A 
ATOM     20  N   LIG    1       -1.105   1.998   4.226  0.00  0.00    -0.470 NA
BRANCH  16  21
ATOM     21  C   LIG    1        0.462   1.770   6.219  0.00  0.00    +0.220 C 
BRANCH  21  25
ATOM     22  C   LIG    1       -1.406   3.680   9.552  0.00  0.00    +0.000 A 
ATOM     23  C   LIG    1       -1.156   2.321   9.585  0.00  0.00    +0.000 A 
ATOM     24  C   LIG    1       -0.552   1.703   8.507  0.00  0.00    +0.010 A 
ATOM     25  C   LIG    1       -0.197   2.444   7.395  0.00  0.00    -0.090 A 
ATOM     26  C   LIG    1       -0.442   3.804   7.364  0.00  0.00    +0.030 A 
ATOM     27  C   LIG    1       -1.051   4.421   8.441  0.00  0.00    +0.000 A 
ENDBRANCH  21  25
ENDBRANCH  16  21
ENDBRANCH  15  19
ENDBRANCH   1  15
TORSDOF 4
