REMARK  Name = ZINCpk00000jnQo7.0
REMARK                            x       y       z     vdW  Elec       q    Type
REMARK                         _______ _______ _______ _____ _____    ______ ____
ROOT
ATOM      1  C   LIG    1       -0.920   3.650   0.262  0.00  0.00    +0.090 C 
ATOM      2  C   LIG    1       -1.242   2.174   0.020  0.00  0.00    -0.010 C 
ATOM      3  C   LIG    1       -2.381   1.634   0.905  0.00  0.00    +0.320 C 
ATOM      4  N   LIG    1       -3.286   2.034  -0.193  0.00  0.00    -0.640 N 
ATOM      5  C   LIG    1       -4.591   2.360  -0.269  0.00  0.00    +0.580 C 
ATOM      6  O   LIG    1       -5.081   2.657  -1.339  0.00  0.00    -0.530 OA
ATOM      7  C   LIG    1       -2.186   1.933  -1.172  0.00  0.00    +0.330 C 
ENDROOT
BRANCH   5   8
ATOM      8  C   LIG    1       -5.442   2.357   0.974  0.00  0.00    -0.090 C 
ATOM      9  C   LIG    1       -6.921   2.742   0.823  0.00  0.00    -0.010 C 
ATOM     10  C   LIG    1       -7.912   1.966   1.693  0.00  0.00    +0.060 C 
ATOM     11  C   LIG    1       -8.079   2.684   3.035  0.00  0.00    +0.000 C 
ATOM     12  C   LIG    1       -6.688   2.917   3.636  0.00  0.00    +0.200 C 
ATOM     13  O   LIG    1       -6.027   3.935   2.885  0.00  0.00    -0.340 OA
ATOM     14  C   LIG    1       -5.940   3.701   1.491  0.00  0.00    +0.230 C 
ENDBRANCH   5   8
BRANCH   2  15
ATOM     15  C   LIG    1       -0.016   1.298   0.009  0.00  0.00    +0.170 A 
ATOM     16  N   LIG    1        0.002  -0.004   0.002  0.00  0.00    -0.280 NA
ATOM     17  N   LIG    1        1.222  -0.414  -0.012  0.00  0.00    -0.280 NA
ATOM     18  C   LIG    1        2.023   0.612  -0.014  0.00  0.00    +0.170 A 
ATOM     19  O   LIG    1        1.261   1.718  -0.001  0.00  0.00    -0.220 OA
BRANCH  18  20
ATOM     20  C   LIG    1        3.530   0.568  -0.029  0.00  0.00    +0.110 C 
ATOM     21  C   LIG    1        4.008  -0.172  -1.281  0.00  0.00    +0.020 C 
ATOM     22  C   LIG    1        5.535  -0.282  -1.248  0.00  0.00    +0.220 C 
ATOM     23  O   LIG    1        5.937  -0.955  -0.053  0.00  0.00    -0.380 OA
ATOM     24  C   LIG    1        5.558  -0.284   1.150  0.00  0.00    +0.220 C 
ATOM     25  C   LIG    1        4.032  -0.175   1.213  0.00  0.00    +0.020 C 
ENDBRANCH  18  20
ENDBRANCH   2  15
TORSDOF 3
