REMARK  Name = ZINCrD000000fnFy.0
REMARK                            x       y       z     vdW  Elec       q    Type
REMARK                         _______ _______ _______ _____ _____    ______ ____
ROOT
ATOM      1  C   LIG    1        4.705   1.478  -0.036  0.00  0.00    +0.360 A 
ATOM      2  N   LIG    1        3.556   2.107  -0.021  0.00  0.00    -0.520 NA
ATOM      3  C   LIG    1        2.381   1.435  -0.013  0.00  0.00    +0.160 A 
ATOM      4  C   LIG    1        1.155   2.106   0.002  0.00  0.00    +0.030 A 
ATOM      5  C   LIG    1       -0.017   1.385   0.010  0.00  0.00    +0.070 A 
ATOM      6  C   LIG    1        0.002  -0.004   0.002  0.00  0.00    +0.000 A 
ATOM      7  C   LIG    1        1.197  -0.689  -0.013  0.00  0.00    +0.100 A 
ATOM      8  C   LIG    1        2.397   0.021  -0.021  0.00  0.00    -0.200 A 
ATOM      9  C   LIG    1        3.699  -0.658  -0.037  0.00  0.00    +0.560 A 
ATOM     10  O   LIG    1        3.776  -1.873  -0.045  0.00  0.00    -0.490 OA
ATOM     11  N   LIG    1        4.809   0.115  -0.044  0.00  0.00    -0.480 N 
ENDROOT
BRANCH  11  12
ATOM     12  C   LIG    1        6.075  -0.486  -0.060  0.00  0.00    +0.050 A 
ATOM     13  C   LIG    1        6.718  -0.786   1.133  0.00  0.00    +0.080 A 
ATOM     14  C   LIG    1        7.963  -1.383   1.115  0.00  0.00    +0.020 A 
ATOM     15  C   LIG    1        8.576  -1.673  -0.090  0.00  0.00    +0.070 A 
ATOM     16  C   LIG    1        7.942  -1.372  -1.282  0.00  0.00    +0.000 A 
ATOM     17  C   LIG    1        6.693  -0.779  -1.271  0.00  0.00    +0.130 A 
ATOM     18  F   LIG    1        6.073  -0.484  -2.435  0.00  0.00    -0.130 F 
ENDBRANCH  11  12
BRANCH   1  19
ATOM     19  S   LIG    1        6.186   2.434  -0.046  0.00  0.00    +0.080 S 
BRANCH  19  20
ATOM     20  C   LIG    1        5.484   4.102  -0.030  0.00  0.00    +0.020 C 
ATOM     21  C   LIG    1        4.711   4.342  -1.329  0.00  0.00    +0.090 C 
BRANCH  20  24
ATOM     22  N   LIG    1        6.346   6.330   0.612  0.00  0.00    -0.720 N 
ATOM     23  H   LIG    1        5.452   6.554   0.914  0.00  0.00    +0.410 HD
ATOM     24  C   LIG    1        6.595   5.113   0.087  0.00  0.00    +0.530 C 
ATOM     25  O   LIG    1        7.713   4.833  -0.290  0.00  0.00    -0.520 OA
BRANCH  22  26
ATOM     26  C   LIG    1        7.426   7.313   0.726  0.00  0.00    +0.310 C 
BRANCH  26  28
ATOM     27  C   LIG    1        7.451   9.077   2.414  0.00  0.00    +0.050 C 
ATOM     28  C   LIG    1        6.889   8.580   1.340  0.00  0.00    -0.060 C 
ENDBRANCH  26  28
ENDBRANCH  22  26
ENDBRANCH  20  24
ENDBRANCH  19  20
ENDBRANCH   1  19
TORSDOF 6
