REMARK  Name = ZINCqH0000036UOG.0
REMARK                            x       y       z     vdW  Elec       q    Type
REMARK                         _______ _______ _______ _____ _____    ______ ____
ROOT
ATOM      1  C   LIG    1       -2.349   2.682  -5.765  0.00  0.00    +0.340 A 
ATOM      2  C   LIG    1       -1.212   1.902  -5.970  0.00  0.00    -0.050 A 
ATOM      3  C   LIG    1       -0.519   1.428  -4.890  0.00  0.00    +0.160 A 
ATOM      4  C   LIG    1       -0.982   1.747  -3.604  0.00  0.00    -0.220 A 
ATOM      5  C   LIG    1       -2.131   2.529  -3.473  0.00  0.00    +0.330 A 
ATOM      6  N   LIG    1       -2.765   2.970  -4.539  0.00  0.00    -0.520 NA
ENDROOT
BRANCH   1  10
ATOM      7  C   LIG    1       -6.155   5.315  -7.220  0.00  0.00    +0.060 C 
ATOM      8  C   LIG    1       -4.993   4.421  -7.657  0.00  0.00    +0.150 C 
ATOM      9  C   LIG    1       -4.212   3.960  -6.425  0.00  0.00    +0.200 C 
ATOM     10  N   LIG    1       -3.053   3.164  -6.855  0.00  0.00    -0.470 N 
ATOM     11  C   LIG    1       -2.181   3.950  -7.740  0.00  0.00    +0.190 C 
ATOM     12  C   LIG    1       -2.983   4.411  -8.960  0.00  0.00    +0.200 C 
ATOM     13  C   LIG    1       -3.448   3.191  -9.758  0.00  0.00    +0.020 C 
ATOM     14  O   LIG    1       -4.122   5.156  -8.521  0.00  0.00    -0.370 OA
ENDBRANCH   1  10
BRANCH   4  15
ATOM     15  C   LIG    1       -0.268   1.258  -2.409  0.00  0.00    +0.570 C 
ATOM     16  N   LIG    1       -0.721   1.571  -1.179  0.00  0.00    -0.730 N 
ATOM     17  H   LIG    1       -1.516   2.118  -1.079  0.00  0.00    +0.400 HD
ATOM     18  O   LIG    1        0.729   0.574  -2.534  0.00  0.00    -0.530 OA
BRANCH  16  19
ATOM     19  C   LIG    1       -0.013   1.086   0.008  0.00  0.00    +0.260 C 
BRANCH  19  20
ATOM     20  C   LIG    1       -0.729   1.579   1.267  0.00  0.00    -0.020 C 
ATOM     21  C   LIG    1       -0.641   3.105   1.339  0.00  0.00    +0.010 C 
ATOM     22  C   LIG    1       -1.667   3.628   2.346  0.00  0.00    +0.000 C 
ATOM     23  C   LIG    1       -2.999   2.905   2.140  0.00  0.00    +0.000 C 
ATOM     24  C   LIG    1       -3.296   2.026   3.357  0.00  0.00    +0.000 C 
ATOM     25  C   LIG    1       -2.422   0.771   3.305  0.00  0.00    +0.000 C 
ATOM     26  C   LIG    1       -0.991   1.129   3.710  0.00  0.00    +0.000 C 
ATOM     27  C   LIG    1       -0.064   0.971   2.503  0.00  0.00    +0.020 C 
ENDBRANCH  19  20
ENDBRANCH  16  19
ENDBRANCH   4  15
TORSDOF 4
