REMARK  Name = ZINCrH000004su8V.0
REMARK                            x       y       z     vdW  Elec       q    Type
REMARK                         _______ _______ _______ _____ _____    ______ ____
ROOT
ATOM      1  N   LIG    1       -2.602   1.938   4.567  0.00  0.00    -0.450 N 
ATOM      2  C   LIG    1       -3.837   1.150   4.462  0.00  0.00    +0.190 C 
ATOM      3  C   LIG    1       -4.463   1.001   5.853  0.00  0.00    +0.290 C 
ATOM      4  N   LIG    1       -4.628   2.341   6.437  0.00  0.00    -0.610 N 
ATOM      5  C   LIG    1       -3.465   3.241   6.452  0.00  0.00    +0.290 C 
ATOM      6  C   LIG    1       -5.813   2.733   6.944  0.00  0.00    +0.530 C 
ATOM      7  O   LIG    1       -5.910   3.806   7.500  0.00  0.00    -0.530 OA
ATOM      8  C   LIG    1       -2.878   3.302   5.037  0.00  0.00    +0.220 C 
ENDROOT
BRANCH   1  13
ATOM      9  C   LIG    1       -0.446   4.019   0.740  0.00  0.00    +0.140 C 
ATOM     10  C   LIG    1       -0.921   2.864   1.583  0.00  0.00    +0.080 A 
ATOM     11  C   LIG    1       -0.723   1.591   1.239  0.00  0.00    -0.250 A 
ATOM     12  S   LIG    1       -1.422   0.571   2.494  0.00  0.00    +0.140 S 
ATOM     13  C   LIG    1       -1.921   1.958   3.359  0.00  0.00    +0.220 A 
ATOM     14  C   LIG    1       -0.019   1.110  -0.003  0.00  0.00    +0.160 C 
ATOM     15  N   LIG    1       -1.571   3.031   2.721  0.00  0.00    -0.510 NA
ENDBRANCH   1  13
BRANCH   6  16
ATOM     16  C   LIG    1       -7.019   1.838   6.821  0.00  0.00    +0.070 C 
ATOM     17  C   LIG    1       -8.012   2.162   7.939  0.00  0.00    +0.060 C 
BRANCH  16  18
ATOM     18  C   LIG    1       -7.677   2.063   5.484  0.00  0.00    -0.170 A 
ATOM     19  C   LIG    1       -8.191   3.217   5.031  0.00  0.00    +0.240 A 
ATOM     20  N   LIG    1       -8.702   3.040   3.774  0.00  0.00    -0.480 N 
ATOM     21  C   LIG    1       -8.532   1.732   3.380  0.00  0.00    +0.100 A 
ATOM     22  C   LIG    1       -8.864   1.028   2.227  0.00  0.00    -0.010 A 
ATOM     23  C   LIG    1       -8.554  -0.311   2.130  0.00  0.00    +0.030 A 
ATOM     24  C   LIG    1       -7.914  -0.967   3.172  0.00  0.00    -0.020 A 
ATOM     25  C   LIG    1       -7.579  -0.295   4.314  0.00  0.00    +0.040 A 
ATOM     26  C   LIG    1       -9.339   4.085   2.969  0.00  0.00    +0.310 C 
ATOM     27  C   LIG    1       -7.883   1.062   4.434  0.00  0.00    -0.100 A 
ENDBRANCH  16  18
ENDBRANCH   6  16
TORSDOF 3
