REMARK  Name = ZINCrH000004rDSU.0
REMARK                            x       y       z     vdW  Elec       q    Type
REMARK                         _______ _______ _______ _____ _____    ______ ____
ROOT
ATOM      1  C   LIG    1        3.565   1.010   0.482  0.00  0.00    +0.580 C 
ATOM      2  N   LIG    1        2.407   1.501   0.966  0.00  0.00    -0.600 N 
ATOM      3  C   LIG    1        2.077   1.269   2.342  0.00  0.00    +0.280 C 
ATOM      4  C   LIG    1        1.366  -0.091   2.437  0.00  0.00    -0.010 C 
ATOM      5  C   LIG    1       -0.041  -0.005   2.016  0.00  0.00    +0.330 C 
ATOM      6  N   LIG    1       -0.132   0.495   0.623  0.00  0.00    -0.590 N 
ATOM      7  C   LIG    1        0.039   1.895   0.349  0.00  0.00    +0.280 C 
ATOM      8  C   LIG    1       -0.375  -0.364  -0.386  0.00  0.00    +0.650 C 
ATOM      9  O   LIG    1       -0.519  -1.548  -0.154  0.00  0.00    -0.570 OA
ATOM     10  C   LIG    1        1.514   2.265   0.055  0.00  0.00    +0.270 C 
ATOM     11  O   LIG    1        3.838   1.144  -0.696  0.00  0.00    -0.520 OA
ENDROOT
BRANCH   1  19
ATOM     12  C   LIG    1        9.235  -2.249   4.042  0.00  0.00    +0.090 C 
ATOM     13  C   LIG    1        7.856  -1.737   3.716  0.00  0.00    -0.120 A 
ATOM     14  C   LIG    1        6.816  -1.943   4.614  0.00  0.00    +0.050 A 
ATOM     15  C   LIG    1        5.548  -1.483   4.338  0.00  0.00    -0.020 A 
ATOM     16  C   LIG    1        5.302  -0.806   3.147  0.00  0.00    +0.110 A 
ATOM     17  N   LIG    1        4.175  -0.237   2.603  0.00  0.00    -0.590 N 
ATOM     18  H   LIG    1        3.295  -0.224   3.013  0.00  0.00    +0.420 HD
ATOM     19  C   LIG    1        4.499   0.311   1.378  0.00  0.00    +0.010 A 
ATOM     20  C   LIG    1        5.820   0.108   1.135  0.00  0.00    +0.050 A 
ATOM     21  C   LIG    1        6.358  -0.598   2.238  0.00  0.00    -0.110 A 
ATOM     22  C   LIG    1        7.639  -1.075   2.543  0.00  0.00    -0.030 A 
ATOM     23  C   LIG    1        8.776  -0.859   1.577  0.00  0.00    +0.090 C 
ENDBRANCH   1  19
BRANCH   8  24
ATOM     24  O   LIG    1       -0.457   0.089  -1.651  0.00  0.00    -0.360 OA
BRANCH  24  25
ATOM     25  C   LIG    1       -0.721  -0.893  -2.688  0.00  0.00    +0.230 C 
BRANCH  25  26
ATOM     26  C   LIG    1       -0.779  -0.195  -4.048  0.00  0.00    -0.010 C 
ATOM     27  C   LIG    1       -1.179  -1.207  -5.123  0.00  0.00    +0.040 C 
ATOM     28  C   LIG    1        0.596   0.387  -4.382  0.00  0.00    +0.030 C 
ENDBRANCH  25  26
ENDBRANCH  24  25
ENDBRANCH   8  24
TORSDOF 4
