REMARK  Name = ZINCpe000000XKzp.0
REMARK                            x       y       z     vdW  Elec       q    Type
REMARK                         _______ _______ _______ _____ _____    ______ ____
ROOT
ATOM      1  C   LIG    1       -1.150   4.246  -2.118  0.00  0.00    +0.590 C 
ATOM      2  N   LIG    1       -1.306   3.290  -1.181  0.00  0.00    -0.600 N 
ATOM      3  C   LIG    1       -1.183   1.866  -1.528  0.00  0.00    +0.240 C 
ATOM      4  C   LIG    1       -0.202   1.210  -0.549  0.00  0.00    +0.220 C 
ATOM      5  N   LIG    1       -0.636   1.479   0.828  0.00  0.00    -0.680 NA
ATOM      6  H   LIG    1       -1.552   1.092   1.001  0.00  0.00    +0.340 HD
ATOM      7  C   LIG    1       -0.608   2.917   1.125  0.00  0.00    +0.250 C 
ATOM      8  C   LIG    1       -1.605   3.643   0.215  0.00  0.00    +0.290 C 
ATOM      9  O   LIG    1       -1.339   5.413  -1.834  0.00  0.00    -0.480 OA
ENDROOT
BRANCH   1  17
ATOM     10  C   LIG    1       -1.471   1.951  -9.136  0.00  0.00    +0.180 C 
ATOM     11  C   LIG    1       -1.126   2.451  -7.757  0.00  0.00    +0.120 A 
ATOM     12  N   LIG    1       -1.978   2.619  -6.772  0.00  0.00    -0.310 NA
ATOM     13  N   LIG    1       -1.285   3.095  -5.653  0.00  0.00    -0.310 N 
ATOM     14  C   LIG    1        0.038   3.211  -6.000  0.00  0.00    +0.260 A 
ATOM     15  N   LIG    1        0.946   3.650  -5.116  0.00  0.00    -0.460 NA
ATOM     16  C   LIG    1        0.601   3.984  -3.898  0.00  0.00    +0.400 A 
ATOM     17  C   LIG    1       -0.751   3.877  -3.490  0.00  0.00    -0.240 A 
ATOM     18  C   LIG    1       -1.690   3.426  -4.396  0.00  0.00    +0.240 A 
ATOM     19  C   LIG    1       -3.139   3.303  -4.001  0.00  0.00    +0.170 C 
ATOM     20  C   LIG    1        0.143   2.807  -7.323  0.00  0.00    -0.090 A 
ENDBRANCH   1  17
BRANCH   8  21
ATOM     21  C   LIG    1       -1.469   5.132   0.401  0.00  0.00    +0.220 A 
ATOM     22  N   LIG    1       -0.369   5.819   0.256  0.00  0.00    -0.470 NA
ATOM     23  C   LIG    1       -0.620   7.114   0.500  0.00  0.00    +0.160 A 
ATOM     24  C   LIG    1       -1.926   7.234   0.808  0.00  0.00    +0.110 A 
ATOM     25  N   LIG    1       -2.466   5.978   0.740  0.00  0.00    -0.450 N 
ATOM     26  C   LIG    1       -3.863   5.618   0.991  0.00  0.00    +0.320 C 
ENDBRANCH   8  21
TORSDOF 2
