REMARK  Name = ZINCpe00000MJJ0G.0
REMARK                            x       y       z     vdW  Elec       q    Type
REMARK                         _______ _______ _______ _____ _____    ______ ____
ROOT
ATOM      1  C   LIG    1        2.361   0.850   0.594  0.00  0.00    +0.020 C 
ATOM      2  C   LIG    1        2.519  -0.422  -0.242  0.00  0.00    +0.010 C 
ATOM      3  C   LIG    1        2.879  -0.045  -1.681  0.00  0.00    +0.010 C 
ATOM      4  C   LIG    1        1.766   0.821  -2.275  0.00  0.00    +0.000 C 
ATOM      5  C   LIG    1        1.608   2.092  -1.439  0.00  0.00    +0.010 C 
ATOM      6  C   LIG    1        1.248   1.716  -0.001  0.00  0.00    +0.240 C 
ENDROOT
BRANCH   6   7
ATOM      7  N   LIG    1       -0.011   0.966   0.007  0.00  0.00    -0.730 N 
ATOM      8  H   LIG    1        0.002  -0.004   0.002  0.00  0.00    +0.400 HD
ATOM      9  C   LIG    1       -1.187   1.624   0.017  0.00  0.00    +0.520 C 
ATOM     10  O   LIG    1       -1.204   2.837   0.023  0.00  0.00    -0.530 OA
BRANCH   9  11
ATOM     11  C   LIG    1       -2.482   0.853   0.018  0.00  0.00    -0.010 C 
ATOM     12  C   LIG    1       -2.557  -0.021  -1.235  0.00  0.00    +0.030 C 
ATOM     13  C   LIG    1       -3.872  -0.804  -1.233  0.00  0.00    -0.010 C 
ATOM     14  C   LIG    1       -5.048   0.174  -1.222  0.00  0.00    +0.160 C 
ATOM     15  C   LIG    1       -4.973   1.048   0.031  0.00  0.00    +0.030 C 
ATOM     16  C   LIG    1       -3.658   1.831   0.029  0.00  0.00    +0.050 C 
BRANCH  14  17
ATOM     17  O   LIG    1       -6.276  -0.557  -1.220  0.00  0.00    -0.570 OA
ATOM     18  H   LIG    1       -6.391  -1.134  -1.988  0.00  0.00    +0.380 HD
ENDBRANCH  14  17
ENDBRANCH   9  11
ENDBRANCH   6   7
BRANCH   1  19
ATOM     19  C   LIG    1        2.000   0.473   2.032  0.00  0.00    +0.160 C 
BRANCH  19  23
ATOM     20  C   LIG    1        6.422  -1.768   2.745  0.00  0.00    +0.390 C 
ATOM     21  N   LIG    1        5.071  -1.257   2.989  0.00  0.00    -0.460 N 
ATOM     22  N   LIG    1        4.270  -0.558   2.076  0.00  0.00    -0.270 NA
ATOM     23  C   LIG    1        3.149  -0.275   2.658  0.00  0.00    +0.280 A 
ATOM     24  N   LIG    1        3.181  -0.762   3.942  0.00  0.00    -0.560 N 
ATOM     25  C   LIG    1        2.106  -0.644   4.931  0.00  0.00    +0.340 C 
ATOM     26  C   LIG    1        4.368  -1.371   4.135  0.00  0.00    +0.640 A 
ATOM     27  O   LIG    1        4.739  -1.919   5.158  0.00  0.00    -0.550 OA
ENDBRANCH  19  23
ENDBRANCH   1  19
TORSDOF 5
