REMARK  Name = ZINCpk000005KPF3.0
REMARK                            x       y       z     vdW  Elec       q    Type
REMARK                         _______ _______ _______ _____ _____    ______ ____
ROOT
ATOM      1  N   LIG    1       -2.319   0.875  -0.701  0.00  0.00    -0.530 NA
ATOM      2  C   LIG    1       -3.041   1.369   0.481  0.00  0.00    +0.160 C 
ATOM      3  C   LIG    1       -2.458   0.717   1.738  0.00  0.00    +0.230 C 
ATOM      4  O   LIG    1       -1.056   0.994   1.805  0.00  0.00    -0.380 OA
ATOM      5  C   LIG    1       -0.322   0.526   0.670  0.00  0.00    +0.160 C 
ATOM      6  C   LIG    1       -0.882   1.176  -0.598  0.00  0.00    +0.170 C 
ENDROOT
BRANCH   1   7
ATOM      7  C   LIG    1       -2.886   1.434  -1.935  0.00  0.00    +0.230 C 
BRANCH   7  15
ATOM      8  C   LIG    1       -2.861  -1.264  -2.969  0.00  0.00    +0.100 C 
ATOM      9  C   LIG    1       -4.172  -0.554  -2.747  0.00  0.00    -0.070 A 
ATOM     10  C   LIG    1       -5.362  -1.194  -3.039  0.00  0.00    +0.040 A 
ATOM     11  C   LIG    1       -6.565  -0.545  -2.835  0.00  0.00    -0.020 A 
ATOM     12  C   LIG    1       -6.578   0.747  -2.340  0.00  0.00    +0.090 A 
ATOM     13  C   LIG    1       -5.385   1.386  -2.043  0.00  0.00    -0.010 A 
ATOM     14  F   LIG    1       -7.753   1.383  -2.140  0.00  0.00    -0.140 F 
ATOM     15  C   LIG    1       -4.184   0.737  -2.252  0.00  0.00    -0.060 A 
ENDBRANCH   7  15
ENDBRANCH   1   7
BRANCH   5  16
ATOM     16  C   LIG    1        1.153   0.901   0.827  0.00  0.00    +0.300 C 
BRANCH  16  17
ATOM     17  N   LIG    1        1.720   0.186   1.974  0.00  0.00    -0.710 N 
ATOM     18  H   LIG    1        1.163  -0.413   2.494  0.00  0.00    +0.410 HD
ATOM     19  C   LIG    1        3.014   0.362   2.305  0.00  0.00    +0.610 C 
ATOM     20  O   LIG    1        3.712   1.113   1.652  0.00  0.00    -0.530 OA
BRANCH  19  21
ATOM     21  C   LIG    1        3.585  -0.359   3.461  0.00  0.00    -0.020 A 
ATOM     22  N   LIG    1        2.948  -1.195   4.256  0.00  0.00    -0.260 NA
ATOM     23  N   LIG    1        3.748  -1.643   5.156  0.00  0.00    -0.280 N 
ATOM     24  C   LIG    1        4.977  -1.104   4.999  0.00  0.00    +0.160 A 
ATOM     25  C   LIG    1        3.379  -2.596   6.205  0.00  0.00    +0.370 C 
ATOM     26  C   LIG    1        4.918  -0.278   3.929  0.00  0.00    -0.020 A 
ENDBRANCH  19  21
ENDBRANCH  16  17
ENDBRANCH   5  16
TORSDOF 5
