REMARK  Name = ZINCrD000000Bxe8.0
REMARK                            x       y       z     vdW  Elec       q    Type
REMARK                         _______ _______ _______ _____ _____    ______ ____
ROOT
ATOM      1  O   LIG    1       -3.454   3.972  -0.663  0.00  0.00    -0.520 OA
ATOM      2  C   LIG    1       -2.799   3.542  -1.593  0.00  0.00    +0.610 C 
ATOM      3  N   LIG    1       -1.692   2.810  -1.356  0.00  0.00    -0.710 N 
ATOM      4  H   LIG    1       -1.170   2.466  -2.097  0.00  0.00    +0.410 HD
ENDROOT
BRANCH   2   5
ATOM      5  C   LIG    1       -3.217   3.821  -2.981  0.00  0.00    +0.010 A 
ATOM      6  N   LIG    1       -2.606   3.419  -4.078  0.00  0.00    -0.260 NA
ATOM      7  N   LIG    1       -3.238   3.839  -5.115  0.00  0.00    -0.240 N 
ATOM      8  C   LIG    1       -4.327   4.558  -4.738  0.00  0.00    +0.180 A 
ATOM      9  C   LIG    1       -4.351   4.564  -3.385  0.00  0.00    +0.020 A 
BRANCH   7  10
ATOM     10  C   LIG    1       -2.859   3.591  -6.441  0.00  0.00    +0.140 A 
ATOM     11  C   LIG    1       -3.557   4.181  -7.486  0.00  0.00    +0.080 A 
ATOM     12  C   LIG    1       -3.181   3.936  -8.792  0.00  0.00    +0.070 A 
ATOM     13  C   LIG    1       -2.110   3.103  -9.060  0.00  0.00    +0.100 A 
ATOM     14  C   LIG    1       -1.413   2.514  -8.021  0.00  0.00    -0.020 A 
ATOM     15  C   LIG    1       -1.780   2.760  -6.713  0.00  0.00    +0.120 A 
BRANCH  14  16
ATOM     16  N   LIG    1       -0.266   1.623  -8.312  0.00  0.00    +0.020 N 
ATOM     17  O   LIG    1        0.349   1.104  -7.398  0.00  0.00    -0.150 OA
ATOM     18  O   LIG    1        0.062   1.410  -9.466  0.00  0.00    -0.140 OA
ENDBRANCH  14  16
ENDBRANCH   7  10
ENDBRANCH   2   5
BRANCH   3  19
ATOM     19  C   LIG    1       -1.278   2.533   0.022  0.00  0.00    +0.410 C 
BRANCH  19  20
ATOM     20  C   LIG    1       -0.021   1.702   0.011  0.00  0.00    +0.060 A 
ATOM     21  N   LIG    1        1.162   2.188   0.003  0.00  0.00    -0.440 NA
ATOM     22  C   LIG    1        2.196   1.325  -0.012  0.00  0.00    +0.080 A 
ATOM     23  C   LIG    1        3.582   1.581  -0.023  0.00  0.00    +0.080 A 
ATOM     24  C   LIG    1        4.474   0.551  -0.037  0.00  0.00    +0.030 A 
ATOM     25  C   LIG    1        4.037  -0.766  -0.041  0.00  0.00    +0.050 A 
ATOM     26  C   LIG    1        2.689  -1.046  -0.029  0.00  0.00    +0.060 A 
ATOM     27  C   LIG    1        1.763  -0.005  -0.015  0.00  0.00    -0.180 A 
ATOM     28  S   LIG    1        0.002  -0.004   0.002  0.00  0.00    +0.130 S 
ENDBRANCH  19  20
ENDBRANCH   3  19
TORSDOF 5
