REMARK  Name = ZINCpe00000RbBHa.0
REMARK                            x       y       z     vdW  Elec       q    Type
REMARK                         _______ _______ _______ _____ _____    ______ ____
ROOT
ATOM      1  C   LIG    1       -1.967   0.717   1.184  0.00  0.00    +0.230 C 
ATOM      2  C   LIG    1       -0.649   1.495   1.151  0.00  0.00    +0.010 C 
ATOM      3  C   LIG    1        0.017   1.315  -0.215  0.00  0.00    +0.020 C 
ATOM      4  C   LIG    1       -0.903   1.874  -1.306  0.00  0.00    +0.290 C 
ATOM      5  N   LIG    1       -2.220   1.233  -1.188  0.00  0.00    -0.570 N 
ATOM      6  C   LIG    1       -2.909   1.269   0.110  0.00  0.00    +0.300 C 
ENDROOT
BRANCH   5   7
ATOM      7  C   LIG    1       -2.802   0.606  -2.281  0.00  0.00    +0.350 A 
ATOM      8  N   LIG    1       -2.126   0.452  -3.399  0.00  0.00    -0.500 NA
ATOM      9  C   LIG    1       -2.679  -0.150  -4.452  0.00  0.00    +0.190 A 
ATOM     10  C   LIG    1       -3.943  -0.623  -4.417  0.00  0.00    +0.170 A 
ATOM     11  N   LIG    1       -4.705  -0.500  -3.293  0.00  0.00    -0.590 N 
ATOM     12  H   LIG    1       -5.612  -0.843  -3.275  0.00  0.00    +0.420 HD
ATOM     13  C   LIG    1       -4.177   0.099  -2.203  0.00  0.00    +0.490 A 
ATOM     14  O   LIG    1       -4.830   0.221  -1.180  0.00  0.00    -0.530 OA
ENDBRANCH   5   7
BRANCH   1  17
ATOM     15  O   LIG    1       -1.332  -0.758   3.353  0.00  0.00    -0.520 OA
ATOM     16  C   LIG    1       -2.232   0.045   3.511  0.00  0.00    +0.570 C 
ATOM     17  N   LIG    1       -2.589   0.865   2.502  0.00  0.00    -0.710 N 
ATOM     18  H   LIG    1       -3.257   1.553   2.649  0.00  0.00    +0.400 HD
BRANCH  16  19
ATOM     19  C   LIG    1       -2.932   0.121   4.802  0.00  0.00    +0.030 A 
ATOM     20  C   LIG    1       -4.003   0.972   4.954  0.00  0.00    +0.070 A 
ATOM     21  C   LIG    1       -4.670   1.046   6.182  0.00  0.00    +0.020 A 
ATOM     22  C   LIG    1       -4.258   0.275   7.226  0.00  0.00    +0.120 A 
ATOM     23  C   LIG    1       -3.160  -0.595   7.065  0.00  0.00    +0.200 A 
ATOM     24  N   LIG    1       -2.562  -1.437   7.896  0.00  0.00    -0.480 NA
ATOM     25  C   LIG    1       -1.556  -2.037   7.260  0.00  0.00    +0.220 A 
ATOM     26  C   LIG    1       -1.507  -1.568   5.990  0.00  0.00    +0.120 A 
ATOM     27  N   LIG    1       -2.517  -0.663   5.856  0.00  0.00    -0.340 N 
ENDBRANCH  16  19
ENDBRANCH   1  17
TORSDOF 3
