REMARK  Name = ZINCvU0000000CVy.0
REMARK                            x       y       z     vdW  Elec       q    Type
REMARK                         _______ _______ _______ _____ _____    ______ ____
ROOT
ATOM      1  N   LIG    1        6.281   5.093  -3.924  0.00  0.00    -0.630 N 
ATOM      2  H   LIG    1        6.024   5.277  -3.007  0.00  0.00    +0.420 HD
ATOM      3  C   LIG    1        5.878   3.954  -4.522  0.00  0.00    +0.600 C 
ATOM      4  O   LIG    1        6.200   3.724  -5.673  0.00  0.00    -0.450 OA
ENDROOT
BRANCH   1  10
ATOM      5  C   LIG    1        9.751   9.023  -7.168  0.00  0.00    +0.150 A 
ATOM      6  C   LIG    1        9.516   7.978  -8.056  0.00  0.00    -0.040 A 
ATOM      7  C   LIG    1        8.762   6.897  -7.677  0.00  0.00    +0.120 A 
ATOM      8  C   LIG    1        8.214   6.826  -6.379  0.00  0.00    +0.070 A 
ATOM      9  N   LIG    1        7.459   5.849  -5.835  0.00  0.00    -0.450 NA
ATOM     10  C   LIG    1        7.061   6.001  -4.620  0.00  0.00    +0.330 A 
ATOM     11  S   LIG    1        7.656   7.521  -3.966  0.00  0.00    +0.080 S 
ATOM     12  C   LIG    1        8.457   7.881  -5.494  0.00  0.00    -0.140 A 
ATOM     13  C   LIG    1        9.224   8.973  -5.892  0.00  0.00    +0.030 A 
BRANCH   5  14
ATOM     14  O   LIG    1       10.500  10.090  -7.554  0.00  0.00    -0.310 OA
BRANCH  14  16
ATOM     15  C   LIG    1       11.824  11.347  -9.137  0.00  0.00    +0.070 C 
ATOM     16  C   LIG    1       11.014  10.074  -8.887  0.00  0.00    +0.190 C 
ENDBRANCH  14  16
ENDBRANCH   5  14
ENDBRANCH   1  10
BRANCH   3  17
ATOM     17  C   LIG    1        5.053   2.993  -3.786  0.00  0.00    -0.280 A 
ATOM     18  C   LIG    1        4.599   1.833  -4.285  0.00  0.00    +0.200 A 
ATOM     19  C   LIG    1        3.825   1.065  -3.405  0.00  0.00    -0.230 A 
ATOM     20  C   LIG    1        3.670   1.656  -2.162  0.00  0.00    +0.040 A 
ATOM     21  N   LIG    1        2.903   0.817  -1.403  0.00  0.00    -0.340 N 
ATOM     22  N   LIG    1        2.587  -0.303  -2.177  0.00  0.00    -0.260 NA
ATOM     23  C   LIG    1        3.114  -0.175  -3.357  0.00  0.00    +0.140 A 
ATOM     24  C   LIG    1        3.000  -1.168  -4.485  0.00  0.00    +0.180 C 
ATOM     25  S   LIG    1        4.517   3.197  -2.126  0.00  0.00    +0.180 S 
BRANCH  21  26
ATOM     26  C   LIG    1        2.490   1.048  -0.016  0.00  0.00    +0.390 C 
BRANCH  26  27
ATOM     27  C   LIG    1        1.175   1.783   0.000  0.00  0.00    -0.130 A 
ATOM     28  C   LIG    1       -0.013   1.076   0.008  0.00  0.00    +0.040 A 
ATOM     29  C   LIG    1       -1.219   1.751   0.017  0.00  0.00    +0.010 A 
ATOM     30  C   LIG    1       -1.238   3.133   0.030  0.00  0.00    +0.020 A 
ATOM     31  C   LIG    1       -0.050   3.840   0.022  0.00  0.00    +0.010 A 
ATOM     32  C   LIG    1        1.156   3.165   0.008  0.00  0.00    +0.020 A 
ENDBRANCH  26  27
ENDBRANCH  21  26
ENDBRANCH   3  17
TORSDOF 6
