REMARK  Name = ZINCpk00000KfKAz.0
REMARK                            x       y       z     vdW  Elec       q    Type
REMARK                         _______ _______ _______ _____ _____    ______ ____
ROOT
ATOM      1  N   LIG    1       -0.861  -4.588   2.170  0.00  0.00    -0.530 NA
ATOM      2  C   LIG    1        0.393  -4.048   2.714  0.00  0.00    +0.200 C 
ATOM      3  C   LIG    1        0.301  -2.521   2.779  0.00  0.00    +0.200 C 
ATOM      4  N   LIG    1        0.043  -1.991   1.433  0.00  0.00    -0.540 NA
ATOM      5  C   LIG    1       -1.211  -2.531   0.889  0.00  0.00    +0.180 C 
ATOM      6  C   LIG    1       -1.119  -4.058   0.824  0.00  0.00    +0.180 C 
ENDROOT
BRANCH   1   8
ATOM      7  C   LIG    1       -0.664  -6.573   3.591  0.00  0.00    +0.080 C 
ATOM      8  C   LIG    1       -0.841  -6.057   2.162  0.00  0.00    +0.270 C 
BRANCH   8   9
ATOM      9  C   LIG    1       -2.139  -6.574   1.598  0.00  0.00    +0.190 A 
ATOM     10  N   LIG    1       -2.280  -7.534   0.715  0.00  0.00    -0.480 NA
ATOM     11  C   LIG    1       -3.605  -7.649   0.515  0.00  0.00    +0.200 A 
ATOM     12  N   LIG    1       -4.191  -6.770   1.271  0.00  0.00    -0.380 NA
ATOM     13  O   LIG    1       -3.367  -6.146   1.906  0.00  0.00    +0.090 OA
BRANCH  11  14
ATOM     14  C   LIG    1       -4.285  -8.619  -0.417  0.00  0.00    +0.060 C 
ATOM     15  C   LIG    1       -5.788  -8.445  -0.643  0.00  0.00    +0.050 C 
ATOM     16  C   LIG    1       -5.271  -9.615   0.197  0.00  0.00    +0.050 C 
ENDBRANCH  11  14
ENDBRANCH   8   9
ENDBRANCH   1   8
BRANCH   4  17
ATOM     17  C   LIG    1        0.023  -0.522   1.442  0.00  0.00    +0.180 C 
BRANCH  17  18
ATOM     18  C   LIG    1        0.002  -0.004   0.002  0.00  0.00    +0.290 C 
BRANCH  18  19
ATOM     19  N   LIG    1       -0.018   1.461   0.010  0.00  0.00    -0.500 N 
ATOM     20  C   LIG    1       -1.207   2.116   0.019  0.00  0.00    +0.290 A 
ATOM     21  C   LIG    1       -1.251   3.469   0.033  0.00  0.00    -0.080 A 
ATOM     22  C   LIG    1       -0.059   4.207   0.026  0.00  0.00    +0.120 A 
ATOM     23  C   LIG    1        1.134   3.548   0.011  0.00  0.00    -0.090 A 
ATOM     24  C   LIG    1        1.144   2.142   0.003  0.00  0.00    +0.510 A 
ATOM     25  O   LIG    1        2.205   1.539  -0.011  0.00  0.00    -0.550 OA
ENDBRANCH  18  19
ENDBRANCH  17  18
ENDBRANCH   4  17
TORSDOF 6
