REMARK  Name = ZINCpk000000n8Dj.0
REMARK                            x       y       z     vdW  Elec       q    Type
REMARK                         _______ _______ _______ _____ _____    ______ ____
ROOT
ATOM      1  C   LIG    1        0.006  -0.017   0.014  0.00  0.00    +0.320 C 
ENDROOT
BRANCH   1   8
ATOM      2  C   LIG    1       -1.615   1.171   1.799  0.00  0.00    +0.650 C 
ATOM      3  N   LIG    1       -2.208   0.234   1.033  0.00  0.00    -0.590 N 
ATOM      4  C   LIG    1       -3.611  -0.140   1.260  0.00  0.00    +0.280 C 
ATOM      5  C   LIG    1       -3.697  -1.659   1.436  0.00  0.00    +0.010 C 
ATOM      6  C   LIG    1       -3.050  -2.346   0.230  0.00  0.00    +0.020 C 
ATOM      7  C   LIG    1       -1.574  -1.951   0.148  0.00  0.00    +0.020 C 
ATOM      8  C   LIG    1       -1.464  -0.435  -0.042  0.00  0.00    +0.230 C 
ATOM      9  O   LIG    1       -0.486   1.540   1.542  0.00  0.00    -0.550 OA
BRANCH   2  10
ATOM     10  O   LIG    1       -2.272   1.698   2.849  0.00  0.00    -0.360 OA
BRANCH  10  12
ATOM     11  C   LIG    1       -1.214   3.888   2.731  0.00  0.00    +0.040 C 
ATOM     12  C   LIG    1       -1.571   2.702   3.629  0.00  0.00    +0.140 C 
ATOM     13  C   LIG    1       -0.291   2.096   4.208  0.00  0.00    +0.040 C 
ATOM     14  C   LIG    1       -2.471   3.180   4.771  0.00  0.00    +0.080 C 
ENDBRANCH  10  12
ENDBRANCH   2  10
ENDBRANCH   1   8
BRANCH   1  15
ATOM     15  N   LIG    1        0.755  -0.724  -1.028  0.00  0.00    -0.750 N 
ATOM     16  H   LIG    1        0.288  -1.288  -1.663  0.00  0.00    +0.390 HD
ATOM     17  C   LIG    1        2.095  -0.593  -1.100  0.00  0.00    +0.710 C 
ATOM     18  N   LIG    1        2.784  -1.244  -2.058  0.00  0.00    -0.740 N 
ATOM     19  H   LIG    1        2.316  -1.806  -2.696  0.00  0.00    +0.400 HD
ATOM     20  O   LIG    1        2.682   0.111  -0.301  0.00  0.00    -0.580 OA
BRANCH  18  21
ATOM     21  C   LIG    1        4.240  -1.102  -2.138  0.00  0.00    +0.320 C 
BRANCH  21  22
ATOM     22  C   LIG    1        4.771  -1.937  -3.304  0.00  0.00    +0.120 C 
ATOM     23  C   LIG    1        6.302  -1.884  -3.317  0.00  0.00    +0.210 C 
ATOM     24  O   LIG    1        6.786  -2.573  -4.474  0.00  0.00    -0.380 OA
ATOM     25  C   LIG    1        6.287  -2.044  -5.706  0.00  0.00    +0.190 C 
ATOM     26  C   LIG    1        4.757  -2.098  -5.693  0.00  0.00    +0.190 C 
ATOM     27  O   LIG    1        4.273  -1.408  -4.537  0.00  0.00    -0.370 OA
ENDBRANCH  21  22
ENDBRANCH  18  21
ENDBRANCH   1  15
TORSDOF 6
