REMARK  Name = ZINCvU0000000DDM.0
REMARK                            x       y       z     vdW  Elec       q    Type
REMARK                         _______ _______ _______ _____ _____    ______ ____
ROOT
ATOM      1  C   LIG    1        0.335   1.542   4.785  0.00  0.00    +0.490 A 
ATOM      2  C   LIG    1        1.079   2.579   5.401  0.00  0.00    -0.230 A 
ATOM      3  C   LIG    1        1.798   2.598   6.669  0.00  0.00    -0.020 A 
ATOM      4  C   LIG    1        2.397   3.755   6.945  0.00  0.00    -0.020 A 
ATOM      5  S   LIG    1        2.133   4.928   5.669  0.00  0.00    +0.180 S 
ATOM      6  C   LIG    1        1.171   3.798   4.729  0.00  0.00    +0.120 A 
ATOM      7  N   LIG    1        0.560   3.935   3.544  0.00  0.00    -0.510 NA
ATOM      8  C   LIG    1       -0.119   2.945   3.014  0.00  0.00    +0.390 A 
ATOM      9  N   LIG    1       -0.239   1.774   3.613  0.00  0.00    -0.580 NA
ENDROOT
BRANCH   3  10
ATOM     10  C   LIG    1        1.856   1.428   7.577  0.00  0.00    -0.040 A 
ATOM     11  C   LIG    1        0.679   0.870   8.076  0.00  0.00    +0.000 A 
ATOM     12  C   LIG    1        0.740  -0.223   8.917  0.00  0.00    +0.020 A 
ATOM     13  C   LIG    1        1.964  -0.758   9.273  0.00  0.00    +0.020 A 
ATOM     14  C   LIG    1        3.135  -0.206   8.786  0.00  0.00    +0.020 A 
ATOM     15  C   LIG    1        3.087   0.884   7.940  0.00  0.00    +0.030 A 
ENDBRANCH   3  10
BRANCH   1  16
ATOM     16  N   LIG    1        0.205   0.310   5.399  0.00  0.00    -0.700 N 
ATOM     17  H   LIG    1        0.694   0.121   6.215  0.00  0.00    +0.420 HD
BRANCH  16  18
ATOM     18  C   LIG    1       -0.670  -0.710   4.817  0.00  0.00    +0.330 C 
BRANCH  18  23
ATOM     19 CL   LIG    1       -0.527  -5.656   8.225  0.00  0.00    -0.060 Cl
ATOM     20  C   LIG    1       -0.568  -4.227   7.240  0.00  0.00    -0.020 A 
ATOM     21  C   LIG    1       -1.502  -3.239   7.494  0.00  0.00    +0.030 A 
ATOM     22  C   LIG    1       -1.535  -2.101   6.710  0.00  0.00    +0.040 A 
ATOM     23  C   LIG    1       -0.634  -1.951   5.672  0.00  0.00    -0.110 A 
ATOM     24  C   LIG    1        0.296  -2.941   5.414  0.00  0.00    +0.050 A 
ATOM     25  C   LIG    1        0.333  -4.076   6.201  0.00  0.00    +0.030 A 
ENDBRANCH  18  23
ENDBRANCH  16  18
ENDBRANCH   1  16
BRANCH   8  26
ATOM     26  C   LIG    1       -0.787   3.152   1.679  0.00  0.00    +0.310 C 
BRANCH  26  27
ATOM     27  N   LIG    1        0.141   2.779   0.603  0.00  0.00    -0.530 NA
ATOM     28  C   LIG    1        0.422   1.336   0.627  0.00  0.00    +0.160 C 
ATOM     29  C   LIG    1        1.435   1.001  -0.470  0.00  0.00    +0.220 C 
ATOM     30  O   LIG    1        0.924   1.433  -1.734  0.00  0.00    -0.380 OA
ATOM     31  C   LIG    1        0.641   2.833  -1.792  0.00  0.00    +0.220 C 
ATOM     32  C   LIG    1       -0.382   3.187  -0.709  0.00  0.00    +0.160 C 
ENDBRANCH  26  27
ENDBRANCH   8  26
TORSDOF 6
