REMARK  Name = ZINCpk00000y6yFi.0
REMARK                            x       y       z     vdW  Elec       q    Type
REMARK                         _______ _______ _______ _____ _____    ______ ____
ROOT
ATOM      1  O   LIG    1       -2.309   1.544   0.021  0.00  0.00    -0.500 OA
ATOM      2  C   LIG    1       -1.249   2.139  -0.012  0.00  0.00    +0.570 C 
ATOM      3  N   LIG    1       -0.098   1.456  -0.174  0.00  0.00    -0.600 N 
ATOM      4  C   LIG    1        1.179   2.167  -0.321  0.00  0.00    +0.260 C 
ATOM      5  C   LIG    1        2.169   1.623   0.715  0.00  0.00    +0.020 C 
ATOM      6  C   LIG    1        2.274   0.103   0.564  0.00  0.00    +0.030 C 
ATOM      7  C   LIG    1        0.905  -0.532   0.822  0.00  0.00    -0.020 C 
ATOM      8  C   LIG    1       -0.098  -0.012  -0.212  0.00  0.00    +0.280 C 
ENDROOT
BRANCH   2   9
ATOM      9  C   LIG    1       -1.223   3.609   0.123  0.00  0.00    -0.120 A 
ATOM     10  C   LIG    1       -0.673   4.397  -0.889  0.00  0.00    +0.070 A 
ATOM     11  C   LIG    1       -0.652   5.770  -0.756  0.00  0.00    +0.020 A 
ATOM     12  C   LIG    1       -1.173   6.371   0.377  0.00  0.00    +0.070 A 
ATOM     13  C   LIG    1       -1.719   5.602   1.387  0.00  0.00    +0.010 A 
ATOM     14  C   LIG    1       -1.754   4.221   1.267  0.00  0.00    +0.180 A 
BRANCH  14  15
ATOM     15  N   LIG    1       -2.313   3.442   2.285  0.00  0.00    -0.330 N 
ATOM     16  C   LIG    1       -2.971   3.891   3.392  0.00  0.00    +0.210 A 
ATOM     17  C   LIG    1       -3.339   2.800   4.096  0.00  0.00    +0.120 A 
ATOM     18  N   LIG    1       -2.917   1.708   3.457  0.00  0.00    -0.230 NA
ATOM     19  N   LIG    1       -2.302   2.042   2.376  0.00  0.00    -0.020 NA
ENDBRANCH  14  15
ENDBRANCH   2   9
BRANCH   7  20
ATOM     20  C   LIG    1        1.019  -2.054   0.704  0.00  0.00    +0.330 C 
BRANCH  20  21
ATOM     21  N   LIG    1       -0.262  -2.668   1.063  0.00  0.00    -0.380 N 
ATOM     22  C   LIG    1       -0.985  -3.519   0.315  0.00  0.00    +0.470 A 
ATOM     23  N   LIG    1       -2.060  -3.839   0.989  0.00  0.00    -0.550 NA
ATOM     24  C   LIG    1       -2.058  -3.215   2.166  0.00  0.00    +0.420 A 
ATOM     25  N   LIG    1       -0.974  -2.490   2.260  0.00  0.00    -0.310 NA
ENDBRANCH  20  21
ENDBRANCH   7  20
TORSDOF 4
