REMARK  Name = ZINCrD00000F5LFk.0
REMARK                            x       y       z     vdW  Elec       q    Type
REMARK                         _______ _______ _______ _____ _____    ______ ____
ROOT
ATOM      1  C   LIG    1        3.591   3.557  -0.009  0.00  0.00    -0.070 C 
ATOM      2  C   LIG    1        3.636   2.207  -0.018  0.00  0.00    +0.150 C 
ENDROOT
BRANCH   2   3
ATOM      3  C   LIG    1        2.387   1.431  -0.011  0.00  0.00    -0.100 A 
ATOM      4  C   LIG    1        2.438   0.043  -0.020  0.00  0.00    +0.090 A 
ATOM      5  C   LIG    1        1.244  -0.691  -0.013  0.00  0.00    -0.090 A 
ATOM      6  C   LIG    1        1.258  -2.098  -0.022  0.00  0.00    +0.080 A 
ATOM      7  C   LIG    1        0.087  -2.788  -0.015  0.00  0.00    -0.060 A 
ATOM      8  C   LIG    1       -1.141  -2.118  -0.000  0.00  0.00    +0.140 A 
ATOM      9  C   LIG    1       -1.191  -0.741   0.008  0.00  0.00    -0.020 A 
ATOM     10  C   LIG    1        0.002  -0.004   0.002  0.00  0.00    +0.000 A 
ATOM     11  C   LIG    1       -0.017   1.404   0.010  0.00  0.00    +0.020 A 
ATOM     12  C   LIG    1        1.147   2.100   0.002  0.00  0.00    +0.040 A 
BRANCH   8  13
ATOM     13  O   LIG    1       -2.296  -2.832   0.006  0.00  0.00    -0.310 OA
ATOM     14  C   LIG    1       -2.178  -4.256  -0.004  0.00  0.00    +0.240 C 
ENDBRANCH   8  13
ENDBRANCH   2   3
BRANCH   1  15
ATOM     15  C   LIG    1        4.832   4.328  -0.016  0.00  0.00    +0.510 C 
ATOM     16  O   LIG    1        5.905   3.755  -0.029  0.00  0.00    -0.510 OA
BRANCH  15  17
ATOM     17  O   LIG    1        4.788   5.677  -0.008  0.00  0.00    -0.340 OA
BRANCH  17  18
ATOM     18  C   LIG    1        6.039   6.367  -0.015  0.00  0.00    +0.370 C 
BRANCH  18  23
ATOM     19  N   LIG    1        5.657   8.654  -1.077  0.00  0.00    -0.290 N 
ATOM     20  N   LIG    1        5.457   9.850  -0.637  0.00  0.00    -0.080 NA
ATOM     21  N   LIG    1        5.472   9.826   0.650  0.00  0.00    -0.070 NA
ATOM     22  N   LIG    1        5.675   8.619   1.054  0.00  0.00    -0.280 NA
ATOM     23  C   LIG    1        5.793   7.854  -0.004  0.00  0.00    +0.170 A 
BRANCH  19  24
ATOM     24  C   LIG    1        5.720   8.243  -2.482  0.00  0.00    +0.340 C 
BRANCH  24  25
ATOM     25  C   LIG    1        4.319   7.865  -2.967  0.00  0.00    +0.020 C 
BRANCH  25  27
ATOM     26  C   LIG    1        2.984   7.058  -4.918  0.00  0.00    +0.030 C 
ATOM     27  C   LIG    1        4.385   7.436  -4.434  0.00  0.00    +0.020 C 
ENDBRANCH  25  27
ENDBRANCH  24  25
ENDBRANCH  19  24
ENDBRANCH  18  23
ENDBRANCH  17  18
ENDBRANCH  15  17
ENDBRANCH   1  15
TORSDOF 9
