REMARK  Name = ZINCvU0000000CCo.0
REMARK                            x       y       z     vdW  Elec       q    Type
REMARK                         _______ _______ _______ _____ _____    ______ ____
ROOT
ATOM      1  N   LIG    1        4.864   4.275   0.081  0.00  0.00    -0.670 N 
ATOM      2  H   LIG    1        5.692   3.771   0.058  0.00  0.00    +0.410 HD
ATOM      3  C   LIG    1        3.682   3.632   0.005  0.00  0.00    +0.570 C 
ATOM      4  O   LIG    1        2.648   4.268  -0.069  0.00  0.00    -0.500 OA
ENDROOT
BRANCH   3   5
ATOM      5  C   LIG    1        3.642   2.154   0.012  0.00  0.00    -0.070 A 
ATOM      6  C   LIG    1        4.806   1.402  -0.016  0.00  0.00    +0.040 A 
ATOM      7  C   LIG    1        4.721  -0.001  -0.009  0.00  0.00    +0.240 A 
ATOM      8  N   LIG    1        3.565  -0.636   0.024  0.00  0.00    -0.440 NA
ATOM      9  C   LIG    1        2.398   0.010   0.052  0.00  0.00    +0.130 A 
ATOM     10  C   LIG    1        1.180  -0.693   0.087  0.00  0.00    +0.050 A 
ATOM     11  C   LIG    1        0.005  -0.007   0.117  0.00  0.00    +0.040 A 
ATOM     12  C   LIG    1       -0.015   1.385   0.112  0.00  0.00    +0.020 A 
ATOM     13  C   LIG    1        1.146   2.100   0.078  0.00  0.00    +0.060 A 
ATOM     14  C   LIG    1        2.372   1.427   0.048  0.00  0.00    -0.060 A 
BRANCH   7  15
ATOM     15  C   LIG    1        5.967  -0.791  -0.039  0.00  0.00    -0.000 A 
ATOM     16  C   LIG    1        6.052  -2.150  -0.030  0.00  0.00    +0.020 A 
ATOM     17  C   LIG    1        7.422  -2.470  -0.071  0.00  0.00    -0.060 A 
ATOM     18  C   LIG    1        8.100  -1.304  -0.092  0.00  0.00    +0.200 A 
ATOM     19  O   LIG    1        7.218  -0.293  -0.073  0.00  0.00    -0.170 OA
ENDBRANCH   7  15
ENDBRANCH   3   5
BRANCH   1  23
ATOM     20  C   LIG    1        4.961   8.430   0.417  0.00  0.00    +0.210 A 
ATOM     21  C   LIG    1        3.936   7.709   1.015  0.00  0.00    -0.010 A 
ATOM     22  C   LIG    1        3.903   6.333   0.903  0.00  0.00    +0.080 A 
ATOM     23  C   LIG    1        4.896   5.671   0.194  0.00  0.00    +0.140 A 
ATOM     24  C   LIG    1        5.925   6.392  -0.399  0.00  0.00    -0.160 A 
ATOM     25  C   LIG    1        5.954   7.767  -0.292  0.00  0.00    +0.000 A 
BRANCH  24  26
ATOM     26  C   LIG    1        7.006   5.672  -1.164  0.00  0.00    +0.510 C 
ATOM     27  F   LIG    1        6.433   4.964  -2.226  0.00  0.00    -0.170 F 
ATOM     28  F   LIG    1        7.666   4.781  -0.311  0.00  0.00    -0.180 F 
ATOM     29  F   LIG    1        7.922   6.604  -1.665  0.00  0.00    -0.170 F 
ENDBRANCH  24  26
BRANCH  20  31
ATOM     30  C   LIG    1        3.946  10.523   1.280  0.00  0.00    +0.280 C 
ATOM     31  N   LIG    1        4.994   9.824   0.531  0.00  0.00    -0.630 N 
ATOM     32  C   LIG    1        6.075  10.585  -0.099  0.00  0.00    +0.280 C 
ENDBRANCH  20  31
ENDBRANCH   1  23
TORSDOF 5
