REMARK  Name = ZINCrH000004rqfa.0
REMARK                            x       y       z     vdW  Elec       q    Type
REMARK                         _______ _______ _______ _____ _____    ______ ____
ROOT
ATOM      1  C   LIG    1       -1.235   3.145   0.010  0.00  0.00    -0.120 A 
ATOM      2  C   LIG    1       -1.217   1.749  -0.005  0.00  0.00    +0.040 A 
ATOM      3  C   LIG    1       -0.012   1.078  -0.026  0.00  0.00    +0.040 A 
ATOM      4  C   LIG    1        1.177   1.785  -0.041  0.00  0.00    -0.090 A 
ATOM      5  C   LIG    1        1.167   3.168  -0.030  0.00  0.00    +0.030 A 
ATOM      6  C   LIG    1       -0.031   3.852  -0.005  0.00  0.00    +0.080 A 
ENDROOT
BRANCH   1   9
ATOM      7  N   LIG    1       -3.682   3.185   0.051  0.00  0.00    -0.660 N 
ATOM      8  H   LIG    1       -3.675   2.217  -0.021  0.00  0.00    +0.410 HD
ATOM      9  C   LIG    1       -2.522   3.871   0.037  0.00  0.00    +0.560 C 
ATOM     10  O   LIG    1       -2.534   5.086   0.045  0.00  0.00    -0.510 OA
BRANCH   7  15
ATOM     11  C   LIG    1       -8.611   5.961   0.534  0.00  0.00    +0.090 C 
ATOM     12  C   LIG    1       -7.304   5.223   0.407  0.00  0.00    -0.080 A 
ATOM     13  C   LIG    1       -6.258   5.788  -0.297  0.00  0.00    +0.020 A 
ATOM     14  C   LIG    1       -5.054   5.117  -0.412  0.00  0.00    +0.040 A 
ATOM     15  C   LIG    1       -4.898   3.869   0.171  0.00  0.00    +0.110 A 
ATOM     16  C   LIG    1       -5.953   3.299   0.882  0.00  0.00    +0.080 A 
ATOM     17  C   LIG    1       -7.154   3.981   0.997  0.00  0.00    +0.000 A 
BRANCH  16  18
ATOM     18  O   LIG    1       -5.805   2.078   1.460  0.00  0.00    -0.500 OA
ATOM     19  H   LIG    1       -5.471   2.110   2.367  0.00  0.00    +0.390 HD
ENDBRANCH  16  18
ENDBRANCH   7  15
ENDBRANCH   1   9
BRANCH   4  20
ATOM     20  C   LIG    1        2.490   1.045  -0.068  0.00  0.00    +0.400 C 
BRANCH  20  21
ATOM     21  N   LIG    1        2.892   0.815  -1.458  0.00  0.00    -0.390 N 
ATOM     22  N   LIG    1        2.575  -0.299  -2.251  0.00  0.00    -0.000 NA
ATOM     23  N   LIG    1        3.095  -0.155  -3.418  0.00  0.00    -0.220 NA
ATOM     24  C   LIG    1        3.776   1.007  -3.488  0.00  0.00    -0.020 A 
ATOM     25  C   LIG    1        4.513   1.624  -4.506  0.00  0.00    +0.110 A 
ATOM     26  C   LIG    1        5.107   2.831  -4.281  0.00  0.00    +0.010 A 
ATOM     27  C   LIG    1        4.991   3.461  -3.049  0.00  0.00    +0.080 A 
ATOM     28  C   LIG    1        4.271   2.876  -2.032  0.00  0.00    +0.000 A 
ATOM     29  C   LIG    1        3.658   1.645  -2.241  0.00  0.00    +0.090 A 
ENDBRANCH  20  21
ENDBRANCH   4  20
TORSDOF 5
