REMARK  Name = ZINCrH000004qrYu.0
REMARK                            x       y       z     vdW  Elec       q    Type
REMARK                         _______ _______ _______ _____ _____    ______ ____
ROOT
ATOM      1  C   LIG    1        1.442   3.508  -0.881  0.00  0.00    +0.560 C 
ATOM      2  N   LIG    1        0.323   4.211  -1.149  0.00  0.00    -0.610 N 
ATOM      3  H   LIG    1       -0.526   3.752  -1.246  0.00  0.00    +0.420 HD
ATOM      4  O   LIG    1        2.506   4.083  -0.760  0.00  0.00    -0.480 OA
ENDROOT
BRANCH   1   8
ATOM      5  C   LIG    1       -1.093  -0.791  -1.151  0.00  0.00    +0.160 C 
ATOM      6  C   LIG    1        0.178  -0.038  -0.855  0.00  0.00    +0.210 A 
ATOM      7  C   LIG    1        0.197   1.339  -1.006  0.00  0.00    -0.010 A 
ATOM      8  C   LIG    1        1.374   2.038  -0.733  0.00  0.00    -0.000 A 
ATOM      9  C   LIG    1        2.495   1.296  -0.312  0.00  0.00    -0.200 A 
ATOM     10  C   LIG    1        3.865   1.647   0.059  0.00  0.00    +0.160 A 
ATOM     11  N   LIG    1        4.476   0.544   0.368  0.00  0.00    -0.270 NA
ATOM     12  O   LIG    1        3.590  -0.548   0.227  0.00  0.00    -0.080 OA
ATOM     13  C   LIG    1        4.458   3.032   0.079  0.00  0.00    +0.220 C 
ATOM     14  C   LIG    1        2.387  -0.100  -0.185  0.00  0.00    +0.300 A 
ATOM     15  N   LIG    1        1.242  -0.704  -0.460  0.00  0.00    -0.460 NA
ENDBRANCH   1   8
BRANCH   2  16
ATOM     16  C   LIG    1        0.387   5.591  -1.288  0.00  0.00    +0.230 A 
ATOM     17  N   LIG    1       -0.625   6.358  -1.550  0.00  0.00    -0.490 NA
ATOM     18  C   LIG    1       -0.385   7.653  -1.644  0.00  0.00    +0.110 A 
ATOM     19  C   LIG    1        0.893   7.994  -1.462  0.00  0.00    -0.130 A 
ATOM     20  S   LIG    1        1.812   6.525  -1.145  0.00  0.00    +0.250 S 
BRANCH  18  21
ATOM     21  C   LIG    1       -1.464   8.662  -1.938  0.00  0.00    +0.270 C 
BRANCH  21  22
ATOM     22  N   LIG    1       -1.664   8.755  -3.391  0.00  0.00    -0.530 NA
ATOM     23  C   LIG    1       -0.474   9.304  -4.052  0.00  0.00    +0.160 C 
ATOM     24  C   LIG    1       -0.662   9.251  -5.570  0.00  0.00    +0.020 C 
ATOM     25  C   LIG    1       -1.902  10.061  -5.955  0.00  0.00    +0.000 C 
ATOM     26  C   LIG    1       -3.119   9.499  -5.215  0.00  0.00    -0.010 C 
ATOM     27  C   LIG    1       -4.353  10.341  -5.548  0.00  0.00    +0.020 C 
ATOM     28  C   LIG    1       -2.860   9.545  -3.708  0.00  0.00    +0.170 C 
ENDBRANCH  21  22
ENDBRANCH  18  21
ENDBRANCH   2  16
TORSDOF 4
