REMARK  Name = ZINCrH000004r8OM.0
REMARK                            x       y       z     vdW  Elec       q    Type
REMARK                         _______ _______ _______ _____ _____    ______ ____
ROOT
ATOM      1  C   LIG    1       -1.433   3.779  -2.635  0.00  0.00    +0.120 A 
ATOM      2  C   LIG    1       -0.968   4.382  -3.797  0.00  0.00    +0.080 A 
ATOM      3  C   LIG    1        0.390   4.492  -4.030  0.00  0.00    +0.050 A 
ATOM      4  C   LIG    1        1.294   4.003  -3.107  0.00  0.00    +0.020 A 
ATOM      5  C   LIG    1        0.836   3.395  -1.936  0.00  0.00    -0.120 A 
ATOM      6 CL   LIG    1        2.999   4.143  -3.404  0.00  0.00    -0.030 Cl
ATOM      7  C   LIG    1       -0.535   3.280  -1.705  0.00  0.00    +0.080 A 
ENDROOT
BRANCH   5   8
ATOM      8  C   LIG    1        1.801   2.870  -0.947  0.00  0.00    +0.560 C 
ATOM      9  N   LIG    1        1.476   1.804  -0.189  0.00  0.00    -0.590 N 
ATOM     10  C   LIG    1        0.212   1.087  -0.407  0.00  0.00    +0.260 C 
ATOM     11  C   LIG    1        0.517  -0.401  -0.606  0.00  0.00    +0.010 C 
ATOM     12  C   LIG    1        1.333  -0.913   0.583  0.00  0.00    +0.030 C 
ATOM     13  C   LIG    1        2.659  -0.155   0.659  0.00  0.00    +0.010 C 
ATOM     14  C   LIG    1        2.379   1.336   0.872  0.00  0.00    +0.270 C 
ATOM     15  O   LIG    1        2.887   3.400  -0.817  0.00  0.00    -0.510 OA
BRANCH  14  16
ATOM     16  C   LIG    1        3.692   2.119   0.813  0.00  0.00    -0.290 C 
BRANCH  16  17
ATOM     17  S   LIG    1        4.834   1.479   2.069  0.00  0.00    +2.400 S 
ATOM     18  O   LIG    1        5.280   0.193   1.662  0.00  0.00    -0.940 OA
ATOM     19  O   LIG    1        4.233   1.632   3.348  0.00  0.00    -0.940 OA
ATOM     20  C   LIG    1        6.222   2.640   1.940  0.00  0.00    -0.260 C 
ENDBRANCH  16  17
ENDBRANCH  14  16
ENDBRANCH   5   8
BRANCH   1  27
ATOM     21  C   LIG    1       -2.913   5.186  -0.345  0.00  0.00    +0.120 C 
ATOM     22  C   LIG    1       -3.502   4.282  -1.397  0.00  0.00    +0.020 A 
ATOM     23  C   LIG    1       -4.801   3.939  -1.508  0.00  0.00    -0.050 A 
ATOM     24  C   LIG    1       -4.919   3.078  -2.618  0.00  0.00    -0.050 A 
ATOM     25  C   LIG    1       -3.688   2.931  -3.148  0.00  0.00    +0.020 A 
ATOM     26  C   LIG    1       -3.338   2.096  -4.353  0.00  0.00    +0.120 C 
ATOM     27  N   LIG    1       -2.812   3.671  -2.405  0.00  0.00    -0.410 N 
ENDBRANCH   1  27
TORSDOF 4
