REMARK  Name = ZINCkj00000dE6ui.0
REMARK                            x       y       z     vdW  Elec       q    Type
REMARK                         _______ _______ _______ _____ _____    ______ ____
ROOT
ATOM      1  N   LIG    1       -2.710   6.364   0.048  0.00  0.00    -0.610 N 
ATOM      2  H   LIG    1       -3.676   6.270   0.052  0.00  0.00    +0.420 HD
ATOM      3  C   LIG    1       -2.153   7.592   0.051  0.00  0.00    +0.500 C 
ATOM      4  O   LIG    1       -0.946   7.710   0.046  0.00  0.00    -0.520 OA
ENDROOT
BRANCH   1   7
ATOM      5  C   LIG    1       -1.207   3.090   0.025  0.00  0.00    -0.030 A 
ATOM      6  C   LIG    1       -2.331   3.889   0.029  0.00  0.00    +0.050 A 
ATOM      7  C   LIG    1       -1.891   5.220   0.039  0.00  0.00    +0.020 A 
ATOM      8  C   LIG    1       -0.532   5.207   0.032  0.00  0.00    +0.230 A 
ATOM      9  N   LIG    1       -0.107   3.917   0.023  0.00  0.00    -0.530 N 
ATOM     10  H   LIG    1        0.818   3.627   0.017  0.00  0.00    +0.430 HD
BRANCH   5  14
ATOM     11  N   LIG    1       -0.011   0.966   0.007  0.00  0.00    -0.850 N 
ATOM     12  H   LIG    1        0.822   1.462   0.002  0.00  0.00    +0.400 HD
ATOM     13  H   LIG    1        0.002  -0.004   0.002  0.00  0.00    +0.410 HD
ATOM     14  C   LIG    1       -1.187   1.624   0.017  0.00  0.00    +0.590 C 
ATOM     15  O   LIG    1       -2.233   1.001   0.018  0.00  0.00    -0.520 OA
ENDBRANCH   5  14
ENDBRANCH   1   7
BRANCH   3  16
ATOM     16  C   LIG    1       -3.030   8.817   0.061  0.00  0.00    +0.180 C 
BRANCH  16  17
ATOM     17  N   LIG    1       -2.255   9.970   0.537  0.00  0.00    -0.620 N 
ATOM     18  H   LIG    1       -1.469  10.124  -0.077  0.00  0.00    +0.440 HD
ATOM     19  H   LIG    1       -1.921   9.789   1.471  0.00  0.00    +0.440 HD
ATOM     20  H   LIG    1       -2.842  10.791   0.543  0.00  0.00    +0.440 HD
ENDBRANCH  16  17
BRANCH  16  21
ATOM     21  C   LIG    1       -3.538   9.093  -1.356  0.00  0.00    +0.080 C 
BRANCH  21  22
ATOM     22  C   LIG    1       -4.526  10.260  -1.326  0.00  0.00    -0.030 C 
ATOM     23  C   LIG    1       -5.765   9.859  -0.523  0.00  0.00    +0.010 C 
ATOM     24  C   LIG    1       -6.753  11.027  -0.493  0.00  0.00    +0.010 C 
ATOM     25  C   LIG    1       -7.165  11.383  -1.923  0.00  0.00    +0.010 C 
ATOM     26  C   LIG    1       -5.926  11.785  -2.725  0.00  0.00    +0.010 C 
ATOM     27  C   LIG    1       -4.937  10.617  -2.755  0.00  0.00    +0.020 C 
ENDBRANCH  21  22
ENDBRANCH  16  21
ENDBRANCH   3  16
TORSDOF 6
