REMARK  Name = ZINCvU0000000Ejh.0
REMARK                            x       y       z     vdW  Elec       q    Type
REMARK                         _______ _______ _______ _____ _____    ______ ____
ROOT
ATOM      1  C   LIG    1        5.135  -0.173  -2.908  0.00  0.00    +0.530 C 
ATOM      2  N   LIG    1        6.305  -0.834  -3.017  0.00  0.00    -0.720 N 
ATOM      3  H   LIG    1        6.785  -1.105  -2.219  0.00  0.00    +0.400 HD
ATOM      4  O   LIG    1        4.534   0.166  -3.905  0.00  0.00    -0.510 OA
ENDROOT
BRANCH   1   5
ATOM      5  C   LIG    1        4.574   0.144  -1.545  0.00  0.00    +0.080 C 
BRANCH   5   6
ATOM      6  S   LIG    1        3.002   1.032  -1.731  0.00  0.00    -0.160 S 
BRANCH   6   7
ATOM      7  C   LIG    1        2.492   1.321  -0.014  0.00  0.00    +0.130 C 
BRANCH   7  13
ATOM      8  C   LIG    1       -0.016   1.352   0.009  0.00  0.00    +0.180 A 
ATOM      9  C   LIG    1       -1.231   2.029   0.019  0.00  0.00    -0.090 A 
ATOM     10  C   LIG    1       -1.252   3.405   0.032  0.00  0.00    +0.120 A 
ATOM     11  C   LIG    1       -0.048   4.119   0.024  0.00  0.00    -0.210 A 
ATOM     12  C   LIG    1        1.170   3.428   0.008  0.00  0.00    +0.140 A 
ATOM     13  C   LIG    1        1.180   2.062   0.002  0.00  0.00    -0.120 A 
BRANCH  11  14
ATOM     14  C   LIG    1       -0.061   5.587   0.032  0.00  0.00    +0.400 C 
ATOM     15  O   LIG    1        0.984   6.204   0.025  0.00  0.00    -0.460 OA
ATOM     16  C   LIG    1       -1.373   6.329   0.048  0.00  0.00    +0.080 C 
ENDBRANCH  11  14
BRANCH   8  17
ATOM     17  O   LIG    1        0.002  -0.004   0.002  0.00  0.00    -0.300 OA
BRANCH  17  19
ATOM     18  C   LIG    1       -1.041  -2.184   0.000  0.00  0.00    +0.070 C 
ATOM     19  C   LIG    1       -1.262  -0.670   0.011  0.00  0.00    +0.190 C 
ENDBRANCH  17  19
ENDBRANCH   8  17
ENDBRANCH   7  13
ENDBRANCH   6   7
ENDBRANCH   5   6
ENDBRANCH   1   5
BRANCH   2  20
ATOM     20  C   LIG    1        6.850  -1.142  -4.341  0.00  0.00    +0.340 C 
BRANCH  20  21
ATOM     21  C   LIG    1        7.756  -2.343  -4.244  0.00  0.00    -0.090 A 
ATOM     22  C   LIG    1        8.606  -2.482  -3.163  0.00  0.00    +0.010 A 
ATOM     23  C   LIG    1        9.433  -3.586  -3.072  0.00  0.00    +0.010 A 
ATOM     24  C   LIG    1        9.417  -4.546  -4.066  0.00  0.00    +0.000 A 
ATOM     25  C   LIG    1        8.570  -4.404  -5.150  0.00  0.00    +0.020 A 
ATOM     26  C   LIG    1        7.739  -3.303  -5.239  0.00  0.00    +0.030 A 
ENDBRANCH  20  21
BRANCH  20  27
ATOM     27  C   LIG    1        7.636   0.040  -4.849  0.00  0.00    -0.090 A 
ATOM     28  C   LIG    1        8.435   0.762  -3.982  0.00  0.00    +0.020 A 
ATOM     29  C   LIG    1        9.160   1.843  -4.448  0.00  0.00    +0.000 A 
ATOM     30  C   LIG    1        9.077   2.208  -5.779  0.00  0.00    +0.000 A 
ATOM     31  C   LIG    1        8.274   1.489  -6.644  0.00  0.00    +0.000 A 
ATOM     32  C   LIG    1        7.553   0.405  -6.179  0.00  0.00    +0.020 A 
ENDBRANCH  20  27
ENDBRANCH   2  20
TORSDOF 10
