REMARK  Name = ZINCrH000004sWYA.0
REMARK                            x       y       z     vdW  Elec       q    Type
REMARK                         _______ _______ _______ _____ _____    ______ ____
ROOT
ATOM      1  N   LIG    1       -0.011   0.966   0.007  0.00  0.00    -0.670 N 
ATOM      2  H   LIG    1        0.119   0.012   0.125  0.00  0.00    +0.420 HD
ATOM      3  C   LIG    1        1.052   1.773  -0.176  0.00  0.00    +0.520 C 
ATOM      4  O   LIG    1        0.886   2.949  -0.420  0.00  0.00    -0.490 OA
ENDROOT
BRANCH   1  11
ATOM      5  C   LIG    1       -6.372   2.976  -0.192  0.00  0.00    +0.360 C 
ATOM      6  N   LIG    1       -5.008   3.346   0.195  0.00  0.00    -0.550 N 
ATOM      7  C   LIG    1       -4.627   4.510   0.757  0.00  0.00    +0.630 A 
ATOM      8  O   LIG    1       -3.302   4.492   0.970  0.00  0.00    -0.230 OA
ATOM      9  C   LIG    1       -2.798   3.307   0.545  0.00  0.00    +0.060 A 
ATOM     10  C   LIG    1       -1.520   2.774   0.536  0.00  0.00    +0.070 A 
ATOM     11  C   LIG    1       -1.304   1.504   0.022  0.00  0.00    +0.160 A 
ATOM     12  C   LIG    1       -2.369   0.761  -0.474  0.00  0.00    +0.030 A 
ATOM     13  C   LIG    1       -3.646   1.287  -0.461  0.00  0.00    +0.060 A 
ATOM     14  O   LIG    1       -5.369   5.434   1.031  0.00  0.00    -0.480 OA
ATOM     15  C   LIG    1       -3.865   2.558   0.047  0.00  0.00    +0.050 A 
ENDBRANCH   1  11
BRANCH   3  16
ATOM     16  C   LIG    1        2.449   1.214  -0.077  0.00  0.00    +0.220 C 
BRANCH  16  17
ATOM     17  C   LIG    1        2.671   0.220  -1.188  0.00  0.00    -0.130 A 
ATOM     18  C   LIG    1        3.071   0.657  -2.437  0.00  0.00    +0.050 A 
ATOM     19  C   LIG    1        3.280  -0.256  -3.454  0.00  0.00    +0.010 A 
ATOM     20  C   LIG    1        3.079  -1.604  -3.225  0.00  0.00    +0.010 A 
ATOM     21  C   LIG    1        2.674  -2.040  -1.977  0.00  0.00    +0.010 A 
ATOM     22  C   LIG    1        2.470  -1.128  -0.959  0.00  0.00    +0.010 A 
ENDBRANCH  16  17
BRANCH  16  23
ATOM     23  O   LIG    1        3.397   2.277  -0.193  0.00  0.00    -0.340 OA
BRANCH  23  24
ATOM     24  C   LIG    1        4.615   2.049   0.519  0.00  0.00    +0.150 C 
ATOM     25  C   LIG    1        4.524   2.660   1.932  0.00  0.00    +0.000 C 
ATOM     26  C   LIG    1        5.945   3.216   2.198  0.00  0.00    +0.020 C 
ATOM     27  C   LIG    1        6.358   3.775   0.814  0.00  0.00    +0.020 C 
ATOM     28  C   LIG    1        5.781   2.758  -0.192  0.00  0.00    +0.030 C 
ENDBRANCH  23  24
ENDBRANCH  16  23
ENDBRANCH   3  16
TORSDOF 5
