REMARK  Name = ZINCpe000000XTkc.0
REMARK                            x       y       z     vdW  Elec       q    Type
REMARK                         _______ _______ _______ _____ _____    ______ ____
ROOT
ATOM      1  C   LIG    1        1.156   3.582   0.016  0.00  0.00    +0.210 C 
ENDROOT
BRANCH   1   7
ATOM      2  C   LIG    1        3.948  -0.518   0.677  0.00  0.00    +0.090 C 
ATOM      3  C   LIG    1        2.614   0.119   0.387  0.00  0.00    -0.080 A 
ATOM      4  C   LIG    1        1.502  -0.673   0.171  0.00  0.00    +0.010 A 
ATOM      5  C   LIG    1        0.277  -0.088  -0.095  0.00  0.00    +0.010 A 
ATOM      6  C   LIG    1        0.166   1.289  -0.145  0.00  0.00    +0.010 A 
ATOM      7  C   LIG    1        1.278   2.081   0.071  0.00  0.00    -0.110 A 
ATOM      8  C   LIG    1        2.502   1.496   0.336  0.00  0.00    +0.010 A 
ENDBRANCH   1   7
BRANCH   1   9
ATOM      9  N   LIG    1        0.025   4.012   0.849  0.00  0.00    -0.520 NA
ATOM     10  C   LIG    1       -0.128   3.139   2.022  0.00  0.00    +0.160 C 
ATOM     11  C   LIG    1       -1.277   3.657   2.891  0.00  0.00    +0.220 C 
ATOM     12  O   LIG    1       -2.470   3.722   2.105  0.00  0.00    -0.380 OA
ATOM     13  C   LIG    1       -2.357   4.565   0.955  0.00  0.00    +0.220 C 
ATOM     14  C   LIG    1       -1.219   4.056   0.066  0.00  0.00    +0.140 C 
ENDBRANCH   1   9
BRANCH   1  15
ATOM     15  C   LIG    1        0.921   4.023  -1.430  0.00  0.00    +0.290 C 
BRANCH  15  16
ATOM     16  N   LIG    1        0.820   5.483  -1.485  0.00  0.00    -0.710 N 
ATOM     17  H   LIG    1        0.827   6.001  -0.665  0.00  0.00    +0.420 HD
ATOM     18  C   LIG    1        0.715   6.107  -2.675  0.00  0.00    +0.590 C 
ATOM     19  O   LIG    1        0.706   5.457  -3.703  0.00  0.00    -0.520 OA
BRANCH  18  20
ATOM     20  C   LIG    1        0.613   7.581  -2.731  0.00  0.00    +0.020 A 
ATOM     21  N   LIG    1        0.618   8.280  -1.619  0.00  0.00    -0.180 NA
ATOM     22  N   LIG    1        0.537   9.562  -1.615  0.00  0.00    -0.430 N 
ATOM     23  H   LIG    1        0.549  10.032  -0.767  0.00  0.00    +0.450 HD
ATOM     24  C   LIG    1        0.429  10.270  -2.755  0.00  0.00    +0.480 A 
ATOM     25  C   LIG    1        0.410   9.594  -3.995  0.00  0.00    -0.010 A 
ATOM     26  O   LIG    1        0.349  11.486  -2.717  0.00  0.00    -0.520 OA
ATOM     27  C   LIG    1        0.503   8.234  -3.983  0.00  0.00    +0.140 A 
ENDBRANCH  18  20
ENDBRANCH  15  16
ENDBRANCH   1  15
TORSDOF 5
