REMARK  Name = ZINCqH0000008ssY.0
REMARK                            x       y       z     vdW  Elec       q    Type
REMARK                         _______ _______ _______ _____ _____    ______ ____
ROOT
ATOM      1  N   LIG    1       -0.920  -0.813  -0.084  0.00  0.00    -0.730 N 
ATOM      2  H   LIG    1       -1.776  -0.372  -0.205  0.00  0.00    +0.410 HD
ENDROOT
BRANCH   1   3
ATOM      3  C   LIG    1        0.259  -0.061  -0.067  0.00  0.00    +0.210 A 
ATOM      4  C   LIG    1        0.205   1.318  -0.223  0.00  0.00    -0.040 A 
ATOM      5  C   LIG    1        1.369   2.061  -0.206  0.00  0.00    +0.040 A 
ATOM      6  C   LIG    1        2.593   1.429  -0.032  0.00  0.00    +0.090 A 
ATOM      7  C   LIG    1        2.647   0.050   0.124  0.00  0.00    +0.060 A 
ATOM      8  C   LIG    1        1.483  -0.693   0.107  0.00  0.00    -0.060 A 
BRANCH   6   9
ATOM      9  N   LIG    1        3.775   2.183  -0.014  0.00  0.00    -0.670 N 
ATOM     10  H   LIG    1        3.772   3.080   0.354  0.00  0.00    +0.410 HD
ATOM     11  C   LIG    1        4.915   1.661  -0.509  0.00  0.00    +0.540 C 
ATOM     12  O   LIG    1        4.899   0.576  -1.052  0.00  0.00    -0.520 OA
BRANCH  11  13
ATOM     13  C   LIG    1        6.208   2.424  -0.387  0.00  0.00    -0.070 C 
ATOM     14  C   LIG    1        6.826   2.978  -1.672  0.00  0.00    +0.060 C 
ATOM     15  C   LIG    1        7.467   1.779  -0.970  0.00  0.00    +0.070 C 
ENDBRANCH  11  13
ENDBRANCH   6   9
ENDBRANCH   1   3
BRANCH   1  17
ATOM     16  C   LIG    1       -0.598  -2.925  -1.275  0.00  0.00    +0.050 C 
ATOM     17  C   LIG    1       -0.864  -2.268   0.081  0.00  0.00    +0.250 C 
BRANCH  17  18
ATOM     18  C   LIG    1       -2.177  -2.762   0.630  0.00  0.00    +0.520 C 
ATOM     19  N   LIG    1       -2.357  -4.077   0.865  0.00  0.00    -0.670 N 
ATOM     20  H   LIG    1       -1.620  -4.697   0.744  0.00  0.00    +0.420 HD
ATOM     21  O   LIG    1       -3.072  -1.977   0.861  0.00  0.00    -0.510 OA
BRANCH  19  22
ATOM     22  C   LIG    1       -3.607  -4.549   1.283  0.00  0.00    +0.160 A 
ATOM     23  C   LIG    1       -4.391  -3.780   2.132  0.00  0.00    +0.060 A 
ATOM     24  C   LIG    1       -5.627  -4.245   2.540  0.00  0.00    +0.050 A 
ATOM     25  C   LIG    1       -6.079  -5.481   2.112  0.00  0.00    +0.060 A 
ATOM     26  C   LIG    1       -5.295  -6.254   1.269  0.00  0.00    +0.090 A 
ATOM     27  F   LIG    1       -5.738  -7.460   0.852  0.00  0.00    -0.120 F 
ATOM     28  F   LIG    1       -7.286  -5.935   2.517  0.00  0.00    -0.130 F 
ATOM     29  C   LIG    1       -4.060  -5.790   0.854  0.00  0.00    +0.000 A 
ENDBRANCH  19  22
ENDBRANCH  17  18
ENDBRANCH   1  17
TORSDOF 6
