REMARK  Name = ZINCrD000000D0Xt.0
REMARK                            x       y       z     vdW  Elec       q    Type
REMARK                         _______ _______ _______ _____ _____    ______ ____
ROOT
ATOM      1  O   LIG    1        2.555   7.609   1.645  0.00  0.00    -0.950 OA
ATOM      2  S   LIG    1        2.737   6.264   1.224  0.00  0.00    +2.610 S 
ATOM      3  O   LIG    1        3.650   5.404   1.892  0.00  0.00    -0.950 OA
ENDROOT
BRANCH   2   4
ATOM      4  N   LIG    1        1.259   5.558   1.464  0.00  0.00    -0.970 NA
BRANCH   4   5
ATOM      5  C   LIG    1        0.044   6.376   1.444  0.00  0.00    +0.210 C 
ATOM      6  C   LIG    1       -1.285   5.675   1.736  0.00  0.00    +0.040 C 
ATOM      7  C   LIG    1       -0.955   6.130   0.312  0.00  0.00    +0.000 C 
ENDBRANCH   4   5
BRANCH   4   8
ATOM      8  C   LIG    1        1.166   4.114   1.697  0.00  0.00    +0.300 C 
BRANCH   8   9
ATOM      9  C   LIG    1        0.892   3.400   0.372  0.00  0.00    +0.060 C 
BRANCH   9  10
ATOM     10  C   LIG    1        0.927   1.909   0.588  0.00  0.00    -0.060 A 
ATOM     11  C   LIG    1        2.116   1.218   0.449  0.00  0.00    +0.000 A 
ATOM     12  C   LIG    1        2.150  -0.149   0.646  0.00  0.00    +0.050 A 
ATOM     13  C   LIG    1        0.994  -0.828   0.984  0.00  0.00    -0.020 A 
ATOM     14  C   LIG    1       -0.198  -0.137   1.124  0.00  0.00    +0.100 A 
ATOM     15  F   LIG    1       -1.328  -0.799   1.455  0.00  0.00    -0.140 F 
ATOM     16  C   LIG    1       -0.230   1.233   0.926  0.00  0.00    -0.010 A 
ENDBRANCH   9  10
ENDBRANCH   8   9
ENDBRANCH   4   8
ENDBRANCH   2   4
BRANCH   2  17
ATOM     17  C   LIG    1        2.988   6.188  -0.572  0.00  0.00    -0.360 C 
BRANCH  17  18
ATOM     18  C   LIG    1        4.337   6.818  -0.925  0.00  0.00    +0.110 C 
BRANCH  18  19
ATOM     19  C   LIG    1        4.546   6.755  -2.416  0.00  0.00    -0.110 A 
ATOM     20  C   LIG    1        5.176   5.662  -2.982  0.00  0.00    +0.050 A 
ATOM     21  C   LIG    1        5.368   5.599  -4.347  0.00  0.00    +0.000 A 
ATOM     22  C   LIG    1        4.939   6.641  -5.165  0.00  0.00    +0.110 A 
ATOM     23  O   LIG    1        5.041   6.790  -6.514  0.00  0.00    -0.300 OA
ATOM     24  C   LIG    1        4.098   7.782  -6.954  0.00  0.00    +0.240 C 
ATOM     25  C   LIG    1        3.943   8.685  -5.707  0.00  0.00    +0.070 C 
ATOM     26  C   LIG    1        4.307   7.733  -4.584  0.00  0.00    -0.170 A 
ATOM     27  C   LIG    1        4.112   7.792  -3.223  0.00  0.00    +0.070 A 
ENDBRANCH  18  19
ENDBRANCH  17  18
ENDBRANCH   2  17
TORSDOF 8
