REMARK  Name = ZINCnE000001H7Oe.0
REMARK                            x       y       z     vdW  Elec       q    Type
REMARK                         _______ _______ _______ _____ _____    ______ ____
ROOT
ATOM      1  C   LIG    1       -1.684   3.229   1.075  0.00  0.00    -0.020 A 
ATOM      2  C   LIG    1       -2.935   3.787   1.243  0.00  0.00    +0.080 A 
ATOM      3  C   LIG    1       -3.918   3.589   0.290  0.00  0.00    -0.010 A 
ATOM      4  C   LIG    1       -3.653   2.831  -0.836  0.00  0.00    -0.030 A 
ATOM      5  C   LIG    1       -2.404   2.272  -1.017  0.00  0.00    +0.000 A 
ATOM      6  C   LIG    1       -1.412   2.464  -0.058  0.00  0.00    -0.090 A 
ENDROOT
BRANCH   6   7
ATOM      7  C   LIG    1       -0.069   1.861  -0.244  0.00  0.00    +0.040 A 
ATOM      8  C   LIG    1        0.668   2.138  -1.394  0.00  0.00    +0.000 A 
ATOM      9  C   LIG    1        1.914   1.569  -1.565  0.00  0.00    +0.120 A 
ATOM     10  C   LIG    1        2.432   0.728  -0.598  0.00  0.00    -0.670 A 
ATOM     11  C   LIG    1        1.705   0.450   0.546  0.00  0.00    +0.120 A 
ATOM     12  C   LIG    1        0.458   1.013   0.727  0.00  0.00    +0.000 A 
BRANCH  10  13
ATOM     13  S   LIG    1        4.023   0.006  -0.823  0.00  0.00    +2.500 S 
ATOM     14  O   LIG    1        4.486  -0.240   0.498  0.00  0.00    -0.940 OA
ATOM     15  O   LIG    1        4.702   0.914  -1.679  0.00  0.00    -0.940 OA
ATOM     16  C   LIG    1        3.694  -1.556  -1.683  0.00  0.00    -0.260 C 
ENDBRANCH  10  13
ENDBRANCH   6   7
BRANCH   1  17
ATOM     17  C   LIG    1       -0.615   3.446   2.114  0.00  0.00    +0.050 C 
BRANCH  17  18
ATOM     18  C   LIG    1        0.392   4.478   1.602  0.00  0.00    -0.090 C 
BRANCH  18  19
ATOM     19  C   LIG    1       -0.280   5.823   1.492  0.00  0.00    +0.490 C 
ATOM     20  O   LIG    1       -1.487   5.891   1.339  0.00  0.00    -0.690 OA
ATOM     21  O   LIG    1        0.385   6.843   1.557  0.00  0.00    -0.700 OA
ENDBRANCH  18  19
BRANCH  18  23
ATOM     22  C   LIG    1        2.333   3.249   2.584  0.00  0.00    +0.000 C 
ATOM     23  C   LIG    1        1.566   4.573   2.578  0.00  0.00    +0.020 C 
ENDBRANCH  18  23
ENDBRANCH  17  18
ENDBRANCH   1  17
TORSDOF 6
