REMARK  Name = ZINCrg000000nPDb.0
REMARK                            x       y       z     vdW  Elec       q    Type
REMARK                         _______ _______ _______ _____ _____    ______ ____
ROOT
ATOM      1  C   LIG    1       -0.846   2.473   1.418  0.00  0.00    -0.620 A 
ATOM      2  C   LIG    1       -1.393   1.815   2.502  0.00  0.00    +0.070 A 
ATOM      3  C   LIG    1       -1.975   2.542   3.533  0.00  0.00    +0.210 A 
ATOM      4  C   LIG    1       -2.014   3.928   3.466  0.00  0.00    +0.000 A 
ATOM      5  C   LIG    1       -1.470   4.581   2.377  0.00  0.00    +0.070 A 
ATOM      6  C   LIG    1       -0.887   3.855   1.354  0.00  0.00    -0.010 A 
ATOM      7 CL   LIG    1       -0.205   4.679  -0.013  0.00  0.00    -0.050 Cl
ENDROOT
BRANCH   1   8
ATOM      8  S   LIG    1       -0.103   1.553   0.113  0.00  0.00    +2.680 S 
ATOM      9  O   LIG    1        1.149   2.171  -0.152  0.00  0.00    -0.940 OA
ATOM     10  O   LIG    1       -0.234   0.182   0.463  0.00  0.00    -0.950 OA
BRANCH   8  11
ATOM     11  N   LIG    1       -1.033   1.780  -1.239  0.00  0.00    -0.990 NA
BRANCH  11  13
ATOM     12  C   LIG    1       -0.120   2.107  -3.484  0.00  0.00    +0.020 C 
ATOM     13  C   LIG    1       -0.654   2.795  -2.226  0.00  0.00    +0.290 C 
ENDBRANCH  11  13
BRANCH  11  14
ATOM     14  C   LIG    1       -2.234   0.968  -1.447  0.00  0.00    +0.290 C 
ATOM     15  C   LIG    1       -3.457   1.723  -0.924  0.00  0.00    +0.000 C 
ENDBRANCH  11  14
ENDBRANCH   8  11
ENDBRANCH   1   8
BRANCH   3  16
ATOM     16  N   LIG    1       -2.525   1.878   4.633  0.00  0.00    -0.730 N 
ATOM     17  H   LIG    1       -2.497   0.910   4.679  0.00  0.00    +0.420 HD
BRANCH  16  18
ATOM     18  C   LIG    1       -3.143   2.646   5.717  0.00  0.00    +0.300 C 
BRANCH  18  19
ATOM     19  C   LIG    1       -3.655   1.700   6.774  0.00  0.00    +0.510 C 
ATOM     20  N   LIG    1       -4.266   2.185   7.873  0.00  0.00    -0.710 N 
ATOM     21  H   LIG    1       -4.377   3.142   7.984  0.00  0.00    +0.410 HD
ATOM     22  O   LIG    1       -3.516   0.503   6.635  0.00  0.00    -0.520 OA
BRANCH  20  23
ATOM     23  C   LIG    1       -4.763   1.266   8.900  0.00  0.00    +0.270 C 
ATOM     24  C   LIG    1       -4.848   1.988  10.256  0.00  0.00    +0.070 C 
ATOM     25  C   LIG    1       -5.681   1.124  11.224  0.00  0.00    -0.300 C 
ATOM     26  S   LIG    1       -6.819   0.172  10.155  0.00  0.00    +2.400 S 
ATOM     27  O   LIG    1       -8.150   0.625  10.363  0.00  0.00    -0.930 OA
ATOM     28  O   LIG    1       -6.519  -1.212  10.261  0.00  0.00    -0.930 OA
ATOM     29  C   LIG    1       -6.202   0.806   8.549  0.00  0.00    -0.330 C 
ENDBRANCH  20  23
ENDBRANCH  18  19
ENDBRANCH  16  18
ENDBRANCH   3  16
TORSDOF 8
