REMARK  Name = ZINCrH00000tj0Fb.1
REMARK                            x       y       z     vdW  Elec       q    Type
REMARK                         _______ _______ _______ _____ _____    ______ ____
ROOT
ATOM      1  C   LIG    1        1.141   2.072   0.002  0.00  0.00    +0.610 C 
ATOM      2  N   LIG    1       -0.017   1.382   0.010  0.00  0.00    -0.610 N 
ATOM      3  H   LIG    1       -0.863   1.855   0.016  0.00  0.00    +0.420 HD
ATOM      4  O   LIG    1        2.203   1.478  -0.011  0.00  0.00    -0.480 OA
ENDROOT
BRANCH   1   7
ATOM      5  C   LIG    1        3.631   3.841  -0.011  0.00  0.00    +0.170 C 
ATOM      6  C   LIG    1        2.216   4.359   0.004  0.00  0.00    +0.190 A 
ATOM      7  C   LIG    1        1.121   3.537   0.010  0.00  0.00    -0.330 A 
ATOM      8  S   LIG    1       -0.316   4.556   0.022  0.00  0.00    +0.200 S 
ATOM      9  C   LIG    1        0.663   5.957   0.028  0.00  0.00    +0.120 A 
ATOM     10  N   LIG    1        1.925   5.632   0.014  0.00  0.00    -0.470 NA
BRANCH   9  11
ATOM     11  C   LIG    1        0.150   7.343   0.039  0.00  0.00    -0.030 A 
ATOM     12  C   LIG    1       -1.225   7.581   0.054  0.00  0.00    +0.040 A 
ATOM     13  C   LIG    1       -1.698   8.877   0.065  0.00  0.00    +0.050 A 
ATOM     14  C   LIG    1       -0.813   9.940   0.062  0.00  0.00    +0.060 A 
ATOM     15  C   LIG    1        0.553   9.711   0.048  0.00  0.00    -0.040 A 
ATOM     16 CL   LIG    1        1.656  11.052   0.044  0.00  0.00    -0.050 Cl
ATOM     17  C   LIG    1        1.039   8.419   0.042  0.00  0.00    +0.100 A 
ENDBRANCH   9  11
ENDBRANCH   1   7
BRANCH   2  18
ATOM     18  C   LIG    1        0.002  -0.004   0.002  0.00  0.00    +0.290 A 
ATOM     19  N   LIG    1       -1.032  -0.818   0.013  0.00  0.00    -0.550 NA
ATOM     20  C   LIG    1       -0.771  -2.108  -0.001  0.00  0.00    +0.470 A 
ATOM     21  N   LIG    1        0.483  -2.474  -0.015  0.00  0.00    -0.540 NA
ATOM     22  S   LIG    1        1.384  -1.033  -0.016  0.00  0.00    +0.350 S 
BRANCH  20  23
ATOM     23  N   LIG    1       -1.797  -3.052   0.005  0.00  0.00    -0.440 N 
ATOM     24  C   LIG    1       -2.688  -2.855   1.157  0.00  0.00    +0.190 C 
ATOM     25  C   LIG    1       -3.832  -3.871   1.092  0.00  0.00    +0.240 C 
ATOM     26  O   LIG    1       -3.286  -5.192   1.049  0.00  0.00    -0.380 OA
ATOM     27  C   LIG    1       -2.414  -5.420  -0.061  0.00  0.00    +0.230 C 
ATOM     28  C   LIG    1       -1.256  -4.419  -0.007  0.00  0.00    +0.190 C 
ENDBRANCH  20  23
ENDBRANCH   2  18
TORSDOF 4
