REMARK  Name = ZINCpk00000e9Nw3.0
REMARK                            x       y       z     vdW  Elec       q    Type
REMARK                         _______ _______ _______ _____ _____    ______ ____
ROOT
ATOM      1  C   LIG    1        4.839   6.108  -2.084  0.00  0.00    +0.300 C 
ATOM      2  N   LIG    1        3.744   6.781  -1.380  0.00  0.00    -0.610 N 
ATOM      3  C   LIG    1        3.030   7.738  -2.004  0.00  0.00    +0.520 C 
ATOM      4  O   LIG    1        2.124   8.296  -1.422  0.00  0.00    -0.510 OA
ENDROOT
BRANCH   3   5
ATOM      5  C   LIG    1        3.357   8.116  -3.426  0.00  0.00    +0.120 C 
BRANCH   5   6
ATOM      6  C   LIG    1        2.404   9.218  -3.893  0.00  0.00    +0.070 C 
ATOM      7  S   LIG    1        0.699   8.588  -3.998  0.00  0.00    +0.060 S 
ATOM      8  C   LIG    1        0.545   8.885  -5.746  0.00  0.00    +0.310 C 
ATOM      9  N   LIG    1       -0.358   8.730  -6.676  0.00  0.00    -0.480 NA
ATOM     10  C   LIG    1        0.155   9.188  -7.968  0.00  0.00    +0.240 C 
ATOM     11  C   LIG    1        1.580   9.669  -7.656  0.00  0.00    +0.280 C 
ATOM     12  N   LIG    1        1.724   9.425  -6.190  0.00  0.00    -0.600 N 
ATOM     13  C   LIG    1        2.717   9.625  -5.306  0.00  0.00    +0.540 C 
ATOM     14  O   LIG    1        3.787  10.098  -5.625  0.00  0.00    -0.480 OA
ENDBRANCH   5   6
ENDBRANCH   3   5
BRANCH   2  15
ATOM     15  C   LIG    1        3.427   6.414   0.002  0.00  0.00    +0.470 C 
BRANCH  15  16
ATOM     16  C   LIG    1        2.409   5.303   0.006  0.00  0.00    +0.160 A 
ATOM     17  N   LIG    1        2.661   4.018  -0.003  0.00  0.00    -0.460 NA
ATOM     18  C   LIG    1        1.451   3.410   0.006  0.00  0.00    +0.240 A 
ATOM     19  N   LIG    1        0.545   4.357   0.013  0.00  0.00    -0.360 NA
ATOM     20  O   LIG    1        1.080   5.445   0.019  0.00  0.00    +0.100 OA
BRANCH  18  21
ATOM     21  C   LIG    1        1.201   1.955   0.001  0.00  0.00    -0.140 A 
ATOM     22  C   LIG    1       -0.017   1.374   0.010  0.00  0.00    +0.060 A 
ATOM     23  C   LIG    1        0.002  -0.004   0.002  0.00  0.00    +0.010 A 
ATOM     24  C   LIG    1        1.221  -0.554  -0.013  0.00  0.00    -0.030 A 
ATOM     25  S   LIG    1        2.443   0.710  -0.018  0.00  0.00    +0.180 S 
ENDBRANCH  18  21
ENDBRANCH  15  16
ENDBRANCH   2  15
TORSDOF 5
