REMARK  Name = ZINCrH000004ukCu.0
REMARK                            x       y       z     vdW  Elec       q    Type
REMARK                         _______ _______ _______ _____ _____    ______ ____
ROOT
ATOM      1  O   LIG    1        1.532   2.979  -1.178  0.00  0.00    -0.530 OA
ATOM      2  C   LIG    1        0.565   3.709  -1.214  0.00  0.00    +0.530 C 
ATOM      3  N   LIG    1        0.730   5.045  -1.277  0.00  0.00    -0.730 N 
ATOM      4  H   LIG    1       -0.041   5.632  -1.231  0.00  0.00    +0.400 HD
ENDROOT
BRANCH   2   5
ATOM      5  C   LIG    1       -0.823   3.122  -1.188  0.00  0.00    -0.030 C 
ATOM      6  C   LIG    1       -1.628   3.658  -2.376  0.00  0.00    +0.020 C 
ATOM      7  C   LIG    1       -0.967   3.200  -3.679  0.00  0.00    +0.210 C 
ATOM      8  O   LIG    1       -0.889   1.774  -3.697  0.00  0.00    -0.380 OA
ATOM      9  C   LIG    1       -0.109   1.218  -2.636  0.00  0.00    +0.220 C 
ATOM     10  C   LIG    1       -0.736   1.596  -1.292  0.00  0.00    +0.040 C 
BRANCH   5  11
ATOM     11  C   LIG    1       -1.510   3.501   0.098  0.00  0.00    -0.090 A 
ATOM     12  C   LIG    1       -2.733   4.144   0.065  0.00  0.00    +0.050 A 
ATOM     13  C   LIG    1       -3.366   4.489   1.244  0.00  0.00    -0.010 A 
ATOM     14  C   LIG    1       -2.769   4.199   2.459  0.00  0.00    +0.100 A 
ATOM     15  C   LIG    1       -1.541   3.560   2.492  0.00  0.00    -0.010 A 
ATOM     16  F   LIG    1       -3.385   4.540   3.613  0.00  0.00    -0.140 F 
ATOM     17  C   LIG    1       -0.913   3.212   1.311  0.00  0.00    +0.050 A 
ENDBRANCH   5  11
ENDBRANCH   2   5
BRANCH   3  18
ATOM     18  C   LIG    1        2.074   5.611  -1.415  0.00  0.00    +0.260 C 
BRANCH  18  19
ATOM     19  C   LIG    1        1.983   7.137  -1.462  0.00  0.00    +0.110 C 
BRANCH  19  20
ATOM     20  C   LIG    1        3.365   7.719  -1.604  0.00  0.00    -0.170 A 
ATOM     21  C   LIG    1        4.153   8.158  -0.610  0.00  0.00    +0.230 A 
ATOM     22  N   LIG    1        5.338   8.614  -1.119  0.00  0.00    -0.590 N 
ATOM     23  H   LIG    1        6.067   8.978  -0.594  0.00  0.00    +0.420 HD
ATOM     24  C   LIG    1        5.338   8.485  -2.490  0.00  0.00    +0.090 A 
ATOM     25  C   LIG    1        6.266   8.791  -3.481  0.00  0.00    -0.010 A 
ATOM     26  C   LIG    1        5.965   8.538  -4.801  0.00  0.00    +0.030 A 
ATOM     27  C   LIG    1        4.745   7.979  -5.155  0.00  0.00    -0.020 A 
ATOM     28  C   LIG    1        3.819   7.670  -4.198  0.00  0.00    +0.050 A 
ATOM     29  C   LIG    1        4.103   7.919  -2.854  0.00  0.00    -0.100 A 
ENDBRANCH  19  20
ENDBRANCH  18  19
ENDBRANCH   3  18
TORSDOF 5
