REMARK  Name = ZINCtV000002GSy3.0
REMARK                            x       y       z     vdW  Elec       q    Type
REMARK                         _______ _______ _______ _____ _____    ______ ____
ROOT
ATOM      1  C   LIG    1        0.662   1.517  -3.347  0.00  0.00    +0.110 A 
ATOM      2  C   LIG    1       -0.527   1.804  -2.622  0.00  0.00    -0.100 A 
ATOM      3  C   LIG    1       -1.613   2.339  -3.307  0.00  0.00    +0.080 A 
ATOM      4  S   LIG    1       -2.943   2.597  -2.188  0.00  0.00    +0.220 S 
ATOM      5  C   LIG    1       -2.013   1.983  -0.822  0.00  0.00    -0.190 A 
ATOM      6  C   LIG    1       -2.208   1.752   0.674  0.00  0.00    +0.120 C 
ATOM      7  C   LIG    1       -0.778   1.605   1.241  0.00  0.00    +0.050 C 
ATOM      8  C   LIG    1       -0.013   1.086   0.008  0.00  0.00    +0.110 C 
ATOM      9  N   LIG    1       -1.531   2.575  -4.620  0.00  0.00    -0.430 NA
ATOM     10  C   LIG    1       -0.445   2.318  -5.312  0.00  0.00    +0.220 A 
ATOM     11  C   LIG    1       -0.795   1.614  -1.194  0.00  0.00    -0.090 A 
ATOM     12  C   LIG    1        0.682   1.786  -4.712  0.00  0.00    -0.070 A 
ENDROOT
BRANCH   1  17
ATOM     13  C   LIG    1        5.272  -0.698  -0.705  0.00  0.00    +0.100 C 
ATOM     14  C   LIG    1        4.066  -0.118  -1.397  0.00  0.00    -0.060 A 
ATOM     15  C   LIG    1        4.131   1.148  -1.950  0.00  0.00    +0.020 A 
ATOM     16  C   LIG    1        3.029   1.684  -2.585  0.00  0.00    +0.050 A 
ATOM     17  C   LIG    1        1.849   0.947  -2.667  0.00  0.00    -0.100 A 
ATOM     18  C   LIG    1        1.787  -0.327  -2.103  0.00  0.00    +0.060 A 
ATOM     19  C   LIG    1        2.897  -0.855  -1.476  0.00  0.00    +0.010 A 
ENDBRANCH   1  17
BRANCH  12  20
ATOM     20  N   LIG    1        1.895   1.505  -5.512  0.00  0.00    +0.030 N 
ATOM     21  O   LIG    1        2.039   0.416  -6.038  0.00  0.00    -0.130 OA
ATOM     22  O   LIG    1        2.749   2.363  -5.645  0.00  0.00    -0.130 OA
ENDBRANCH  12  20
BRANCH  10  23
ATOM     23  C   LIG    1       -0.425   2.611  -6.791  0.00  0.00    +0.160 C 
BRANCH  23  24
ATOM     24  C   LIG    1        0.060   4.019  -7.018  0.00  0.00    -0.100 A 
ATOM     25  C   LIG    1       -0.845   5.063  -7.064  0.00  0.00    +0.020 A 
ATOM     26  C   LIG    1       -0.399   6.356  -7.267  0.00  0.00    +0.000 A 
ATOM     27  C   LIG    1        0.950   6.603  -7.435  0.00  0.00    +0.010 A 
ATOM     28  C   LIG    1        1.855   5.559  -7.394  0.00  0.00    +0.020 A 
ATOM     29  C   LIG    1        1.410   4.267  -7.186  0.00  0.00    +0.020 A 
ENDBRANCH  23  24
ENDBRANCH  10  23
TORSDOF 4
