REMARK  Name = ZINCrD000000C1iz.0
REMARK                            x       y       z     vdW  Elec       q    Type
REMARK                         _______ _______ _______ _____ _____    ______ ____
ROOT
ATOM      1  C   LIG    1       -1.260   7.687  -0.161  0.00  0.00    +0.010 C 
ATOM      2  C   LIG    1       -0.619   8.335   1.088  0.00  0.00    +0.070 C 
ATOM      3  C   LIG    1       -1.454   9.573   1.333  0.00  0.00    +0.520 C 
ATOM      4  N   LIG    1       -2.612   9.491   0.655  0.00  0.00    -0.610 N 
ATOM      5  O   LIG    1       -1.127  10.504   2.038  0.00  0.00    -0.520 OA
ATOM      6  C   LIG    1       -2.703   8.232  -0.094  0.00  0.00    +0.310 C 
ENDROOT
BRANCH   1   8
ATOM      7  O   LIG    1       -2.290   5.566  -0.048  0.00  0.00    -0.510 OA
ATOM      8  C   LIG    1       -1.246   6.183  -0.055  0.00  0.00    +0.530 C 
ATOM      9  N   LIG    1       -0.073   5.525   0.032  0.00  0.00    -0.670 N 
ATOM     10  H   LIG    1        0.758   6.021   0.104  0.00  0.00    +0.410 HD
BRANCH   9  11
ATOM     11  C   LIG    1       -0.053   4.124   0.019  0.00  0.00    +0.130 A 
ATOM     12  C   LIG    1       -0.993   3.423  -0.726  0.00  0.00    +0.040 A 
ATOM     13  C   LIG    1       -0.973   2.042  -0.738  0.00  0.00    +0.010 A 
ATOM     14  C   LIG    1       -0.016   1.356  -0.006  0.00  0.00    +0.090 A 
ATOM     15  C   LIG    1        0.920   2.055   0.743  0.00  0.00    +0.010 A 
ATOM     16  C   LIG    1        0.905   3.436   0.751  0.00  0.00    +0.000 A 
BRANCH  14  17
ATOM     17  O   LIG    1        0.003  -0.004  -0.018  0.00  0.00    -0.500 OA
ATOM     18  H   LIG    1        0.551  -0.384  -0.719  0.00  0.00    +0.390 HD
ENDBRANCH  14  17
ENDBRANCH   9  11
ENDBRANCH   1   8
BRANCH   4  19
ATOM     19  C   LIG    1       -3.649  10.525   0.662  0.00  0.00    +0.370 C 
BRANCH  19  20
ATOM     20  C   LIG    1       -3.393  11.502  -0.457  0.00  0.00    -0.110 A 
ATOM     21  C   LIG    1       -2.611  12.619  -0.234  0.00  0.00    +0.080 A 
ATOM     22  C   LIG    1       -2.372  13.512  -1.262  0.00  0.00    +0.020 A 
ATOM     23  C   LIG    1       -2.924  13.293  -2.509  0.00  0.00    +0.080 A 
ATOM     24  C   LIG    1       -3.712  12.179  -2.731  0.00  0.00    -0.190 A 
ATOM     25  C   LIG    1       -3.946  11.283  -1.705  0.00  0.00    +0.080 A 
BRANCH  24  26
ATOM     26  C   LIG    1       -4.314  11.940  -4.092  0.00  0.00    +0.510 C 
ATOM     27  F   LIG    1       -4.454  10.565  -4.306  0.00  0.00    -0.180 F 
ATOM     28  F   LIG    1       -3.478  12.483  -5.074  0.00  0.00    -0.180 F 
ATOM     29  F   LIG    1       -5.571  12.552  -4.159  0.00  0.00    -0.180 F 
ENDBRANCH  24  26
ENDBRANCH  19  20
ENDBRANCH   4  19
TORSDOF 6
