REMARK  Name = ZINCqH0000033Fyr.0
REMARK                            x       y       z     vdW  Elec       q    Type
REMARK                         _______ _______ _______ _____ _____    ______ ____
ROOT
ATOM      1  C   LIG    1        5.532   5.593  -0.022  0.00  0.00    +0.610 C 
ATOM      2  N   LIG    1        4.226   5.261  -0.003  0.00  0.00    -0.600 N 
ATOM      3  C   LIG    1        3.563   4.903   1.259  0.00  0.00    +0.270 C 
ATOM      4  C   LIG    1        2.884   3.540   1.089  0.00  0.00    +0.030 C 
ATOM      5  C   LIG    1        1.948   3.589  -0.121  0.00  0.00    +0.070 C 
ATOM      6  C   LIG    1        2.760   3.885  -1.384  0.00  0.00    +0.020 C 
ATOM      7  C   LIG    1        3.438   5.251  -1.242  0.00  0.00    +0.290 C 
ATOM      8  O   LIG    1        6.100   5.765  -1.083  0.00  0.00    -0.510 OA
ENDROOT
BRANCH   5   9
ATOM      9  C   LIG    1        1.252   2.261  -0.271  0.00  0.00    -0.160 A 
ATOM     10  C   LIG    1        1.839   1.069  -0.467  0.00  0.00    +0.240 A 
ATOM     11  N   LIG    1        0.888   0.090  -0.556  0.00  0.00    -0.590 N 
ATOM     12  H   LIG    1        1.070  -0.853  -0.697  0.00  0.00    +0.420 HD
ATOM     13  C   LIG    1       -0.367   0.642  -0.422  0.00  0.00    +0.090 A 
ATOM     14  C   LIG    1       -1.651   0.108  -0.427  0.00  0.00    +0.030 A 
ATOM     15  C   LIG    1       -2.740   0.935  -0.257  0.00  0.00    +0.010 A 
ATOM     16  C   LIG    1       -2.571   2.302  -0.074  0.00  0.00    +0.070 A 
ATOM     17  C   LIG    1       -1.306   2.851  -0.061  0.00  0.00    +0.020 A 
ATOM     18  F   LIG    1       -3.650   3.098   0.091  0.00  0.00    -0.140 F 
ATOM     19  C   LIG    1       -0.193   2.025  -0.232  0.00  0.00    -0.070 A 
ENDBRANCH   5   9
BRANCH   1  23
ATOM     20  C   LIG    1        7.798   6.027   2.794  0.00  0.00    +0.210 A 
ATOM     21  N   LIG    1        6.616   5.875   3.328  0.00  0.00    -0.390 NA
ATOM     22  O   LIG    1        5.760   5.719   2.489  0.00  0.00    +0.110 OA
ATOM     23  C   LIG    1        6.272   5.748   1.245  0.00  0.00    -0.060 A 
ATOM     24  C   LIG    1        7.617   5.944   1.390  0.00  0.00    +0.040 A 
BRANCH  20  25
ATOM     25  O   LIG    1        8.968   6.222   3.453  0.00  0.00    -0.280 OA
BRANCH  25  27
ATOM     26  C   LIG    1       10.315   6.492   5.442  0.00  0.00    +0.070 C 
ATOM     27  C   LIG    1        8.910   6.266   4.880  0.00  0.00    +0.200 C 
ENDBRANCH  25  27
ENDBRANCH  20  25
ENDBRANCH   1  23
TORSDOF 4
