REMARK  Name = ZINCkj000014ppqb.1
REMARK                            x       y       z     vdW  Elec       q    Type
REMARK                         _______ _______ _______ _____ _____    ______ ____
ROOT
ATOM      1  C   LIG    1       -8.688  -0.895   0.341  0.00  0.00    +0.380 A 
ATOM      2  N   LIG    1       -8.959  -1.368  -0.862  0.00  0.00    -0.600 NA
ATOM      3  C   LIG    1       -8.013  -1.392  -1.798  0.00  0.00    +0.640 A 
ATOM      4  N   LIG    1       -6.796  -0.936  -1.523  0.00  0.00    -0.640 NA
ATOM      5  C   LIG    1       -6.526  -0.466  -0.310  0.00  0.00    +0.630 A 
ATOM      6  N   LIG    1       -7.477  -0.445   0.621  0.00  0.00    -0.610 NA
ENDROOT
BRANCH   1   8
ATOM      7  C   LIG    1      -11.059  -1.441   0.822  0.00  0.00    +0.110 C 
ATOM      8  C   LIG    1       -9.762  -0.869   1.398  0.00  0.00    +0.370 C 
ATOM      9  F   LIG    1       -9.978   0.450   1.812  0.00  0.00    -0.180 F 
ATOM     10  F   LIG    1       -9.357  -1.641   2.493  0.00  0.00    -0.180 F 
ENDBRANCH   1   8
BRANCH   3  11
ATOM     11  N   LIG    1       -8.298  -1.887  -3.055  0.00  0.00    -0.800 N 
ATOM     12  H   LIG    1       -7.608  -1.904  -3.737  0.00  0.00    +0.420 HD
ATOM     13  H   LIG    1       -9.187  -2.216  -3.257  0.00  0.00    +0.420 HD
ENDBRANCH   3  11
BRANCH   5  14
ATOM     14  N   LIG    1       -5.262   0.005  -0.017  0.00  0.00    -0.690 N 
ATOM     15  H   LIG    1       -5.067   0.351   0.867  0.00  0.00    +0.420 HD
BRANCH  14  16
ATOM     16  C   LIG    1       -4.216  -0.019  -1.042  0.00  0.00    +0.300 C 
BRANCH  16  17
ATOM     17  C   LIG    1       -2.921   0.554  -0.463  0.00  0.00    -0.020 C 
ATOM     18  C   LIG    1       -2.417  -0.348   0.633  0.00  0.00    +0.020 C 
ATOM     19  C   LIG    1       -1.656   0.406   1.741  0.00  0.00    +0.050 C 
ATOM     20  C   LIG    1       -0.705   1.479   1.184  0.00  0.00    +0.240 C 
ATOM     21  N   LIG    1       -0.012   1.005   0.008  0.00  0.00    -0.500 N 
ATOM     22  C   LIG    1       -0.741   1.501  -1.173  0.00  0.00    +0.260 C 
ATOM     23  H   LIG    1        0.933   1.360   0.001  0.00  0.00    +0.440 HD
ATOM     24  H   LIG    1        0.002  -0.004   0.002  0.00  0.00    +0.430 HD
ATOM     25  C   LIG    1       -1.852   0.646  -1.579  0.00  0.00    +0.060 C 
ENDBRANCH  16  17
ENDBRANCH  14  16
ENDBRANCH   5  14
TORSDOF 5
