REMARK  Name = ZINCrH000004tMvJ.0
REMARK                            x       y       z     vdW  Elec       q    Type
REMARK                         _______ _______ _______ _____ _____    ______ ____
ROOT
ATOM      1  O   LIG    1        5.904   3.139   1.539  0.00  0.00    -0.510 OA
ATOM      2  C   LIG    1        5.015   3.959   1.446  0.00  0.00    +0.520 C 
ATOM      3  N   LIG    1        5.300   5.274   1.524  0.00  0.00    -0.730 N 
ATOM      4  H   LIG    1        4.589   5.929   1.449  0.00  0.00    +0.400 HD
ENDROOT
BRANCH   3   5
ATOM      5  C   LIG    1        6.683   5.713   1.721  0.00  0.00    +0.390 C 
BRANCH   5   6
ATOM      6  C   LIG    1        6.849   7.109   1.180  0.00  0.00    -0.100 A 
ATOM      7  C   LIG    1        5.849   8.046   1.366  0.00  0.00    +0.050 A 
ATOM      8  C   LIG    1        6.003   9.328   0.875  0.00  0.00    -0.010 A 
ATOM      9  C   LIG    1        7.153   9.672   0.185  0.00  0.00    +0.110 A 
ATOM     10  C   LIG    1        8.152   8.732  -0.006  0.00  0.00    -0.010 A 
ATOM     11  F   LIG    1        7.302  10.924  -0.300  0.00  0.00    -0.140 F 
ATOM     12  C   LIG    1        7.998   7.452   0.492  0.00  0.00    +0.070 A 
ENDBRANCH   5   6
BRANCH   5  13
ATOM     13  C   LIG    1        7.008   5.703   3.193  0.00  0.00    -0.190 A 
ATOM     14  C   LIG    1        8.163   5.296   3.722  0.00  0.00    +0.020 A 
ATOM     15  C   LIG    1        8.234   5.381   5.102  0.00  0.00    +0.010 A 
ATOM     16  C   LIG    1        7.133   5.848   5.694  0.00  0.00    -0.050 A 
ATOM     17  S   LIG    1        5.920   6.218   4.475  0.00  0.00    +0.110 S 
ENDBRANCH   5  13
ENDBRANCH   3   5
BRANCH   2  18
ATOM     18  C   LIG    1        3.592   3.507   1.242  0.00  0.00    +0.210 C 
BRANCH  18  19
ATOM     19  N   LIG    1        3.546   2.039   1.192  0.00  0.00    -0.510 NA
ATOM     20  C   LIG    1        4.236   1.532  -0.004  0.00  0.00    +0.150 C 
ATOM     21  C   LIG    1        4.218   0.001   0.011  0.00  0.00    +0.230 C 
ATOM     22  O   LIG    1        2.862  -0.449   0.090  0.00  0.00    -0.380 OA
ATOM     23  C   LIG    1        2.169   0.022   1.248  0.00  0.00    +0.170 C 
ATOM     24  C   LIG    1        0.736  -0.508   1.246  0.00  0.00    +0.040 C 
ATOM     25  C   LIG    1        0.002  -0.004   0.002  0.00  0.00    +0.010 C 
ATOM     26  C   LIG    1       -0.019   1.526   0.010  0.00  0.00    +0.010 C 
ATOM     27  C   LIG    1        1.417   2.054  -0.000  0.00  0.00    -0.020 C 
ATOM     28  C   LIG    1        2.158   1.553   1.233  0.00  0.00    +0.150 C 
ENDBRANCH  18  19
ENDBRANCH   2  18
TORSDOF 5
