REMARK  Name = ZINCrD000000AkXJ.0
REMARK                            x       y       z     vdW  Elec       q    Type
REMARK                         _______ _______ _______ _____ _____    ______ ____
ROOT
ATOM      1  N   LIG    1        0.026   0.004  -0.357  0.00  0.00    -0.570 N 
ATOM      2  C   LIG    1        0.111  -0.895   0.632  0.00  0.00    +0.710 C 
ATOM      3  N   LIG    1        0.119  -2.163   0.174  0.00  0.00    -0.710 N 
ATOM      4  H   LIG    1        0.174  -2.974   0.704  0.00  0.00    +0.440 HD
ATOM      5  C   LIG    1        0.028  -2.071  -1.284  0.00  0.00    +0.170 C 
ATOM      6  C   LIG    1       -1.220  -2.789  -1.813  0.00  0.00    +0.080 C 
ATOM      7  C   LIG    1       -0.655  -4.170  -2.215  0.00  0.00    +0.100 C 
ATOM      8  C   LIG    1        0.813  -3.932  -2.503  0.00  0.00    -0.070 A 
ATOM      9  C   LIG    1        1.731  -4.713  -3.182  0.00  0.00    +0.020 A 
ATOM     10  C   LIG    1        3.039  -4.290  -3.320  0.00  0.00    +0.030 A 
ATOM     11  C   LIG    1        3.433  -3.081  -2.777  0.00  0.00    +0.010 A 
ATOM     12  C   LIG    1        2.518  -2.299  -2.099  0.00  0.00    +0.050 A 
ATOM     13  C   LIG    1        1.206  -2.720  -1.960  0.00  0.00    -0.110 A 
ATOM     14  O   LIG    1        0.173  -0.602   1.810  0.00  0.00    -0.530 OA
ATOM     15  C   LIG    1       -0.036  -0.593  -1.567  0.00  0.00    +0.540 C 
ATOM     16  O   LIG    1       -0.123  -0.054  -2.650  0.00  0.00    -0.450 OA
ENDROOT
BRANCH   1  17
ATOM     17  C   LIG    1       -0.003   1.454  -0.151  0.00  0.00    +0.370 C 
BRANCH  17  19
ATOM     18  O   LIG    1        2.340   1.238  -0.334  0.00  0.00    -0.500 OA
ATOM     19  C   LIG    1        1.405   1.992  -0.167  0.00  0.00    +0.500 C 
ATOM     20  N   LIG    1        1.624   3.311   0.004  0.00  0.00    -0.670 N 
ATOM     21  H   LIG    1        0.875   3.924   0.061  0.00  0.00    +0.420 HD
BRANCH  20  22
ATOM     22  C   LIG    1        2.934   3.795   0.100  0.00  0.00    +0.170 A 
ATOM     23  C   LIG    1        3.920   3.022   0.698  0.00  0.00    +0.050 A 
ATOM     24  C   LIG    1        5.213   3.500   0.787  0.00  0.00    +0.070 A 
ATOM     25  C   LIG    1        5.524   4.753   0.291  0.00  0.00    -0.050 A 
ATOM     26  C   LIG    1        4.542   5.530  -0.301  0.00  0.00    -0.010 A 
ATOM     27 CL   LIG    1        4.936   7.102  -0.923  0.00  0.00    -0.040 Cl
ATOM     28 CL   LIG    1        7.149   5.353   0.411  0.00  0.00    -0.040 Cl
ATOM     29  C   LIG    1        3.248   5.053  -0.397  0.00  0.00    +0.020 A 
ENDBRANCH  20  22
ENDBRANCH  17  19
ENDBRANCH   1  17
TORSDOF 3
