REMARK  Name = ZINCrH00000tj1lZ.0
REMARK                            x       y       z     vdW  Elec       q    Type
REMARK                         _______ _______ _______ _____ _____    ______ ____
ROOT
ATOM      1  C   LIG    1        3.773  -1.967   0.086  0.00  0.00    +0.520 C 
ATOM      2  N   LIG    1        3.675  -0.626  -0.015  0.00  0.00    -0.660 N 
ATOM      3  H   LIG    1        4.478  -0.084  -0.065  0.00  0.00    +0.430 HD
ATOM      4  O   LIG    1        2.771  -2.651   0.069  0.00  0.00    -0.490 OA
ENDROOT
BRANCH   2   5
ATOM      5  C   LIG    1        2.414  -0.017  -0.050  0.00  0.00    +0.230 A 
ATOM      6  C   LIG    1        1.357  -0.644  -0.692  0.00  0.00    +0.050 A 
ATOM      7  C   LIG    1        0.109  -0.041  -0.726  0.00  0.00    +0.130 A 
ATOM      8  C   LIG    1       -0.081   1.192  -0.114  0.00  0.00    +0.040 A 
ATOM      9  O   LIG    1       -1.301   1.796  -0.128  0.00  0.00    -0.300 OA
ATOM     10  C   LIG    1       -2.243   1.321  -1.096  0.00  0.00    +0.240 C 
ATOM     11  C   LIG    1       -2.240  -0.214  -1.056  0.00  0.00    +0.240 C 
ATOM     12  C   LIG    1        0.979   1.818   0.526  0.00  0.00    +0.140 A 
ATOM     13  O   LIG    1       -0.917  -0.667  -1.365  0.00  0.00    -0.290 OA
ATOM     14  C   LIG    1        2.223   1.217   0.558  0.00  0.00    -0.070 A 
BRANCH  14  15
ATOM     15  N   LIG    1        3.351   1.887   1.243  0.00  0.00    +0.050 N 
ATOM     16  O   LIG    1        4.467   1.401   1.197  0.00  0.00    -0.180 OA
ATOM     17  O   LIG    1        3.163   2.925   1.852  0.00  0.00    -0.140 OA
ENDBRANCH  14  15
ENDBRANCH   2   5
BRANCH   1  18
ATOM     18  C   LIG    1        5.126  -2.616   0.221  0.00  0.00    +0.180 C 
ATOM     19  C   LIG    1        5.979  -2.274  -1.003  0.00  0.00    +0.060 C 
BRANCH  18  20
ATOM     20  O   LIG    1        4.968  -4.033   0.311  0.00  0.00    -0.280 OA
BRANCH  20  28
ATOM     21  C   LIG    1        4.510  -6.789   0.728  0.00  0.00    +0.110 C 
ATOM     22  C   LIG    1        5.681  -6.060   1.333  0.00  0.00    -0.100 A 
ATOM     23  C   LIG    1        6.585  -6.741   2.124  0.00  0.00    +0.070 A 
ATOM     24  C   LIG    1        7.658  -6.071   2.685  0.00  0.00    -0.070 A 
ATOM     25  C   LIG    1        7.830  -4.718   2.450  0.00  0.00    +0.070 A 
ATOM     26  C   LIG    1        6.930  -4.034   1.656  0.00  0.00    -0.060 A 
ATOM     27 CL   LIG    1        8.790  -6.928   3.683  0.00  0.00    -0.070 Cl
ATOM     28  C   LIG    1        5.855  -4.704   1.093  0.00  0.00    +0.130 A 
ENDBRANCH  20  28
ENDBRANCH  18  20
ENDBRANCH   1  18
TORSDOF 5
