REMARK  Name = ZINCrD00000F5LH0.0
REMARK                            x       y       z     vdW  Elec       q    Type
REMARK                         _______ _______ _______ _____ _____    ______ ____
ROOT
ATOM      1  C   LIG    1        1.412   2.061  -0.009  0.00  0.00    +0.050 C 
ATOM      2  C   LIG    1       -0.024   1.533   0.003  0.00  0.00    +0.060 C 
ATOM      3  C   LIG    1       -0.001   0.001  -0.002  0.00  0.00    +0.280 C 
ATOM      4  N   LIG    1        0.801  -0.457  -1.145  0.00  0.00    -0.610 N 
ATOM      5  C   LIG    1        2.167   0.061  -1.302  0.00  0.00    +0.290 C 
ATOM      6  C   LIG    1        0.293  -1.335  -2.032  0.00  0.00    +0.550 C 
ATOM      7  O   LIG    1       -0.803  -1.827  -1.841  0.00  0.00    -0.540 OA
ATOM      8  C   LIG    1        2.120   1.592  -1.283  0.00  0.00    +0.030 C 
ENDROOT
BRANCH   1  12
ATOM      9  O   LIG    1       -0.748   6.089  -0.846  0.00  0.00    -0.480 OA
ATOM     10  C   LIG    1        0.246   5.527  -0.420  0.00  0.00    +0.530 A 
ATOM     11  N   LIG    1        0.339   4.184  -0.427  0.00  0.00    -0.590 NA
ATOM     12  C   LIG    1        1.394   3.567   0.030  0.00  0.00    +0.450 A 
ATOM     13  N   LIG    1        2.468   4.205   0.528  0.00  0.00    -0.620 N 
ATOM     14  H   LIG    1        3.225   3.692   0.850  0.00  0.00    +0.420 HD
ATOM     15  C   LIG    1        2.499   5.584   0.585  0.00  0.00    +0.170 A 
ATOM     16  C   LIG    1        3.591   6.274   1.093  0.00  0.00    -0.020 A 
ATOM     17  C   LIG    1        3.572   7.652   1.128  0.00  0.00    +0.080 A 
ATOM     18  C   LIG    1        2.473   8.358   0.660  0.00  0.00    -0.010 A 
ATOM     19  C   LIG    1        1.379   7.691   0.152  0.00  0.00    +0.110 A 
ATOM     20  C   LIG    1        1.384   6.299   0.110  0.00  0.00    -0.210 A 
ENDBRANCH   1  12
BRANCH   6  21
ATOM     21  C   LIG    1        1.060  -1.696  -3.226  0.00  0.00    -0.090 C 
ATOM     22  C   LIG    1        0.511  -2.491  -4.165  0.00  0.00    +0.130 C 
BRANCH  22  23
ATOM     23  C   LIG    1        1.282  -2.854  -5.365  0.00  0.00    -0.080 A 
ATOM     24  C   LIG    1        2.583  -2.371  -5.537  0.00  0.00    +0.030 A 
ATOM     25  C   LIG    1        3.301  -2.719  -6.662  0.00  0.00    +0.010 A 
ATOM     26  C   LIG    1        2.733  -3.537  -7.624  0.00  0.00    +0.020 A 
ATOM     27  C   LIG    1        1.445  -4.015  -7.463  0.00  0.00    +0.010 A 
ATOM     28  C   LIG    1        0.716  -3.679  -6.342  0.00  0.00    +0.040 A 
ENDBRANCH  22  23
ENDBRANCH   6  21
TORSDOF 3
