REMARK  Name = ZINCrH000004rG74.0
REMARK                            x       y       z     vdW  Elec       q    Type
REMARK                         _______ _______ _______ _____ _____    ______ ____
ROOT
ATOM      1  C   LIG    1        1.772  -1.828  -0.025  0.00  0.00    +0.160 C 
ENDROOT
BRANCH   1  12
ATOM      2  C   LIG    1        2.590  -5.542  -7.016  0.00  0.00    +0.100 C 
ATOM      3  C   LIG    1        2.531  -5.013  -5.606  0.00  0.00    -0.070 A 
ATOM      4  C   LIG    1        1.826  -3.855  -5.334  0.00  0.00    +0.000 A 
ATOM      5  C   LIG    1        1.771  -3.365  -4.043  0.00  0.00    +0.050 A 
ATOM      6  C   LIG    1        2.422  -4.036  -3.021  0.00  0.00    +0.070 A 
ATOM      7  C   LIG    1        3.131  -5.204  -3.291  0.00  0.00    +0.100 A 
ATOM      8  O   LIG    1        3.767  -5.878  -2.297  0.00  0.00    -0.310 OA
ATOM      9  C   LIG    1        4.071  -5.163  -1.097  0.00  0.00    +0.250 C 
ATOM     10  C   LIG    1        2.812  -4.433  -0.621  0.00  0.00    +0.260 C 
ATOM     11  N   LIG    1        2.372  -3.540  -1.707  0.00  0.00    -0.560 N 
ATOM     12  C   LIG    1        1.940  -2.289  -1.450  0.00  0.00    +0.520 C 
ATOM     13  O   LIG    1        1.688  -1.535  -2.365  0.00  0.00    -0.500 OA
ATOM     14  C   LIG    1        3.182  -5.688  -4.590  0.00  0.00    +0.000 A 
ENDBRANCH   1  12
BRANCH   1  15
ATOM     15  C   LIG    1        1.283  -0.403  -0.013  0.00  0.00    -0.220 A 
ATOM     16  C   LIG    1       -0.011  -0.005  -0.013  0.00  0.00    +0.110 A 
ATOM     17  N   LIG    1       -0.025   1.347   0.000  0.00  0.00    -0.320 N 
ATOM     18  N   LIG    1        1.303   1.792   0.009  0.00  0.00    -0.290 NA
ATOM     19  C   LIG    1       -1.218  -0.907  -0.026  0.00  0.00    +0.160 C 
ATOM     20  C   LIG    1        2.086   0.743   0.002  0.00  0.00    +0.100 A 
ATOM     21  C   LIG    1        3.593   0.766   0.008  0.00  0.00    +0.160 C 
BRANCH  17  22
ATOM     22  C   LIG    1       -1.168   2.159  -0.001  0.00  0.00    +0.150 A 
ATOM     23  C   LIG    1       -2.297   1.770  -0.708  0.00  0.00    +0.000 A 
ATOM     24  C   LIG    1       -3.424   2.570  -0.702  0.00  0.00    +0.030 A 
ATOM     25  C   LIG    1       -3.422   3.763  -0.003  0.00  0.00    +0.010 A 
ATOM     26  C   LIG    1       -2.297   4.156   0.697  0.00  0.00    +0.030 A 
ATOM     27  C   LIG    1       -1.170   3.358   0.700  0.00  0.00    +0.020 A 
ENDBRANCH  17  22
ENDBRANCH   1  15
TORSDOF 3
