REMARK  Name = ZINCpe000000XhbM.0
REMARK                            x       y       z     vdW  Elec       q    Type
REMARK                         _______ _______ _______ _____ _____    ______ ____
ROOT
ATOM      1  C   LIG    1       -3.712   3.210   5.094  0.00  0.00    +0.510 C 
ATOM      2  N   LIG    1       -4.355   3.992   5.984  0.00  0.00    -0.730 N 
ATOM      3  H   LIG    1       -5.100   4.543   5.696  0.00  0.00    +0.400 HD
ATOM      4  O   LIG    1       -2.781   2.521   5.454  0.00  0.00    -0.530 OA
ENDROOT
BRANCH   1   6
ATOM      5  C   LIG    1       -5.607   2.726   3.569  0.00  0.00    +0.060 C 
ATOM      6  C   LIG    1       -4.152   3.190   3.653  0.00  0.00    +0.250 C 
BRANCH   6   7
ATOM      7  N   LIG    1       -3.301   2.268   2.896  0.00  0.00    -0.710 N 
ATOM      8  H   LIG    1       -2.853   1.538   3.350  0.00  0.00    +0.410 HD
ATOM      9  C   LIG    1       -3.143   2.433   1.568  0.00  0.00    +0.530 C 
ATOM     10  O   LIG    1       -3.704   3.346   0.999  0.00  0.00    -0.540 OA
BRANCH   9  11
ATOM     11  C   LIG    1       -2.268   1.485   0.789  0.00  0.00    -0.010 C 
ATOM     12  C   LIG    1       -0.789   1.611   1.242  0.00  0.00    +0.040 C 
ATOM     13  C   LIG    1       -0.013   1.086   0.008  0.00  0.00    +0.020 C 
ATOM     14  C   LIG    1       -0.809   1.622  -1.200  0.00  0.00    +0.010 C 
ATOM     15  C   LIG    1       -2.243   1.875  -0.703  0.00  0.00    +0.040 C 
ENDBRANCH   9  11
ENDBRANCH   6   7
ENDBRANCH   1   6
BRANCH   2  16
ATOM     16  C   LIG    1       -3.928   4.012   7.385  0.00  0.00    +0.290 C 
BRANCH  16  17
ATOM     17  C   LIG    1       -4.816   4.975   8.175  0.00  0.00    +0.050 C 
BRANCH  17  18
ATOM     18  C   LIG    1       -4.376   4.995   9.617  0.00  0.00    +0.520 C 
ATOM     19  N   LIG    1       -5.019   5.777  10.506  0.00  0.00    -0.730 N 
ATOM     20  H   LIG    1       -5.764   6.328  10.219  0.00  0.00    +0.400 HD
ATOM     21  O   LIG    1       -3.445   4.306   9.976  0.00  0.00    -0.530 OA
BRANCH  19  22
ATOM     22  C   LIG    1       -4.592   5.797  11.908  0.00  0.00    +0.330 C 
BRANCH  22  23
ATOM     23  C   LIG    1       -5.466   6.745  12.686  0.00  0.00    -0.170 A 
ATOM     24  C   LIG    1       -5.116   8.081  12.811  0.00  0.00    +0.080 A 
ATOM     25  C   LIG    1       -5.954   8.918  13.532  0.00  0.00    -0.030 A 
ATOM     26  C   LIG    1       -7.096   8.395  14.108  0.00  0.00    +0.270 A 
ATOM     27  N   LIG    1       -7.395   7.117  13.973  0.00  0.00    -0.480 NA
ATOM     28  C   LIG    1       -6.625   6.293  13.290  0.00  0.00    +0.280 A 
ENDBRANCH  22  23
ENDBRANCH  19  22
ENDBRANCH  17  18
ENDBRANCH  16  17
ENDBRANCH   2  16
TORSDOF 8
