REMARK  Name = ZINCvU0000000H6t.0
REMARK                            x       y       z     vdW  Elec       q    Type
REMARK                         _______ _______ _______ _____ _____    ______ ____
ROOT
ATOM      1  C   LIG    1        4.224  -1.306  -1.384  0.00  0.00    +0.370 C 
ATOM      2  N   LIG    1        3.902  -0.162  -0.528  0.00  0.00    -0.350 N 
ATOM      3  N   LIG    1        2.797  -0.074   0.322  0.00  0.00    -0.230 NA
ATOM      4  C   LIG    1        2.809   1.079   0.940  0.00  0.00    +0.170 A 
ATOM      5  C   LIG    1        4.001   1.821   0.471  0.00  0.00    -0.210 A 
ATOM      6  C   LIG    1        4.665   3.037   0.659  0.00  0.00    +0.160 A 
ATOM      7  C   LIG    1        5.784   3.198  -0.065  0.00  0.00    -0.270 A 
ATOM      8  S   LIG    1        6.081   1.778  -1.054  0.00  0.00    +0.210 S 
ATOM      9  C   LIG    1        4.636   0.988  -0.435  0.00  0.00    +0.020 A 
ENDROOT
BRANCH   7  10
ATOM     10  C   LIG    1        6.636   4.389  -0.034  0.00  0.00    +0.600 C 
ATOM     11  N   LIG    1        7.974   4.258   0.055  0.00  0.00    -0.600 N 
ATOM     12  C   LIG    1        8.598   2.928   0.049  0.00  0.00    +0.250 C 
ATOM     13  C   LIG    1        9.502   2.797   1.273  0.00  0.00    +0.020 C 
ATOM     14  C   LIG    1       10.498   3.958   1.296  0.00  0.00    +0.000 C 
ATOM     15  C   LIG    1        9.738   5.283   1.395  0.00  0.00    +0.020 C 
ATOM     16  C   LIG    1        8.837   5.443   0.166  0.00  0.00    +0.280 C 
ATOM     17  O   LIG    1        6.136   5.498  -0.088  0.00  0.00    -0.520 OA
BRANCH  14  18
ATOM     18  C   LIG    1       11.425   3.812   2.505  0.00  0.00    +0.070 C 
BRANCH  18  19
ATOM     19  C   LIG    1       12.263   2.569   2.347  0.00  0.00    -0.080 A 
ATOM     20  C   LIG    1       11.810   1.362   2.846  0.00  0.00    +0.000 A 
ATOM     21  C   LIG    1       12.576   0.221   2.697  0.00  0.00    +0.000 A 
ATOM     22  C   LIG    1       13.800   0.289   2.059  0.00  0.00    +0.000 A 
ATOM     23  C   LIG    1       14.256   1.497   1.564  0.00  0.00    +0.000 A 
ATOM     24  C   LIG    1       13.487   2.637   1.709  0.00  0.00    +0.000 A 
ENDBRANCH  18  19
ENDBRANCH  14  18
ENDBRANCH   7  10
BRANCH   4  25
ATOM     25  C   LIG    1        1.810   1.556   1.925  0.00  0.00    -0.060 A 
ATOM     26  C   LIG    1        1.948   2.814   2.509  0.00  0.00    +0.080 A 
ATOM     27  C   LIG    1        1.014   3.254   3.425  0.00  0.00    +0.010 A 
ATOM     28  C   LIG    1       -0.058   2.449   3.766  0.00  0.00    +0.070 A 
ATOM     29  C   LIG    1       -0.205   1.201   3.188  0.00  0.00    -0.020 A 
ATOM     30  C   LIG    1        0.726   0.747   2.273  0.00  0.00    +0.130 A 
ATOM     31  F   LIG    1        0.585  -0.474   1.712  0.00  0.00    -0.120 F 
ENDBRANCH   4  25
TORSDOF 4
