REMARK  Name = ZINCrD000000fYE1.0
REMARK                            x       y       z     vdW  Elec       q    Type
REMARK                         _______ _______ _______ _____ _____    ______ ____
ROOT
ATOM      1  C   LIG    1        1.874   2.871   1.490  0.00  0.00    -0.680 A 
ATOM      2  C   LIG    1        2.842   3.152   2.431  0.00  0.00    +0.220 A 
ATOM      3  C   LIG    1        2.569   4.056   3.460  0.00  0.00    -0.150 A 
ATOM      4  C   LIG    1        1.313   4.661   3.535  0.00  0.00    +0.130 A 
ATOM      5  C   LIG    1        0.351   4.367   2.591  0.00  0.00    +0.020 A 
ATOM      6  C   LIG    1        0.630   3.474   1.570  0.00  0.00    +0.080 A 
ATOM      7 CL   LIG    1       -0.586   3.109   0.386  0.00  0.00    -0.030 Cl
ENDROOT
BRANCH   3   8
ATOM      8  C   LIG    1        3.603   4.367   4.468  0.00  0.00    +0.560 C 
ATOM      9  N   LIG    1        3.335   5.235   5.463  0.00  0.00    -0.660 N 
ATOM     10  H   LIG    1        2.491   5.712   5.477  0.00  0.00    +0.410 HD
ATOM     11  O   LIG    1        4.697   3.839   4.400  0.00  0.00    -0.500 OA
BRANCH   9  12
ATOM     12  C   LIG    1        4.276   5.449   6.478  0.00  0.00    +0.150 A 
ATOM     13  C   LIG    1        4.418   6.712   7.038  0.00  0.00    +0.010 A 
ATOM     14  C   LIG    1        5.346   6.924   8.039  0.00  0.00    +0.060 A 
ATOM     15  C   LIG    1        6.138   5.880   8.487  0.00  0.00    +0.020 A 
ATOM     16  O   LIG    1        7.111   5.828   9.445  0.00  0.00    -0.310 OA
ATOM     17  C   LIG    1        7.846   4.618   9.181  0.00  0.00    +0.430 C 
ATOM     18  O   LIG    1        6.882   3.767   8.534  0.00  0.00    -0.310 OA
ATOM     19  C   LIG    1        5.998   4.611   7.927  0.00  0.00    +0.060 A 
ATOM     20  C   LIG    1        5.064   4.398   6.928  0.00  0.00    +0.050 A 
ENDBRANCH   9  12
ENDBRANCH   3   8
BRANCH   1  21
ATOM     21  S   LIG    1        2.219   1.736   0.187  0.00  0.00    +2.690 S 
ATOM     22  O   LIG    1        1.825   2.377  -1.018  0.00  0.00    -0.940 OA
ATOM     23  O   LIG    1        3.534   1.250   0.416  0.00  0.00    -0.940 OA
BRANCH  21  24
ATOM     24  N   LIG    1        1.202   0.443   0.382  0.00  0.00    -1.100 NA
ATOM     25  H   LIG    1        0.515   0.262  -0.278  0.00  0.00    +0.420 HD
BRANCH  24  27
ATOM     26  C   LIG    1        0.993   0.367   2.817  0.00  0.00    +0.030 C 
ATOM     27  C   LIG    1        1.337  -0.425   1.554  0.00  0.00    +0.170 C 
ATOM     28  C   LIG    1        2.777  -0.935   1.649  0.00  0.00    +0.050 C 
ATOM     29  C   LIG    1        0.383  -1.613   1.422  0.00  0.00    +0.050 C 
ENDBRANCH  24  27
ENDBRANCH  21  24
ENDBRANCH   1  21
TORSDOF 5
