REMARK  Name = ZINCtj00001UqOzf.0
REMARK                            x       y       z     vdW  Elec       q    Type
REMARK                         _______ _______ _______ _____ _____    ______ ____
ROOT
ATOM      1  C   LIG    1        6.569   1.103   2.007  0.00  0.00    +0.520 C 
ATOM      2  N   LIG    1        7.900   1.311   1.974  0.00  0.00    -0.720 N 
ATOM      3  H   LIG    1        8.329   1.823   2.678  0.00  0.00    +0.400 HD
ATOM      4  O   LIG    1        6.033   0.463   1.127  0.00  0.00    -0.530 OA
ENDROOT
BRANCH   1   5
ATOM      5  C   LIG    1        5.746   1.665   3.138  0.00  0.00    +0.190 C 
ATOM      6  C   LIG    1        6.036   0.881   4.419  0.00  0.00    +0.030 C 
BRANCH   5  10
ATOM      7  N   LIG    1        1.595   0.902   3.368  0.00  0.00    -0.390 N 
ATOM      8  C   LIG    1        2.036   2.300   3.279  0.00  0.00    +0.280 C 
ATOM      9  C   LIG    1        3.506   2.399   3.693  0.00  0.00    +0.200 C 
ATOM     10  N   LIG    1        4.319   1.553   2.808  0.00  0.00    -0.520 NA
ATOM     11  C   LIG    1        3.873   0.154   2.868  0.00  0.00    +0.220 C 
ATOM     12  C   LIG    1        2.400   0.074   2.460  0.00  0.00    +0.270 C 
ATOM     13  H   LIG    1        1.711   0.573   4.314  0.00  0.00    +0.420 HD
BRANCH   7  14
ATOM     14  C   LIG    1        0.179   0.810   2.987  0.00  0.00    +0.250 C 
BRANCH  14  15
ATOM     15  C   LIG    1       -0.674   1.557   4.015  0.00  0.00    -0.030 C 
ATOM     16  C   LIG    1       -2.137   1.548   3.566  0.00  0.00    +0.070 C 
BRANCH  15  18
ATOM     17  C   LIG    1       -1.306   1.683   6.429  0.00  0.00    +0.040 C 
ATOM     18  C   LIG    1       -0.554   0.867   5.375  0.00  0.00    +0.000 C 
ENDBRANCH  15  18
ENDBRANCH  14  15
ENDBRANCH   7  14
ENDBRANCH   5  10
ENDBRANCH   1   5
BRANCH   2  19
ATOM     19  C   LIG    1        8.700   0.764   0.875  0.00  0.00    +0.390 C 
BRANCH  19  20
ATOM     20  C   LIG    1       10.147   1.137   1.073  0.00  0.00    -0.060 A 
ATOM     21  C   LIG    1       11.102   0.386   1.670  0.00  0.00    +0.170 A 
ATOM     22  N   LIG    1       12.241   1.114   1.619  0.00  0.00    -0.280 N 
ATOM     23  N   LIG    1       11.979   2.232   1.037  0.00  0.00    -0.070 NA
ATOM     24  N   LIG    1       10.738   2.277   0.699  0.00  0.00    -0.250 NA
BRANCH  22  25
ATOM     25  C   LIG    1       13.546   0.704   2.142  0.00  0.00    +0.420 C 
BRANCH  25  26
ATOM     26  C   LIG    1       14.578   0.797   1.048  0.00  0.00    +0.090 A 
ATOM     27  C   LIG    1       15.716   1.555   1.245  0.00  0.00    -0.010 A 
ATOM     28  C   LIG    1       16.662   1.630   0.233  0.00  0.00    +0.070 A 
ATOM     29  C   LIG    1       16.420   0.946  -0.948  0.00  0.00    -0.020 A 
ATOM     30  C   LIG    1       15.256   0.212  -1.075  0.00  0.00    +0.270 A 
ATOM     31  N   LIG    1       14.381   0.159  -0.089  0.00  0.00    -0.470 NA
ENDBRANCH  25  26
ENDBRANCH  22  25
ENDBRANCH  19  20
ENDBRANCH   2  19
TORSDOF 9
