REMARK  Name = ZINCvU0000000Iuh.0
REMARK                            x       y       z     vdW  Elec       q    Type
REMARK                         _______ _______ _______ _____ _____    ______ ____
ROOT
ATOM      1  N   LIG    1        3.612  -0.642  -0.035  0.00  0.00    -0.480 N 
ATOM      2  C   LIG    1        4.779   0.024  -0.144  0.00  0.00    +0.520 C 
ATOM      3  O   LIG    1        4.787   1.236  -0.138  0.00  0.00    -0.470 OA
ENDROOT
BRANCH   1   4
ATOM      4  C   LIG    1        3.609  -2.027   0.048  0.00  0.00    +0.320 A 
ATOM      5  N   LIG    1        2.550  -2.760   0.066  0.00  0.00    -0.480 NA
ATOM      6  C   LIG    1        2.709  -4.095   0.146  0.00  0.00    +0.110 A 
ATOM      7  C   LIG    1        1.720  -5.102   0.178  0.00  0.00    +0.070 A 
ATOM      8  C   LIG    1        2.077  -6.424   0.268  0.00  0.00    +0.040 A 
ATOM      9  C   LIG    1        3.413  -6.792   0.330  0.00  0.00    +0.040 A 
ATOM     10  C   LIG    1        4.395  -5.827   0.300  0.00  0.00    +0.060 A 
ATOM     11  C   LIG    1        4.052  -4.481   0.209  0.00  0.00    -0.200 A 
ATOM     12  S   LIG    1        5.049  -3.030   0.151  0.00  0.00    +0.100 S 
ENDBRANCH   1   4
BRANCH   1  16
ATOM     13  C   LIG    1        0.018   1.456   0.052  0.00  0.00    -0.160 A 
ATOM     14  C   LIG    1        0.943   1.604   1.093  0.00  0.00    +0.080 A 
ATOM     15  C   LIG    1        2.126   0.911   1.060  0.00  0.00    +0.020 A 
ATOM     16  C   LIG    1        2.407   0.061  -0.006  0.00  0.00    +0.160 A 
ATOM     17  C   LIG    1        1.491  -0.089  -1.043  0.00  0.00    +0.030 A 
ATOM     18  C   LIG    1        0.306   0.600  -1.018  0.00  0.00    +0.090 A 
BRANCH  13  20
ATOM     19  C   LIG    1       -1.555   3.121   1.233  0.00  0.00    +0.090 C 
ATOM     20  C   LIG    1       -1.248   2.200   0.080  0.00  0.00    +0.390 C 
ATOM     21  O   LIG    1       -2.046   2.074  -0.825  0.00  0.00    -0.450 OA
ENDBRANCH  13  20
ENDBRANCH   1  16
BRANCH   2  22
ATOM     22  C   LIG    1        6.072  -0.738  -0.272  0.00  0.00    +0.080 C 
BRANCH  22  23
ATOM     23  C   LIG    1        7.237   0.248  -0.379  0.00  0.00    +0.070 C 
BRANCH  23  24
ATOM     24  C   LIG    1        8.550  -0.526  -0.510  0.00  0.00    +0.300 C 
BRANCH  24  25
ATOM     25  N   LIG    1        9.665   0.419  -0.612  0.00  0.00    -0.530 N 
ATOM     26  C   LIG    1       10.308   0.863   0.480  0.00  0.00    +0.480 A 
ATOM     27  S   LIG    1       11.527   1.935  -0.094  0.00  0.00    +0.010 S 
ATOM     28  C   LIG    1       11.111   1.734  -1.805  0.00  0.00    -0.050 A 
ATOM     29  O   LIG    1       10.075   0.568   1.639  0.00  0.00    -0.470 OA
ATOM     30  C   LIG    1       10.098   0.879  -1.820  0.00  0.00    +0.100 A 
ATOM     31  C   LIG    1        9.452   0.441  -3.110  0.00  0.00    +0.160 C 
ENDBRANCH  24  25
ENDBRANCH  23  24
ENDBRANCH  22  23
ENDBRANCH   2  22
TORSDOF 7
