REMARK  Name = ZINCtV00001bB3Es.0
REMARK                            x       y       z     vdW  Elec       q    Type
REMARK                         _______ _______ _______ _____ _____    ______ ____
ROOT
ATOM      1  C   LIG    1        7.506  -3.638  -0.094  0.00  0.00    -0.120 A 
ATOM      2  C   LIG    1        6.866  -3.386   1.121  0.00  0.00    +0.080 A 
ATOM      3  C   LIG    1        5.584  -2.877   1.130  0.00  0.00    +0.040 A 
ATOM      4  C   LIG    1        4.932  -2.616  -0.062  0.00  0.00    -0.070 A 
ATOM      5  C   LIG    1        5.558  -2.868  -1.270  0.00  0.00    +0.030 A 
ATOM      6  C   LIG    1        6.842  -3.372  -1.293  0.00  0.00    +0.040 A 
ENDROOT
BRANCH   1   9
ATOM      7  N   LIG    1        9.494  -4.425  -1.286  0.00  0.00    -0.590 N 
ATOM      8  H   LIG    1        9.035  -4.241  -2.120  0.00  0.00    +0.380 HD
ATOM      9  C   LIG    1        8.879  -4.183  -0.111  0.00  0.00    +0.580 C 
ATOM     10  O   LIG    1        9.454  -4.414   0.935  0.00  0.00    -0.500 OA
BRANCH   7  12
ATOM     11  C   LIG    1       11.380  -5.172  -2.417  0.00  0.00    +0.100 C 
ATOM     12  N   LIG    1       10.796  -4.942  -1.302  0.00  0.00    -0.240 NA
ATOM     13  C   LIG    1       10.666  -4.885  -3.714  0.00  0.00    +0.080 C 
BRANCH  11  14
ATOM     14  C   LIG    1       12.780  -5.728  -2.435  0.00  0.00    +0.120 C 
BRANCH  14  15
ATOM     15  C   LIG    1       12.765  -7.128  -3.053  0.00  0.00    +0.030 C 
BRANCH  15  16
ATOM     16  C   LIG    1       14.187  -7.692  -3.071  0.00  0.00    +0.010 C 
BRANCH  16  17
ATOM     17  C   LIG    1       14.172  -9.092  -3.689  0.00  0.00    +0.000 C 
BRANCH  17  18
ATOM     18  C   LIG    1       15.594  -9.657  -3.706  0.00  0.00    +0.000 C 
BRANCH  18  20
ATOM     19  C   LIG    1       17.001 -11.621  -4.342  0.00  0.00    +0.000 C 
ATOM     20  C   LIG    1       15.579 -11.056  -4.324  0.00  0.00    -0.010 C 
ENDBRANCH  18  20
ENDBRANCH  17  18
ENDBRANCH  16  17
ENDBRANCH  15  16
ENDBRANCH  14  15
ENDBRANCH  11  14
ENDBRANCH   7  12
ENDBRANCH   1   9
BRANCH   4  21
ATOM     21  C   LIG    1        3.531  -2.060  -0.045  0.00  0.00    +0.260 C 
BRANCH  21  22
ATOM     22  O   LIG    1        3.586  -0.632  -0.037  0.00  0.00    -0.300 OA
BRANCH  22  23
ATOM     23  C   LIG    1        2.399   0.030  -0.021  0.00  0.00    +0.140 A 
ATOM     24  C   LIG    1        1.207  -0.679  -0.014  0.00  0.00    -0.070 A 
ATOM     25  C   LIG    1        0.002  -0.004   0.002  0.00  0.00    +0.080 A 
ATOM     26  C   LIG    1       -0.017   1.379   0.010  0.00  0.00    -0.080 A 
ATOM     27  C   LIG    1        1.171   2.089   0.002  0.00  0.00    -0.030 A 
ATOM     28  C   LIG    1        1.148   3.596   0.010  0.00  0.00    +0.110 C 
ATOM     29 CL   LIG    1       -1.532   2.226   0.021  0.00  0.00    -0.070 Cl
ATOM     30  C   LIG    1        2.378   1.418  -0.013  0.00  0.00    +0.000 A 
ENDBRANCH  22  23
ENDBRANCH  21  22
ENDBRANCH   4  21
TORSDOF 11
