REMARK  Name = ZINCrg00000fR4EO.0
REMARK                            x       y       z     vdW  Elec       q    Type
REMARK                         _______ _______ _______ _____ _____    ______ ____
ROOT
ATOM      1  C   LIG    1       -3.534   1.410   0.764  0.00  0.00    +0.510 C 
ATOM      2  O   LIG    1       -3.597   2.543   1.198  0.00  0.00    -0.490 OA
ENDROOT
BRANCH   1   7
ATOM      3  C   LIG    1       -6.908   0.064   1.714  0.00  0.00    -0.690 A 
ATOM      4  C   LIG    1       -6.832  -1.226   1.219  0.00  0.00    +0.160 A 
ATOM      5  C   LIG    1       -5.686  -1.661   0.576  0.00  0.00    +0.000 A 
ATOM      6  C   LIG    1       -4.614  -0.808   0.419  0.00  0.00    +0.150 A 
ATOM      7  C   LIG    1       -4.681   0.493   0.922  0.00  0.00    -0.150 A 
ATOM      8  C   LIG    1       -5.840   0.925   1.570  0.00  0.00    +0.210 A 
BRANCH   3   9
ATOM      9  S   LIG    1       -8.371   0.607   2.531  0.00  0.00    +2.700 S 
ATOM     10  O   LIG    1       -7.984   1.682   3.376  0.00  0.00    -0.940 OA
ATOM     11  O   LIG    1       -9.021  -0.562   3.010  0.00  0.00    -0.950 OA
BRANCH   9  12
ATOM     12  N   LIG    1       -9.366   1.255   1.376  0.00  0.00    -1.120 NA
ATOM     13  H   LIG    1       -9.584   2.200   1.399  0.00  0.00    +0.430 HD
BRANCH  12  14
ATOM     14  C   LIG    1       -9.917   0.400   0.321  0.00  0.00    +0.430 C 
BRANCH  14  16
ATOM     15  C   LIG    1      -11.909   1.659  -0.882  0.00  0.00    +0.060 C 
ATOM     16  C   LIG    1      -11.025   1.100  -0.348  0.00  0.00    -0.210 C 
ENDBRANCH  14  16
ENDBRANCH  12  14
ENDBRANCH   9  12
ENDBRANCH   3   9
ENDBRANCH   1   7
BRANCH   1  17
ATOM     17  O   LIG    1       -2.417   0.990   0.138  0.00  0.00    -0.320 OA
BRANCH  17  18
ATOM     18  C   LIG    1       -1.330   1.944   0.019  0.00  0.00    +0.200 C 
ATOM     19  C   LIG    1       -1.483   2.732  -1.283  0.00  0.00    +0.080 C 
BRANCH  18  20
ATOM     20  C   LIG    1       -0.014   1.209   0.009  0.00  0.00    +0.530 C 
ATOM     21  N   LIG    1        1.143   1.898   0.001  0.00  0.00    -0.630 N 
ATOM     22  H   LIG    1        1.130   2.868   0.007  0.00  0.00    +0.420 HD
ATOM     23  O   LIG    1        0.002  -0.004   0.002  0.00  0.00    -0.490 OA
BRANCH  21  24
ATOM     24  C   LIG    1        2.361   1.217  -0.014  0.00  0.00    +0.240 A 
ATOM     25  N   LIG    1        3.556   1.747  -0.028  0.00  0.00    -0.380 NA
ATOM     26  O   LIG    1        4.416   0.897  -0.037  0.00  0.00    +0.100 OA
ATOM     27  C   LIG    1        3.895  -0.338  -0.038  0.00  0.00    -0.020 A 
ATOM     28  C   LIG    1        4.658  -1.638  -0.052  0.00  0.00    +0.190 C 
ATOM     29  C   LIG    1        2.550  -0.190  -0.023  0.00  0.00    -0.040 A 
ENDBRANCH  21  24
ENDBRANCH  18  20
ENDBRANCH  17  18
ENDBRANCH   1  17
TORSDOF 9
