REMARK  Name = ZINCrg000000qDR9.0
REMARK                            x       y       z     vdW  Elec       q    Type
REMARK                         _______ _______ _______ _____ _____    ______ ____
ROOT
ATOM      1  N   LIG    1       -0.288   1.272  -2.443  0.00  0.00    -0.660 N 
ATOM      2  H   LIG    1        0.543   0.783  -2.544  0.00  0.00    +0.420 HD
ATOM      3  C   LIG    1       -0.738   1.591  -1.213  0.00  0.00    +0.510 C 
ATOM      4  O   LIG    1       -1.734   2.272  -1.089  0.00  0.00    -0.510 OA
ENDROOT
BRANCH   1  12
ATOM      5  C   LIG    1       -1.046   0.820  -4.698  0.00  0.00    +0.110 A 
ATOM      6  C   LIG    1       -1.778   1.193  -5.814  0.00  0.00    -0.040 A 
ATOM      7  C   LIG    1       -2.474   2.389  -5.817  0.00  0.00    -0.010 A 
ATOM      8  C   LIG    1       -2.446   3.212  -4.706  0.00  0.00    -0.090 A 
ATOM      9  C   LIG    1       -1.723   2.844  -3.587  0.00  0.00    +0.090 A 
ATOM     10  C   LIG    1       -3.206   4.514  -4.715  0.00  0.00    +0.100 C 
ATOM     11 CL   LIG    1       -3.384   2.857  -7.220  0.00  0.00    -0.060 Cl
ATOM     12  C   LIG    1       -1.023   1.647  -3.577  0.00  0.00    +0.130 A 
BRANCH   5  14
ATOM     13  C   LIG    1       -0.427  -1.148  -5.880  0.00  0.00    +0.260 C 
ATOM     14  O   LIG    1       -0.357  -0.352  -4.695  0.00  0.00    -0.310 OA
ENDBRANCH   5  14
ENDBRANCH   1  12
BRANCH   3  15
ATOM     15  C   LIG    1       -0.003   1.103   0.008  0.00  0.00    +0.380 C 
BRANCH  15  16
ATOM     16  N   LIG    1       -0.685   1.580   1.213  0.00  0.00    -0.530 N 
ATOM     17  C   LIG    1       -1.656   0.827   1.770  0.00  0.00    +0.600 A 
ATOM     18  C   LIG    1       -2.310   1.293   2.931  0.00  0.00    -0.150 A 
ATOM     19  C   LIG    1       -1.937   2.516   3.472  0.00  0.00    +0.320 A 
ATOM     20  N   LIG    1       -0.933   3.243   2.854  0.00  0.00    -0.510 N 
ATOM     21  C   LIG    1       -0.521   4.537   3.405  0.00  0.00    +0.340 C 
ATOM     22  N   LIG    1       -2.699   2.720   4.551  0.00  0.00    -0.500 NA
ATOM     23  C   LIG    1       -3.515   1.711   4.714  0.00  0.00    +0.500 A 
ATOM     24  N   LIG    1       -3.315   0.802   3.740  0.00  0.00    -0.410 N 
ATOM     25  C   LIG    1       -4.028  -0.467   3.572  0.00  0.00    +0.360 C 
ATOM     26  O   LIG    1       -1.965  -0.243   1.276  0.00  0.00    -0.510 OA
ATOM     27  C   LIG    1       -0.331   2.760   1.751  0.00  0.00    +0.720 A 
ATOM     28  O   LIG    1        0.552   3.410   1.225  0.00  0.00    -0.530 OA
ENDBRANCH  15  16
ENDBRANCH   3  15
TORSDOF 4
