REMARK  Name = ZINCpe000000YQAH.0
REMARK                            x       y       z     vdW  Elec       q    Type
REMARK                         _______ _______ _______ _____ _____    ______ ____
ROOT
ATOM      1  O   LIG    1        0.079  -4.818  -1.526  0.00  0.00    -0.540 OA
ATOM      2  C   LIG    1        0.079  -4.218  -2.580  0.00  0.00    +0.520 C 
ATOM      3  N   LIG    1        0.097  -4.900  -3.743  0.00  0.00    -0.620 N 
ATOM      4  C   LIG    1        0.091  -4.193  -5.032  0.00  0.00    +0.300 C 
ATOM      5  C   LIG    1        1.244  -4.742  -5.888  0.00  0.00    +0.210 C 
ATOM      6  N   LIG    1        1.125  -6.203  -5.981  0.00  0.00    -0.460 N 
ATOM      7  C   LIG    1        1.263  -6.834  -4.662  0.00  0.00    +0.220 C 
ATOM      8  C   LIG    1        0.117  -6.370  -3.756  0.00  0.00    +0.290 C 
ENDROOT
BRANCH   6   9
ATOM      9  C   LIG    1        2.045  -6.719  -6.876  0.00  0.00    +0.490 A 
ATOM     10  N   LIG    1        2.890  -7.655  -6.468  0.00  0.00    -0.550 NA
ATOM     11  C   LIG    1        3.779  -8.173  -7.300  0.00  0.00    +0.340 A 
ATOM     12  C   LIG    1        3.826  -7.719  -8.608  0.00  0.00    -0.110 A 
ATOM     13  C   LIG    1        2.931  -6.735  -9.001  0.00  0.00    +0.350 A 
ATOM     14  N   LIG    1        2.064  -6.263  -8.120  0.00  0.00    -0.530 NA
ENDBRANCH   6   9
BRANCH   2  15
ATOM     15  C   LIG    1        0.059  -2.712  -2.590  0.00  0.00    +0.070 C 
BRANCH  15  16
ATOM     16  C   LIG    1        0.041  -2.192  -1.151  0.00  0.00    +0.090 C 
BRANCH  16  17
ATOM     17  C   LIG    1        0.020  -0.685  -1.161  0.00  0.00    +0.530 C 
ATOM     18  N   LIG    1        0.002  -0.004   0.002  0.00  0.00    -0.470 N 
ATOM     19  C   LIG    1       -0.017   1.432   0.010  0.00  0.00    +0.280 C 
ATOM     20  C   LIG    1        1.376   2.102   0.000  0.00  0.00    +0.010 C 
ATOM     21  C   LIG    1        2.329   1.316   0.936  0.00  0.00    +0.000 C 
ATOM     22  C   LIG    1        1.618   0.854   2.179  0.00  0.00    +0.000 C 
ATOM     23  C   LIG    1        1.194  -0.593   1.919  0.00  0.00    +0.190 C 
ATOM     24  O   LIG    1        0.002  -0.704   1.268  0.00  0.00    -0.130 OA
ATOM     25  O   LIG    1        0.020  -0.086  -2.215  0.00  0.00    -0.520 OA
ENDBRANCH  16  17
ENDBRANCH  15  16
ENDBRANCH   2  15
TORSDOF 4
