REMARK  Name = ZINCvU0000000BAM.0
REMARK                            x       y       z     vdW  Elec       q    Type
REMARK                         _______ _______ _______ _____ _____    ______ ____
ROOT
ATOM      1  C   LIG    1        5.855   0.592  -0.594  0.00  0.00    +0.590 C 
ATOM      2  N   LIG    1        6.544   1.750  -0.588  0.00  0.00    -0.730 N 
ATOM      3  H   LIG    1        6.076   2.592  -0.466  0.00  0.00    +0.400 HD
ATOM      4  O   LIG    1        6.442  -0.463  -0.747  0.00  0.00    -0.510 OA
ENDROOT
BRANCH   1  11
ATOM      5  C   LIG    1       -0.121  -0.017   0.095  0.00  0.00    +0.100 A 
ATOM      6  C   LIG    1       -0.083   1.376   0.198  0.00  0.00    +0.090 A 
ATOM      7  C   LIG    1        1.120   2.054   0.102  0.00  0.00    +0.100 A 
ATOM      8  C   LIG    1        2.304   1.345  -0.099  0.00  0.00    +0.080 A 
ATOM      9  N   LIG    1        3.620   1.731  -0.231  0.00  0.00    -0.570 N 
ATOM     10  H   LIG    1        3.948   2.644  -0.200  0.00  0.00    +0.420 HD
ATOM     11  C   LIG    1        4.397   0.602  -0.414  0.00  0.00    +0.020 A 
ATOM     12  C   LIG    1        3.596  -0.496  -0.401  0.00  0.00    +0.060 A 
ATOM     13  C   LIG    1        2.265  -0.059  -0.203  0.00  0.00    -0.070 A 
ATOM     14  C   LIG    1        1.038  -0.732  -0.103  0.00  0.00    -0.010 A 
BRANCH   5  16
ATOM     15  C   LIG    1       -1.281  -2.094   0.077  0.00  0.00    +0.240 C 
ATOM     16  O   LIG    1       -1.311  -0.670   0.191  0.00  0.00    -0.300 OA
ENDBRANCH   5  16
BRANCH   7  17
ATOM     17  O   LIG    1        1.148   3.411   0.203  0.00  0.00    -0.330 OA
ATOM     18  C   LIG    1        1.073   4.154  -1.015  0.00  0.00    +0.230 C 
ENDBRANCH   7  17
BRANCH   6  19
ATOM     19  O   LIG    1       -1.236   2.071   0.388  0.00  0.00    -0.320 OA
ATOM     20  C   LIG    1       -1.647   2.290   1.740  0.00  0.00    +0.240 C 
ENDBRANCH   6  19
ENDBRANCH   1  11
BRANCH   2  21
ATOM     21  C   LIG    1        7.998   1.740  -0.767  0.00  0.00    +0.400 C 
BRANCH  21  22
ATOM     22  C   LIG    1        8.520   3.153  -0.722  0.00  0.00    -0.040 A 
ATOM     23  C   LIG    1        8.925   3.805   0.385  0.00  0.00    -0.010 A 
ATOM     24  C   LIG    1        9.333   5.092  -0.021  0.00  0.00    -0.030 A 
ATOM     25  C   LIG    1        9.153   5.154  -1.367  0.00  0.00    +0.040 A 
ATOM     26  O   LIG    1        8.664   3.968  -1.779  0.00  0.00    -0.160 OA
BRANCH  25  27
ATOM     27  C   LIG    1        9.449   6.317  -2.229  0.00  0.00    -0.020 A 
ATOM     28  C   LIG    1        9.956   7.492  -1.671  0.00  0.00    +0.060 A 
ATOM     29  C   LIG    1       10.234   8.573  -2.481  0.00  0.00    +0.030 A 
ATOM     30  C   LIG    1       10.002   8.498  -3.844  0.00  0.00    -0.030 A 
ATOM     31  C   LIG    1        9.494   7.338  -4.403  0.00  0.00    +0.030 A 
ATOM     32 CL   LIG    1       10.348   9.865  -4.856  0.00  0.00    -0.060 Cl
ATOM     33  C   LIG    1        9.216   6.248  -3.603  0.00  0.00    +0.050 A 
ENDBRANCH  25  27
ENDBRANCH  21  22
ENDBRANCH   2  21
TORSDOF 7
