REMARK  Name = ZINCrH00000No4AP.0
REMARK                            x       y       z     vdW  Elec       q    Type
REMARK                         _______ _______ _______ _____ _____    ______ ____
ROOT
ATOM      1  N   LIG    1        1.247  -4.344  -0.034  0.00  0.00    -0.350 NA
ATOM      2  C   LIG    1        0.432  -5.378  -0.031  0.00  0.00    +0.370 C 
ENDROOT
BRANCH   1  15
ATOM      3  O   LIG    1        3.765  -3.121  -0.051  0.00  0.00    -0.460 OA
ATOM      4  C   LIG    1        3.061  -2.128  -0.039  0.00  0.00    +0.540 C 
ATOM      5  N   LIG    1        3.491  -0.855  -0.036  0.00  0.00    -0.650 N 
ATOM      6  H   LIG    1        4.425  -0.593  -0.044  0.00  0.00    +0.420 HD
ATOM      7  C   LIG    1        2.426   0.039  -0.021  0.00  0.00    +0.190 A 
ATOM      8  C   LIG    1        2.386   1.428  -0.013  0.00  0.00    +0.010 A 
ATOM      9  C   LIG    1        1.173   2.087   0.002  0.00  0.00    +0.120 A 
ATOM     10  C   LIG    1       -0.017   1.377   0.010  0.00  0.00    -0.120 A 
ATOM     11  C   LIG    1        0.002  -0.004   0.002  0.00  0.00    +0.150 A 
ATOM     12 BR   LIG    1       -1.667   2.299   0.022  0.00  0.00    -0.030 Br
ATOM     13  C   LIG    1        1.220  -0.677  -0.013  0.00  0.00    -0.120 A 
ATOM     14  C   LIG    1        1.585  -2.110  -0.025  0.00  0.00    +0.170 C 
ATOM     15  N   LIG    1        0.769  -3.146  -0.022  0.00  0.00    -0.260 NA
ENDBRANCH   1  15
BRANCH   2  16
ATOM     16  C   LIG    1        0.975  -6.737  -0.044  0.00  0.00    -0.100 A 
ATOM     17  C   LIG    1        0.112  -7.843  -0.035  0.00  0.00    +0.190 A 
ATOM     18  C   LIG    1        0.632  -9.117  -0.053  0.00  0.00    -0.080 A 
ATOM     19  C   LIG    1        2.004  -9.315  -0.068  0.00  0.00    +0.180 A 
ATOM     20  C   LIG    1        2.868  -8.236  -0.071  0.00  0.00    -0.040 A 
ATOM     21  C   LIG    1        2.368  -6.944  -0.059  0.00  0.00    +0.210 A 
BRANCH  18  22
ATOM     22  N   LIG    1       -0.280 -10.284  -0.049  0.00  0.00    +0.030 N 
ATOM     23  O   LIG    1       -1.486 -10.114  -0.035  0.00  0.00    -0.150 OA
ATOM     24  O   LIG    1        0.176 -11.413  -0.059  0.00  0.00    -0.150 OA
ENDBRANCH  18  22
BRANCH  21  25
ATOM     25  O   LIG    1        3.215  -5.885  -0.063  0.00  0.00    -0.250 OA
BRANCH  25  26
ATOM     26  C   LIG    1        4.614  -6.174  -0.079  0.00  0.00    +0.600 C 
ATOM     27  F   LIG    1        4.926  -6.909  -1.228  0.00  0.00    -0.200 F 
ATOM     28  F   LIG    1        4.949  -6.919   1.056  0.00  0.00    -0.200 F 
ENDBRANCH  25  26
ENDBRANCH  21  25
ENDBRANCH   2  16
TORSDOF 5
