REMARK  Name = ZINCtV00001bB3Cx.0
REMARK                            x       y       z     vdW  Elec       q    Type
REMARK                         _______ _______ _______ _____ _____    ______ ____
ROOT
ATOM      1  C   LIG    1       -8.140   3.900  -0.151  0.00  0.00    +0.130 C 
ATOM      2  C   LIG    1       -6.800   4.591  -0.117  0.00  0.00    +0.010 A 
ATOM      3  C   LIG    1       -5.610   3.975  -0.027  0.00  0.00    +0.040 A 
ATOM      4  C   LIG    1       -4.590   5.033  -0.027  0.00  0.00    -0.190 A 
ATOM      5  C   LIG    1       -5.282   6.228  -0.114  0.00  0.00    +0.080 A 
ATOM      6  C   LIG    1       -4.670   7.605  -0.143  0.00  0.00    +0.140 C 
ATOM      7  N   LIG    1       -6.605   5.943  -0.172  0.00  0.00    -0.390 N 
ENDROOT
BRANCH   4   8
ATOM      8  C   LIG    1       -3.140   4.858   0.055  0.00  0.00    +0.240 C 
ATOM      9  C   LIG    1       -2.611   3.837   0.814  0.00  0.00    -0.200 C 
ATOM     10  C   LIG    1       -3.331   2.933   1.722  0.00  0.00    +0.560 C 
ATOM     11  N   LIG    1       -2.437   2.086   2.259  0.00  0.00    -0.660 N 
ATOM     12  H   LIG    1       -2.659   1.387   2.894  0.00  0.00    +0.420 HD
ATOM     13  C   LIG    1       -1.154   2.335   1.785  0.00  0.00    +0.150 A 
ATOM     14  C   LIG    1        0.068   1.731   2.060  0.00  0.00    +0.010 A 
ATOM     15  C   LIG    1        1.219   2.185   1.448  0.00  0.00    +0.060 A 
ATOM     16  C   LIG    1        1.173   3.247   0.559  0.00  0.00    -0.060 A 
ATOM     17  C   LIG    1       -0.031   3.863   0.278  0.00  0.00    +0.080 A 
ATOM     18 CL   LIG    1        2.631   3.803  -0.202  0.00  0.00    -0.070 Cl
ATOM     19  O   LIG    1       -4.528   2.948   1.947  0.00  0.00    -0.490 OA
ATOM     20  C   LIG    1       -1.195   3.413   0.890  0.00  0.00    -0.080 A 
ENDBRANCH   4   8
BRANCH   7  21
ATOM     21  C   LIG    1       -7.625   6.895  -0.270  0.00  0.00    +0.110 A 
ATOM     22  C   LIG    1       -8.191   7.425   0.868  0.00  0.00    +0.040 A 
ATOM     23  C   LIG    1       -9.207   8.374   0.782  0.00  0.00    +0.020 A 
ATOM     24  C   LIG    1       -9.668   8.803  -0.425  0.00  0.00    +0.050 A 
ATOM     25  C   LIG    1       -9.116   8.286  -1.610  0.00  0.00    -0.050 A 
ATOM     26  C   LIG    1       -9.572   8.710  -2.870  0.00  0.00    +0.030 A 
ATOM     27  C   LIG    1       -9.016   8.189  -3.998  0.00  0.00    +0.020 A 
ATOM     28  C   LIG    1       -8.000   7.240  -3.923  0.00  0.00    +0.020 A 
ATOM     29  C   LIG    1       -7.533   6.806  -2.720  0.00  0.00    +0.030 A 
ATOM     30  C   LIG    1       -8.078   7.325  -1.535  0.00  0.00    -0.040 A 
ENDBRANCH   7  21
TORSDOF 2
