REMARK  Name = ZINCrD0000074oVY.0
REMARK                            x       y       z     vdW  Elec       q    Type
REMARK                         _______ _______ _______ _____ _____    ______ ____
ROOT
ATOM      1  C   LIG    1        5.817   5.308  -0.026  0.00  0.00    +0.130 C 
ATOM      2  C   LIG    1        4.314   5.193  -0.012  0.00  0.00    +0.020 A 
ATOM      3  C   LIG    1        3.621   4.042  -0.011  0.00  0.00    +0.000 A 
ATOM      4  C   LIG    1        2.200   4.414   0.005  0.00  0.00    -0.260 A 
ATOM      5  C   LIG    1        2.169   5.796   0.007  0.00  0.00    +0.130 A 
ATOM      6  C   LIG    1        0.930   6.653   0.017  0.00  0.00    +0.150 C 
ATOM      7  N   LIG    1        3.439   6.243   0.002  0.00  0.00    -0.390 N 
ENDROOT
BRANCH   7   8
ATOM      8  C   LIG    1        3.812   7.596   0.004  0.00  0.00    +0.110 A 
ATOM      9  C   LIG    1        3.496   8.405  -1.078  0.00  0.00    +0.040 A 
ATOM     10  C   LIG    1        3.863   9.737  -1.077  0.00  0.00    +0.050 A 
ATOM     11  C   LIG    1        4.549  10.269   0.005  0.00  0.00    +0.070 A 
ATOM     12  O   LIG    1        4.909  11.582  -0.015  0.00  0.00    -0.300 OA
ATOM     13  C   LIG    1        5.266  12.171   1.241  0.00  0.00    +0.230 C 
ATOM     14  C   LIG    1        6.215  11.210   1.970  0.00  0.00    +0.230 C 
ATOM     15  O   LIG    1        5.533   9.967   2.164  0.00  0.00    -0.300 OA
ATOM     16  C   LIG    1        4.865   9.461   1.092  0.00  0.00    +0.070 A 
ATOM     17  C   LIG    1        4.492   8.127   1.091  0.00  0.00    +0.040 A 
ENDBRANCH   7   8
BRANCH   4  18
ATOM     18  C   LIG    1        1.051   3.506   0.011  0.00  0.00    +0.430 C 
ATOM     19  O   LIG    1       -0.077   3.954   0.024  0.00  0.00    -0.450 OA
BRANCH  18  20
ATOM     20  C   LIG    1        1.268   2.015   0.001  0.00  0.00    +0.230 C 
BRANCH  20  21
ATOM     21  O   LIG    1       -0.016   1.338   0.009  0.00  0.00    -0.340 OA
BRANCH  21  22
ATOM     22  C   LIG    1        0.002  -0.004   0.002  0.00  0.00    +0.470 C 
ATOM     23  O   LIG    1        1.056  -0.594  -0.011  0.00  0.00    -0.510 OA
BRANCH  22  24
ATOM     24  C   LIG    1       -1.293  -0.775   0.010  0.00  0.00    +0.020 C 
ATOM     25  C   LIG    1       -1.923  -0.906   1.407  0.00  0.00    +0.050 C 
ATOM     26  C   LIG    1       -2.282  -2.353   1.022  0.00  0.00    +0.030 C 
ATOM     27  C   LIG    1       -1.101  -2.301   0.038  0.00  0.00    +0.060 C 
ENDBRANCH  22  24
ENDBRANCH  21  22
ENDBRANCH  20  21
ENDBRANCH  18  20
ENDBRANCH   4  18
TORSDOF 6
