REMARK  Name = ZINCrH000004o7p4.0
REMARK                            x       y       z     vdW  Elec       q    Type
REMARK                         _______ _______ _______ _____ _____    ______ ____
ROOT
ATOM      1  C   LIG    1        2.445   0.914  -0.007  0.00  0.00    +0.510 C 
ATOM      2  N   LIG    1        3.602   1.605  -0.028  0.00  0.00    -0.640 N 
ATOM      3  H   LIG    1        3.588   2.572  -0.106  0.00  0.00    +0.430 HD
ATOM      4  O   LIG    1        2.464  -0.300   0.010  0.00  0.00    -0.500 OA
ENDROOT
BRANCH   2   5
ATOM      5  C   LIG    1        4.823   0.929   0.064  0.00  0.00    +0.140 A 
ATOM      6  C   LIG    1        5.889   1.508   0.740  0.00  0.00    +0.020 A 
ATOM      7  C   LIG    1        7.092   0.837   0.833  0.00  0.00    +0.040 A 
ATOM      8  C   LIG    1        7.240  -0.410   0.243  0.00  0.00    +0.070 A 
ATOM      9  C   LIG    1        6.176  -0.987  -0.436  0.00  0.00    +0.030 A 
ATOM     10  C   LIG    1        4.971  -0.320  -0.527  0.00  0.00    +0.050 A 
BRANCH   8  11
ATOM     11  O   LIG    1        8.427  -1.067   0.331  0.00  0.00    -0.250 OA
BRANCH  11  12
ATOM     12  C   LIG    1        9.221  -1.098  -0.769  0.00  0.00    +0.160 A 
ATOM     13  C   LIG    1        8.785  -0.566  -1.980  0.00  0.00    -0.110 A 
ATOM     14  C   LIG    1        9.624  -0.611  -3.074  0.00  0.00    +0.300 A 
ATOM     15  N   LIG    1       10.822  -1.159  -2.985  0.00  0.00    -0.510 NA
ATOM     16  C   LIG    1       11.268  -1.678  -1.857  0.00  0.00    +0.300 A 
ATOM     17  C   LIG    1       10.491  -1.667  -0.717  0.00  0.00    -0.050 A 
ENDBRANCH  11  12
ENDBRANCH   8  11
ENDBRANCH   2   5
BRANCH   1  20
ATOM     18  N   LIG    1       -0.016   0.950   0.016  0.00  0.00    -0.700 N 
ATOM     19  H   LIG    1       -0.001  -0.020   0.030  0.00  0.00    +0.410 HD
ATOM     20  C   LIG    1        1.141   1.641  -0.005  0.00  0.00    +0.510 C 
ATOM     21  O   LIG    1        1.123   2.854  -0.022  0.00  0.00    -0.510 OA
BRANCH  18  22
ATOM     22  C   LIG    1       -1.296   1.663   0.012  0.00  0.00    +0.280 C 
BRANCH  22  24
ATOM     23  C   LIG    1       -2.429  -0.162  -1.265  0.00  0.00    +0.040 C 
ATOM     24  C   LIG    1       -2.443   0.651   0.031  0.00  0.00    +0.050 C 
BRANCH  24  25
ATOM     25  C   LIG    1       -3.755   1.383   0.151  0.00  0.00    -0.100 A 
ATOM     26  C   LIG    1       -4.167   2.271  -0.755  0.00  0.00    -0.050 A 
ATOM     27  S   LIG    1       -5.734   2.914  -0.282  0.00  0.00    +0.110 S 
ATOM     28  C   LIG    1       -5.743   1.910   1.162  0.00  0.00    -0.040 A 
ATOM     29  C   LIG    1       -4.628   1.179   1.206  0.00  0.00    +0.010 A 
ENDBRANCH  24  25
ENDBRANCH  22  24
ENDBRANCH  18  22
ENDBRANCH   1  20
TORSDOF 7
