REMARK  Name = ZINCkj000005llEs.0
REMARK                            x       y       z     vdW  Elec       q    Type
REMARK                         _______ _______ _______ _____ _____    ______ ____
ROOT
ATOM      1  S   LIG    1       -0.072   1.562   2.879  0.00  0.00    +2.710 S 
ATOM      2  O   LIG    1        1.120   0.858   2.557  0.00  0.00    -0.930 OA
ATOM      3  O   LIG    1       -1.006   1.106   3.847  0.00  0.00    -0.950 OA
ENDROOT
BRANCH   1   4
ATOM      4  C   LIG    1        0.425   3.174   3.387  0.00  0.00    -0.670 A 
ATOM      5  C   LIG    1       -0.124   3.742   4.495  0.00  0.00    +0.160 A 
ATOM      6  C   LIG    1        0.258   5.017   4.910  0.00  0.00    +0.010 A 
ATOM      7  C   LIG    1        1.189   5.730   4.221  0.00  0.00    +0.140 A 
ATOM      8  C   LIG    1        1.780   5.177   3.070  0.00  0.00    +0.110 A 
ATOM      9  N   LIG    1        2.697   5.854   2.373  0.00  0.00    -0.460 NA
ATOM     10  C   LIG    1        3.250   5.344   1.299  0.00  0.00    +0.300 A 
ATOM     11  C   LIG    1        2.912   4.075   0.833  0.00  0.00    +0.010 A 
ATOM     12  C   LIG    1        1.981   3.330   1.499  0.00  0.00    +0.040 A 
ATOM     13  C   LIG    1        1.394   3.879   2.654  0.00  0.00    -0.020 A 
ENDBRANCH   1   4
BRANCH   1  18
ATOM     14  C   LIG    1       -2.333   2.097   1.341  0.00  0.00    +0.230 C 
ATOM     15  C   LIG    1       -2.665   2.160  -0.165  0.00  0.00    +0.040 C 
ATOM     16  C   LIG    1       -1.275   2.380  -0.818  0.00  0.00    +0.060 C 
ATOM     17  C   LIG    1       -0.360   1.541   0.108  0.00  0.00    +0.280 C 
ATOM     18  N   LIG    1       -0.911   1.731   1.462  0.00  0.00    -1.000 NA
BRANCH  14  19
ATOM     19  C   LIG    1       -3.202   1.038   2.022  0.00  0.00    +0.250 C 
BRANCH  19  20
ATOM     20  N   LIG    1       -4.609   1.458   1.980  0.00  0.00    -0.630 N 
ATOM     21  H   LIG    1       -4.695   2.385   2.370  0.00  0.00    +0.440 HD
ATOM     22  H   LIG    1       -5.169   0.814   2.519  0.00  0.00    +0.440 HD
ATOM     23  H   LIG    1       -4.930   1.465   1.024  0.00  0.00    +0.430 HD
ENDBRANCH  19  20
ENDBRANCH  14  19
ENDBRANCH   1  18
TORSDOF 4
