REMARK  Name = ZINCrD000000Apv4.0
REMARK                            x       y       z     vdW  Elec       q    Type
REMARK                         _______ _______ _______ _____ _____    ______ ____
ROOT
ATOM      1  O   LIG    1       -2.259   7.128   1.169  0.00  0.00    -0.500 OA
ATOM      2  C   LIG    1       -1.979   6.079   0.630  0.00  0.00    +0.510 C 
ATOM      3  N   LIG    1       -2.945   5.343   0.045  0.00  0.00    -0.670 N 
ATOM      4  H   LIG    1       -2.712   4.538  -0.444  0.00  0.00    +0.420 HD
ENDROOT
BRANCH   3   5
ATOM      5  C   LIG    1       -4.283   5.739   0.144  0.00  0.00    +0.200 A 
ATOM      6  C   LIG    1       -5.287   4.784   0.233  0.00  0.00    -0.020 A 
ATOM      7  C   LIG    1       -6.606   5.178   0.336  0.00  0.00    +0.150 A 
ATOM      8  C   LIG    1       -6.929   6.523   0.339  0.00  0.00    -0.690 A 
ATOM      9  C   LIG    1       -5.933   7.476   0.244  0.00  0.00    +0.140 A 
ATOM     10  C   LIG    1       -4.611   7.089   0.147  0.00  0.00    +0.010 A 
BRANCH   8  11
ATOM     11  S   LIG    1       -8.615   7.022   0.463  0.00  0.00    +2.710 S 
ATOM     12  O   LIG    1       -8.605   8.343   0.985  0.00  0.00    -0.950 OA
ATOM     13  O   LIG    1       -9.307   5.946   1.082  0.00  0.00    -0.950 OA
BRANCH  11  14
ATOM     14  N   LIG    1       -9.207   7.134  -1.080  0.00  0.00    -1.010 NA
ATOM     15  C   LIG    1       -9.184   8.339  -1.921  0.00  0.00    +0.270 C 
ATOM     16  C   LIG    1       -9.865   7.977  -3.258  0.00  0.00    +0.030 C 
ATOM     17  C   LIG    1      -10.745   6.757  -2.879  0.00  0.00    +0.030 C 
ATOM     18  C   LIG    1       -9.852   6.043  -1.834  0.00  0.00    +0.270 C 
ENDBRANCH  11  14
ENDBRANCH   8  11
ENDBRANCH   3   5
BRANCH   2  19
ATOM     19  C   LIG    1       -0.551   5.598   0.613  0.00  0.00    +0.310 C 
BRANCH  19  20
ATOM     20  N   LIG    1        0.299   6.568   1.308  0.00  0.00    -0.730 N 
ATOM     21  H   LIG    1       -0.092   7.370   1.689  0.00  0.00    +0.420 HD
BRANCH  20  22
ATOM     22  C   LIG    1        1.674   6.338   1.422  0.00  0.00    +0.190 A 
ATOM     23  C   LIG    1        2.234   5.188   0.882  0.00  0.00    -0.030 A 
ATOM     24  C   LIG    1        3.592   4.960   1.001  0.00  0.00    +0.070 A 
ATOM     25  C   LIG    1        4.394   5.876   1.657  0.00  0.00    -0.070 A 
ATOM     26  C   LIG    1        3.840   7.024   2.198  0.00  0.00    +0.050 A 
ATOM     27 CL   LIG    1        6.099   5.586   1.804  0.00  0.00    -0.060 Cl
ATOM     28  C   LIG    1        2.483   7.258   2.082  0.00  0.00    +0.040 A 
ATOM     29  F   LIG    1        1.942   8.378   2.609  0.00  0.00    -0.130 F 
ENDBRANCH  20  22
ENDBRANCH  19  20
ENDBRANCH   2  19
TORSDOF 6
