REMARK  Name = ZINCpk0000059Vlp.1
REMARK                            x       y       z     vdW  Elec       q    Type
REMARK                         _______ _______ _______ _____ _____    ______ ____
ROOT
ATOM      1  N   LIG    1        0.397   8.372   0.734  0.00  0.00    -0.530 NA
ATOM      2  C   LIG    1        1.828   8.065   0.867  0.00  0.00    +0.190 C 
ATOM      3  C   LIG    1        2.226   7.034  -0.195  0.00  0.00    +0.320 C 
ATOM      4  N   LIG    1        1.328   5.875  -0.081  0.00  0.00    -0.600 N 
ATOM      5  C   LIG    1       -0.123   6.117  -0.074  0.00  0.00    +0.290 C 
ATOM      6  C   LIG    1        1.821   4.624   0.009  0.00  0.00    +0.600 C 
ATOM      7  O   LIG    1        3.022   4.448   0.100  0.00  0.00    -0.520 OA
ATOM      8  C   LIG    1       -0.428   7.184   0.989  0.00  0.00    +0.190 C 
ENDROOT
BRANCH   6   9
ATOM      9  C   LIG    1        0.912   3.476  -0.001  0.00  0.00    -0.020 A 
ATOM     10  C   LIG    1        0.189   2.987  -1.097  0.00  0.00    -0.120 A 
ATOM     11  C   LIG    1        0.041   3.327  -2.448  0.00  0.00    +0.050 A 
ATOM     12  C   LIG    1       -0.785   2.589  -3.238  0.00  0.00    +0.010 A 
ATOM     13  C   LIG    1       -1.492   1.496  -2.735  0.00  0.00    +0.030 A 
ATOM     14  C   LIG    1       -1.393   1.115  -1.435  0.00  0.00    +0.060 A 
ATOM     15  C   LIG    1       -0.554   1.836  -0.562  0.00  0.00    +0.060 A 
ATOM     16  N   LIG    1       -0.233   1.753   0.717  0.00  0.00    -0.270 NA
ATOM     17  N   LIG    1        0.601   2.671   1.052  0.00  0.00    -0.310 N 
ATOM     18  H   LIG    1        0.961   2.779   1.946  0.00  0.00    +0.450 HD
ENDBRANCH   6   9
BRANCH   1  19
ATOM     19  C   LIG    1        0.013   9.480   1.618  0.00  0.00    +0.360 C 
BRANCH  19  23
ATOM     20  C   LIG    1       -3.488  10.159   1.206  0.00  0.00    +0.170 A 
ATOM     21  N   LIG    1       -2.937  10.985   0.368  0.00  0.00    -0.380 NA
ATOM     22  O   LIG    1       -1.730  10.872   0.400  0.00  0.00    +0.090 OA
ATOM     23  C   LIG    1       -1.386   9.928   1.282  0.00  0.00    +0.190 A 
ATOM     24  N   LIG    1       -2.499   9.471   1.804  0.00  0.00    -0.480 NA
BRANCH  20  26
ATOM     25  C   LIG    1       -5.392  10.952   2.584  0.00  0.00    +0.040 C 
ATOM     26  C   LIG    1       -4.965  10.003   1.463  0.00  0.00    +0.160 C 
ENDBRANCH  20  26
ENDBRANCH  19  23
ENDBRANCH   1  19
TORSDOF 4
