REMARK  Name = ZINCpk0000059Vlp.0
REMARK                            x       y       z     vdW  Elec       q    Type
REMARK                         _______ _______ _______ _____ _____    ______ ____
ROOT
ATOM      1  N   LIG    1       -1.264  -3.756   1.751  0.00  0.00    -0.540 NA
ATOM      2  C   LIG    1       -1.943  -2.793   2.630  0.00  0.00    +0.180 C 
ATOM      3  C   LIG    1       -3.429  -3.152   2.724  0.00  0.00    +0.300 C 
ATOM      4  N   LIG    1       -3.545  -4.560   3.136  0.00  0.00    -0.600 N 
ATOM      5  C   LIG    1       -2.783  -5.569   2.386  0.00  0.00    +0.300 C 
ATOM      6  C   LIG    1       -4.329  -4.915   4.173  0.00  0.00    +0.610 C 
ATOM      7  O   LIG    1       -4.473  -6.089   4.452  0.00  0.00    -0.530 OA
ATOM      8  C   LIG    1       -1.321  -5.115   2.305  0.00  0.00    +0.190 C 
ENDROOT
BRANCH   6   9
ATOM      9  C   LIG    1       -5.010  -3.879   4.971  0.00  0.00    +0.010 A 
ATOM     10  N   LIG    1       -5.041  -2.587   4.723  0.00  0.00    -0.210 NA
ATOM     11  N   LIG    1       -5.718  -1.945   5.605  0.00  0.00    -0.420 N 
ATOM     12  H   LIG    1       -5.858  -0.985   5.596  0.00  0.00    +0.450 HD
ATOM     13  C   LIG    1       -6.220  -2.792   6.559  0.00  0.00    +0.070 A 
ATOM     14  C   LIG    1       -6.998  -2.628   7.700  0.00  0.00    +0.010 A 
ATOM     15  C   LIG    1       -7.334  -3.727   8.460  0.00  0.00    +0.050 A 
ATOM     16  C   LIG    1       -6.905  -4.997   8.098  0.00  0.00    -0.010 A 
ATOM     17  C   LIG    1       -6.140  -5.180   6.980  0.00  0.00    +0.100 A 
ATOM     18  C   LIG    1       -5.794  -4.084   6.195  0.00  0.00    -0.110 A 
ENDBRANCH   6   9
BRANCH   1  19
ATOM     19  C   LIG    1        0.124  -3.349   1.497  0.00  0.00    +0.360 C 
BRANCH  19  23
ATOM     20  C   LIG    1        0.151  -0.028   0.134  0.00  0.00    +0.170 A 
ATOM     21  N   LIG    1        0.142  -0.773  -0.930  0.00  0.00    -0.380 NA
ATOM     22  O   LIG    1        0.138  -1.946  -0.621  0.00  0.00    +0.090 OA
ATOM     23  C   LIG    1        0.135  -2.064   0.710  0.00  0.00    +0.190 A 
ATOM     24  N   LIG    1        0.143  -0.848   1.200  0.00  0.00    -0.480 NA
BRANCH  20  26
ATOM     25  C   LIG    1        1.609   1.978   0.182  0.00  0.00    +0.040 C 
ATOM     26  C   LIG    1        0.163   1.479   0.168  0.00  0.00    +0.160 C 
ENDBRANCH  20  26
ENDBRANCH  19  23
ENDBRANCH   1  19
TORSDOF 4
