REMARK  Name = ZINCrD000000BDnl.0
REMARK                            x       y       z     vdW  Elec       q    Type
REMARK                         _______ _______ _______ _____ _____    ______ ____
ROOT
ATOM      1  O   LIG    1       -0.113   8.417  -1.165  0.00  0.00    -0.530 OA
ATOM      2  C   LIG    1       -1.074   7.709  -1.392  0.00  0.00    +0.560 C 
ATOM      3  N   LIG    1       -1.153   6.482  -0.839  0.00  0.00    -0.720 N 
ATOM      4  H   LIG    1       -1.920   5.917  -1.019  0.00  0.00    +0.400 HD
ENDROOT
BRANCH   2   5
ATOM      5  C   LIG    1       -2.157   8.192  -2.275  0.00  0.00    -0.130 A 
ATOM      6  C   LIG    1       -3.260   7.379  -2.542  0.00  0.00    +0.040 A 
ATOM      7  C   LIG    1       -4.269   7.838  -3.362  0.00  0.00    +0.030 A 
ATOM      8  C   LIG    1       -4.186   9.097  -3.928  0.00  0.00    -0.080 A 
ATOM      9  C   LIG    1       -3.093   9.906  -3.672  0.00  0.00    +0.020 A 
ATOM     10  C   LIG    1       -2.079   9.462  -2.849  0.00  0.00    +0.080 A 
BRANCH   8  11
ATOM     11  C   LIG    1       -5.290   9.590  -4.828  0.00  0.00    +0.350 C 
BRANCH  11  12
ATOM     12  N   LIG    1       -4.995   9.215  -6.213  0.00  0.00    -0.620 N 
ATOM     13  C   LIG    1       -4.240  10.050  -7.154  0.00  0.00    +0.260 C 
ATOM     14  C   LIG    1       -3.809   9.097  -8.294  0.00  0.00    +0.040 C 
ATOM     15  C   LIG    1       -4.902   8.005  -8.218  0.00  0.00    +0.050 C 
ATOM     16  C   LIG    1       -5.387   8.065  -6.787  0.00  0.00    +0.520 C 
ATOM     17  O   LIG    1       -6.036   7.200  -6.237  0.00  0.00    -0.530 OA
ENDBRANCH  11  12
ENDBRANCH   8  11
ENDBRANCH   2   5
BRANCH   3  18
ATOM     18  C   LIG    1       -0.079   6.003   0.036  0.00  0.00    +0.290 C 
BRANCH  18  19
ATOM     19  C   LIG    1       -0.059   4.497   0.027  0.00  0.00    -0.090 A 
ATOM     20  C   LIG    1        1.148   3.822   0.012  0.00  0.00    +0.050 A 
ATOM     21  C   LIG    1        1.167   2.440   0.004  0.00  0.00    +0.040 A 
ATOM     22  C   LIG    1       -0.021   1.732   0.012  0.00  0.00    -0.030 A 
ATOM     23  C   LIG    1       -1.229   2.407   0.021  0.00  0.00    +0.040 A 
ATOM     24 CL   LIG    1        0.002  -0.004   0.002  0.00  0.00    -0.060 Cl
ATOM     25  C   LIG    1       -1.247   3.789   0.035  0.00  0.00    +0.030 A 
ENDBRANCH  18  19
BRANCH  18  26
ATOM     26  C   LIG    1       -0.323   6.502   1.462  0.00  0.00    +0.020 C 
BRANCH  26  27
ATOM     27  C   LIG    1       -0.220   8.028   1.493  0.00  0.00    +0.180 C 
BRANCH  27  28
ATOM     28  O   LIG    1       -0.447   8.493   2.825  0.00  0.00    -0.580 OA
ATOM     29  H   LIG    1       -0.397   9.454   2.920  0.00  0.00    +0.380 HD
ENDBRANCH  27  28
ENDBRANCH  26  27
ENDBRANCH  18  26
ENDBRANCH   3  18
TORSDOF 8
