REMARK  Name = ZINCrH000004sQdL.0
REMARK                            x       y       z     vdW  Elec       q    Type
REMARK                         _______ _______ _______ _____ _____    ______ ____
ROOT
ATOM      1  C   LIG    1        3.664  -0.725   0.805  0.00  0.00    +0.560 C 
ATOM      2  N   LIG    1        3.687  -1.998   1.248  0.00  0.00    -0.700 N 
ATOM      3  H   LIG    1        2.858  -2.445   1.482  0.00  0.00    +0.420 HD
ATOM      4  O   LIG    1        4.702  -0.165   0.513  0.00  0.00    -0.510 OA
ENDROOT
BRANCH   1  13
ATOM      5  C   LIG    1        4.844   2.170   0.114  0.00  0.00    +0.210 C 
ATOM      6  C   LIG    1        3.352   2.379   0.104  0.00  0.00    +0.160 A 
ATOM      7  N   LIG    1        2.733   3.495  -0.134  0.00  0.00    -0.270 NA
ATOM      8  O   LIG    1        1.337   3.294  -0.053  0.00  0.00    -0.080 OA
ATOM      9  C   LIG    1        1.086   2.003   0.247  0.00  0.00    +0.300 A 
ATOM     10  N   LIG    1       -0.031   1.317   0.432  0.00  0.00    -0.460 NA
ATOM     11  C   LIG    1       -0.022   0.035   0.725  0.00  0.00    +0.240 A 
ATOM     12  C   LIG    1        1.161  -0.673   0.856  0.00  0.00    -0.010 A 
ATOM     13  C   LIG    1        2.375  -0.010   0.674  0.00  0.00    -0.000 A 
ATOM     14  C   LIG    1        2.332   1.363   0.362  0.00  0.00    -0.200 A 
BRANCH  11  15
ATOM     15  C   LIG    1       -1.333  -0.683   0.921  0.00  0.00    +0.010 C 
ATOM     16  C   LIG    1       -1.314  -2.212   0.880  0.00  0.00    +0.040 C 
ATOM     17  C   LIG    1       -1.921  -1.423  -0.282  0.00  0.00    +0.060 C 
ENDBRANCH  11  15
ENDBRANCH   1  13
BRANCH   2  18
ATOM     18  C   LIG    1        4.963  -2.705   1.378  0.00  0.00    +0.340 C 
ATOM     19  C   LIG    1        5.593  -2.376   2.733  0.00  0.00    +0.060 C 
BRANCH  18  20
ATOM     20  C   LIG    1        4.726  -4.190   1.281  0.00  0.00    +0.270 A 
ATOM     21  N   LIG    1        3.606  -4.786   1.567  0.00  0.00    -0.480 NA
ATOM     22  C   LIG    1        3.737  -6.123   1.370  0.00  0.00    +0.050 A 
ATOM     23  C   LIG    1        2.869  -7.209   1.518  0.00  0.00    +0.070 A 
ATOM     24  C   LIG    1        3.305  -8.472   1.233  0.00  0.00    +0.000 A 
ATOM     25  C   LIG    1        4.604  -8.691   0.797  0.00  0.00    +0.030 A 
ATOM     26  C   LIG    1        5.477  -7.635   0.643  0.00  0.00    +0.020 A 
ATOM     27  C   LIG    1        5.052  -6.345   0.928  0.00  0.00    +0.050 A 
ATOM     28  N   LIG    1        5.651  -5.102   0.876  0.00  0.00    -0.590 N 
ATOM     29  H   LIG    1        6.563  -4.914   0.605  0.00  0.00    +0.430 HD
ENDBRANCH  18  20
ENDBRANCH   2  18
TORSDOF 4
