REMARK  Name = ZINCrD0000071VAj.0
REMARK                            x       y       z     vdW  Elec       q    Type
REMARK                         _______ _______ _______ _____ _____    ______ ____
ROOT
ATOM      1  C   LIG    1        3.781  -0.268  -0.035  0.00  0.00    -0.180 A 
ATOM      2  C   LIG    1        4.432   0.928  -0.035  0.00  0.00    +0.110 A 
ATOM      3  O   LIG    1        3.542   1.928  -0.021  0.00  0.00    -0.160 OA
ATOM      4  C   LIG    1        2.281   1.464  -0.012  0.00  0.00    +0.340 A 
ATOM      5  N   LIG    1        1.082   2.042   0.003  0.00  0.00    -0.520 NA
ATOM      6  C   LIG    1       -0.016   1.316   0.009  0.00  0.00    +0.390 A 
ATOM      7  N   LIG    1        0.002  -0.004   0.002  0.00  0.00    -0.560 NA
ATOM      8  C   LIG    1        1.154  -0.671  -0.013  0.00  0.00    +0.500 A 
ATOM      9  C   LIG    1        5.929   1.099  -0.047  0.00  0.00    +0.210 C 
ATOM     10  C   LIG    1        2.345   0.063  -0.020  0.00  0.00    -0.250 A 
ENDROOT
BRANCH   8  11
ATOM     11  N   LIG    1        1.173  -2.054  -0.020  0.00  0.00    -0.820 N 
ATOM     12  H   LIG    1        2.019  -2.528  -0.030  0.00  0.00    +0.410 HD
ATOM     13  H   LIG    1        0.340  -2.551  -0.014  0.00  0.00    +0.420 HD
ENDBRANCH   8  11
BRANCH   1  14
ATOM     14  C   LIG    1        4.384  -1.608  -0.048  0.00  0.00    +0.540 C 
ATOM     15  O   LIG    1        4.623  -2.157  -1.107  0.00  0.00    -0.480 OA
BRANCH  14  16
ATOM     16  O   LIG    1        4.671  -2.230   1.113  0.00  0.00    -0.350 OA
BRANCH  16  18
ATOM     17  C   LIG    1        5.518  -4.093   2.432  0.00  0.00    +0.070 C 
ATOM     18  C   LIG    1        5.265  -3.552   1.024  0.00  0.00    +0.210 C 
ENDBRANCH  16  18
ENDBRANCH  14  16
ENDBRANCH   1  14
BRANCH   6  19
ATOM     19  C   LIG    1       -1.348   2.020   0.019  0.00  0.00    +0.370 C 
BRANCH  19  20
ATOM     20  O   LIG    1       -1.769   2.239   1.391  0.00  0.00    -0.340 OA
BRANCH  20  21
ATOM     21  C   LIG    1       -2.949   2.862   1.577  0.00  0.00    +0.520 C 
ATOM     22  O   LIG    1       -3.608   3.214   0.619  0.00  0.00    -0.490 OA
BRANCH  21  23
ATOM     23  C   LIG    1       -3.442   3.119   2.945  0.00  0.00    -0.120 A 
ATOM     24  C   LIG    1       -2.689   2.711   4.049  0.00  0.00    +0.100 A 
ATOM     25  C   LIG    1       -3.152   2.958   5.324  0.00  0.00    +0.020 A 
ATOM     26  C   LIG    1       -4.366   3.600   5.511  0.00  0.00    -0.000 A 
ATOM     27  C   LIG    1       -5.119   4.002   4.421  0.00  0.00    +0.030 A 
ATOM     28 CL   LIG    1       -4.945   3.900   7.120  0.00  0.00    -0.060 Cl
ATOM     29  C   LIG    1       -4.664   3.765   3.141  0.00  0.00    +0.110 A 
ENDBRANCH  21  23
ENDBRANCH  20  21
ENDBRANCH  19  20
ENDBRANCH   6  19
TORSDOF 8
