REMARK  Name = ZINCvU0000000Fbg.0
REMARK                            x       y       z     vdW  Elec       q    Type
REMARK                         _______ _______ _______ _____ _____    ______ ____
ROOT
ATOM      1  C   LIG    1       -0.018   1.459   0.010  0.00  0.00    -0.070 A 
ATOM      2  C   LIG    1        1.207   2.112  -0.012  0.00  0.00    +0.070 A 
ATOM      3  C   LIG    1        2.390   1.358  -0.026  0.00  0.00    +0.190 A 
ATOM      4  N   LIG    1        2.385   0.042  -0.020  0.00  0.00    -0.430 NA
ATOM      5  C   LIG    1        1.256  -0.667  -0.000  0.00  0.00    +0.130 A 
ATOM      6  C   LIG    1        1.282  -2.074   0.006  0.00  0.00    +0.050 A 
ATOM      7  C   LIG    1        0.113  -2.771   0.027  0.00  0.00    +0.040 A 
ATOM      8  C   LIG    1       -1.116  -2.114   0.043  0.00  0.00    +0.030 A 
ATOM      9  C   LIG    1       -1.180  -0.751   0.038  0.00  0.00    +0.050 A 
ATOM     10  C   LIG    1        0.002  -0.004   0.016  0.00  0.00    -0.060 A 
ENDROOT
BRANCH   3  11
ATOM     11  C   LIG    1        3.692   2.069  -0.048  0.00  0.00    -0.010 A 
ATOM     12  C   LIG    1        3.747   3.465  -0.061  0.00  0.00    -0.010 A 
ATOM     13  C   LIG    1        4.980   4.086  -0.076  0.00  0.00    +0.260 A 
ATOM     14  N   LIG    1        6.093   3.380  -0.090  0.00  0.00    -0.480 NA
ATOM     15  C   LIG    1        6.085   2.061  -0.085  0.00  0.00    +0.260 A 
ATOM     16  C   LIG    1        4.896   1.360  -0.064  0.00  0.00    +0.020 A 
ENDBRANCH   3  11
BRANCH   1  18
ATOM     17  O   LIG    1       -2.347   1.617  -0.064  0.00  0.00    -0.480 OA
ATOM     18  C   LIG    1       -1.290   2.211   0.020  0.00  0.00    +0.520 C 
BRANCH  18  19
ATOM     19  O   LIG    1       -1.278   3.554   0.123  0.00  0.00    -0.350 OA
BRANCH  19  20
ATOM     20  C   LIG    1       -2.565   4.226   0.127  0.00  0.00    +0.320 C 
BRANCH  20  21
ATOM     21  C   LIG    1       -2.355   5.713   0.248  0.00  0.00    -0.100 A 
ATOM     22  C   LIG    1       -1.075   6.225   0.341  0.00  0.00    +0.090 A 
ATOM     23  C   LIG    1       -0.881   7.591   0.447  0.00  0.00    -0.060 A 
ATOM     24  C   LIG    1       -1.968   8.446   0.472  0.00  0.00    +0.070 A 
ATOM     25  C   LIG    1       -3.250   7.938   0.385  0.00  0.00    -0.020 A 
ATOM     26 CL   LIG    1        0.729   8.232   0.556  0.00  0.00    -0.060 Cl
ATOM     27  C   LIG    1       -3.446   6.569   0.273  0.00  0.00    +0.120 A 
BRANCH  27  28
ATOM     28  O   LIG    1       -4.707   6.067   0.189  0.00  0.00    -0.320 OA
BRANCH  28  29
ATOM     29  C   LIG    1       -5.783   7.007   0.221  0.00  0.00    +0.600 C 
ATOM     30  F   LIG    1       -5.659   7.895  -0.854  0.00  0.00    -0.190 F 
ATOM     31  F   LIG    1       -5.743   7.721   1.423  0.00  0.00    -0.190 F 
ENDBRANCH  28  29
ENDBRANCH  27  28
ENDBRANCH  20  21
ENDBRANCH  19  20
ENDBRANCH  18  19
ENDBRANCH   1  18
TORSDOF 7
