REMARK  Name = ZINCpk00000y6yem.0
REMARK                            x       y       z     vdW  Elec       q    Type
REMARK                         _______ _______ _______ _____ _____    ______ ____
ROOT
ATOM      1  C   LIG    1        1.089   6.610  -3.788  0.00  0.00    +0.370 C 
ATOM      2  C   LIG    1        1.653   6.886  -5.197  0.00  0.00    +0.090 C 
ATOM      3  C   LIG    1        2.570   5.660  -5.451  0.00  0.00    +0.190 C 
ATOM      4  C   LIG    1        3.139   5.401  -4.031  0.00  0.00    +0.240 C 
ATOM      5  N   LIG    1        2.016   5.686  -3.119  0.00  0.00    -0.610 N 
ATOM      6  C   LIG    1        1.867   5.185  -1.877  0.00  0.00    +0.550 C 
ATOM      7  O   LIG    1        0.941   5.550  -1.183  0.00  0.00    -0.500 OA
ENDROOT
BRANCH   1  12
ATOM      8  C   LIG    1       -0.578  10.708  -1.440  0.00  0.00    +0.210 C 
ATOM      9  C   LIG    1        0.309   9.633  -2.015  0.00  0.00    +0.170 A 
ATOM     10  N   LIG    1        1.605   9.579  -1.931  0.00  0.00    -0.380 NA
ATOM     11  O   LIG    1        2.021   8.590  -2.496  0.00  0.00    +0.090 OA
ATOM     12  C   LIG    1        1.000   7.898  -3.010  0.00  0.00    +0.180 A 
ATOM     13  N   LIG    1       -0.095   8.557  -2.713  0.00  0.00    -0.470 NA
ENDBRANCH   1  12
BRANCH   3  14
ATOM     14  O   LIG    1        3.616   5.984  -6.369  0.00  0.00    -0.550 OA
ATOM     15  H   LIG    1        4.214   5.248  -6.559  0.00  0.00    +0.390 HD
ENDBRANCH   3  14
BRANCH   6  16
ATOM     16  C   LIG    1        2.850   4.172  -1.349  0.00  0.00    +0.170 C 
ATOM     17  C   LIG    1        2.202   2.786  -1.348  0.00  0.00    +0.040 C 
BRANCH  16  18
ATOM     18  N   LIG    1        3.237   4.533   0.021  0.00  0.00    -0.480 N 
ATOM     19  C   LIG    1        4.531   3.916   0.386  0.00  0.00    +0.240 C 
ATOM     20  C   LIG    1        4.095   2.616   1.102  0.00  0.00    +0.060 C 
ATOM     21  C   LIG    1        2.712   2.963   1.615  0.00  0.00    -0.140 A 
ATOM     22  C   LIG    1        1.912   2.364   2.565  0.00  0.00    +0.020 A 
ATOM     23  C   LIG    1        0.666   2.891   2.856  0.00  0.00    -0.010 A 
ATOM     24  C   LIG    1        0.230   4.028   2.201  0.00  0.00    +0.010 A 
ATOM     25  C   LIG    1        1.026   4.631   1.249  0.00  0.00    +0.050 A 
ATOM     26  C   LIG    1        2.278   4.100   0.944  0.00  0.00    +0.090 A 
ENDBRANCH  16  18
ENDBRANCH   6  16
TORSDOF 4
