REMARK  Name = ZINCrD000000BwXW.0
REMARK                            x       y       z     vdW  Elec       q    Type
REMARK                         _______ _______ _______ _____ _____    ______ ____
ROOT
ATOM      1  O   LIG    1       -1.762   6.186  -0.323  0.00  0.00    -0.530 OA
ATOM      2  C   LIG    1       -2.701   5.604   0.177  0.00  0.00    +0.530 C 
ATOM      3  N   LIG    1       -3.832   6.277   0.470  0.00  0.00    -0.730 N 
ATOM      4  H   LIG    1       -4.583   5.811   0.871  0.00  0.00    +0.400 HD
ENDROOT
BRANCH   2   5
ATOM      5  C   LIG    1       -2.604   4.129   0.471  0.00  0.00    -0.040 C 
ATOM      6  C   LIG    1       -3.691   3.373  -0.304  0.00  0.00    +0.260 C 
ATOM      7  O   LIG    1       -3.626   1.996   0.063  0.00  0.00    -0.310 OA
ATOM      8  C   LIG    1       -2.412   1.383   0.038  0.00  0.00    +0.130 A 
ATOM      9  C   LIG    1       -1.250   2.093   0.019  0.00  0.00    -0.160 A 
ATOM     10  C   LIG    1       -0.017   1.412   0.010  0.00  0.00    -0.010 A 
ATOM     11  C   LIG    1        1.198   2.118   0.002  0.00  0.00    +0.010 A 
ATOM     12  C   LIG    1        2.374   1.432  -0.016  0.00  0.00    +0.010 A 
ATOM     13  C   LIG    1        2.393   0.039  -0.025  0.00  0.00    -0.010 A 
ATOM     14  C   LIG    1        1.235  -0.677  -0.016  0.00  0.00    +0.030 A 
ATOM     15  C   LIG    1        0.002  -0.004   0.002  0.00  0.00    -0.080 A 
ATOM     16  C   LIG    1       -1.215  -0.707   0.012  0.00  0.00    +0.070 A 
ATOM     17  C   LIG    1       -2.386  -0.021   0.030  0.00  0.00    +0.000 A 
ATOM     18  C   LIG    1       -1.241   3.601   0.017  0.00  0.00    +0.120 C 
ENDBRANCH   2   5
BRANCH   3  19
ATOM     19  C   LIG    1       -3.927   7.710   0.184  0.00  0.00    +0.400 C 
BRANCH  19  20
ATOM     20  C   LIG    1       -5.283   8.217   0.603  0.00  0.00    +0.170 A 
ATOM     21  N   LIG    1       -6.370   8.171  -0.121  0.00  0.00    -0.460 NA
ATOM     22  C   LIG    1       -7.380   8.709   0.569  0.00  0.00    +0.010 A 
ATOM     23  C   LIG    1       -6.900   9.106   1.767  0.00  0.00    -0.010 A 
ATOM     24  C   LIG    1       -7.727   9.767   2.839  0.00  0.00    +0.110 C 
ATOM     25  C   LIG    1       -9.030  10.269   2.205  0.00  0.00    +0.030 C 
ATOM     26  C   LIG    1       -9.667   9.142   1.387  0.00  0.00    +0.020 C 
ATOM     27  C   LIG    1       -8.817   8.870   0.140  0.00  0.00    +0.120 C 
ATOM     28  N   LIG    1       -5.577   8.791   1.793  0.00  0.00    -0.550 N 
ATOM     29  H   LIG    1       -4.960   8.949   2.525  0.00  0.00    +0.420 HD
ENDBRANCH  19  20
ENDBRANCH   3  19
TORSDOF 3
