REMARK  Name = ZINCpe00000MB3Y4.0
REMARK                            x       y       z     vdW  Elec       q    Type
REMARK                         _______ _______ _______ _____ _____    ______ ____
ROOT
ATOM      1  C   LIG    1       -0.314   5.291  -0.783  0.00  0.00    +0.150 C 
ATOM      2  C   LIG    1        0.722   5.052  -1.913  0.00  0.00    +0.020 C 
ATOM      3  C   LIG    1        1.834   4.251  -1.203  0.00  0.00    +0.230 C 
ATOM      4  N   LIG    1        1.227   3.618  -0.018  0.00  0.00    -0.450 N 
ATOM      5  C   LIG    1       -0.209   3.971   0.021  0.00  0.00    +0.220 C 
ENDROOT
BRANCH   4   6
ATOM      6  C   LIG    1        1.399   2.245  -0.046  0.00  0.00    +0.490 A 
ATOM      7  N   LIG    1        0.332   1.460  -0.050  0.00  0.00    -0.550 NA
ATOM      8  C   LIG    1        0.463   0.143  -0.077  0.00  0.00    +0.350 A 
ATOM      9  C   LIG    1        1.734  -0.409  -0.101  0.00  0.00    -0.230 A 
ATOM     10  C   LIG    1        2.200  -1.845  -0.133  0.00  0.00    +0.100 C 
ATOM     11  C   LIG    1        3.684  -1.798   0.290  0.00  0.00    +0.050 C 
ATOM     12  C   LIG    1        4.103  -0.371  -0.124  0.00  0.00    +0.120 C 
ATOM     13  C   LIG    1        2.828   0.440  -0.096  0.00  0.00    +0.190 A 
ATOM     14  N   LIG    1        2.627   1.748  -0.069  0.00  0.00    -0.520 NA
ENDBRANCH   4   6
BRANCH   1  15
ATOM     15  C   LIG    1       -1.720   5.472  -1.358  0.00  0.00    -0.020 C 
ATOM     16  C   LIG    1       -2.111   4.225  -2.157  0.00  0.00    +0.030 C 
ATOM     17  C   LIG    1       -3.485   4.448  -2.795  0.00  0.00    +0.220 C 
ATOM     18  O   LIG    1       -3.443   5.613  -3.621  0.00  0.00    -0.380 OA
ATOM     19  C   LIG    1       -3.129   6.817  -2.918  0.00  0.00    +0.220 C 
ATOM     20  C   LIG    1       -1.740   6.690  -2.287  0.00  0.00    +0.040 C 
BRANCH  15  21
ATOM     21  C   LIG    1       -2.701   5.679  -0.233  0.00  0.00    +0.470 C 
ATOM     22  O   LIG    1       -2.315   5.691   0.911  0.00  0.00    -0.480 OA
BRANCH  21  24
ATOM     23  C   LIG    1       -4.893   6.045   0.629  0.00  0.00    +0.250 C 
ATOM     24  O   LIG    1       -4.005   5.851  -0.503  0.00  0.00    -0.350 OA
ENDBRANCH  21  24
ENDBRANCH  15  21
ENDBRANCH   1  15
BRANCH   1  25
ATOM     25  O   LIG    1        0.056   6.412   0.022  0.00  0.00    -0.530 OA
ATOM     26  H   LIG    1        0.920   6.323   0.448  0.00  0.00    +0.390 HD
ENDBRANCH   1  25
TORSDOF 5
