REMARK  Name = ZINCqH0000000ogF.0
REMARK                            x       y       z     vdW  Elec       q    Type
REMARK                         _______ _______ _______ _____ _____    ______ ____
ROOT
ATOM      1  C   LIG    1        0.856  -0.674  -2.193  0.00  0.00    +0.060 C 
ENDROOT
BRANCH   1  13
ATOM      2  C   LIG    1       -2.089   0.036   1.323  0.00  0.00    +0.090 C 
ATOM      3  C   LIG    1       -0.975  -0.697   0.621  0.00  0.00    +0.510 C 
ATOM      4  N   LIG    1        0.002  -0.004   0.002  0.00  0.00    -0.560 N 
ATOM      5  C   LIG    1       -0.017   1.385   0.010  0.00  0.00    +0.240 C 
ATOM      6  C   LIG    1        1.137   2.063   0.002  0.00  0.00    -0.040 C 
ATOM      7  C   LIG    1        2.410   1.319  -0.045  0.00  0.00    -0.030 A 
ATOM      8  C   LIG    1        3.618   1.956   0.237  0.00  0.00    +0.020 A 
ATOM      9  C   LIG    1        4.792   1.229   0.225  0.00  0.00    +0.010 A 
ATOM     10  C   LIG    1        4.771  -0.123  -0.066  0.00  0.00    +0.000 A 
ATOM     11  C   LIG    1        3.575  -0.759  -0.355  0.00  0.00    +0.030 A 
ATOM     12  C   LIG    1        2.398  -0.044  -0.352  0.00  0.00    -0.100 A 
ATOM     13  C   LIG    1        1.088  -0.715  -0.681  0.00  0.00    +0.320 C 
ATOM     14  O   LIG    1       -0.956  -1.909   0.613  0.00  0.00    -0.480 OA
ENDBRANCH   1  13
BRANCH   1  15
ATOM     15  C   LIG    1       -0.396  -1.442  -2.530  0.00  0.00    +0.500 C 
ATOM     16  N   LIG    1       -0.801  -1.542  -3.811  0.00  0.00    -0.720 N 
ATOM     17  H   LIG    1       -0.287  -1.119  -4.517  0.00  0.00    +0.400 HD
ATOM     18  O   LIG    1       -1.039  -1.971  -1.647  0.00  0.00    -0.500 OA
BRANCH  16  19
ATOM     19  C   LIG    1       -2.018  -2.289  -4.139  0.00  0.00    +0.290 C 
ATOM     20  C   LIG    1       -2.601  -1.801  -5.482  0.00  0.00    +0.040 C 
ATOM     21  C   LIG    1       -1.951  -2.766  -6.495  0.00  0.00    +0.080 C 
ATOM     22  C   LIG    1       -1.656  -4.026  -5.710  0.00  0.00    -0.090 A 
ATOM     23  C   LIG    1       -1.376  -5.310  -6.145  0.00  0.00    +0.010 A 
ATOM     24  C   LIG    1       -1.135  -6.319  -5.224  0.00  0.00    +0.010 A 
ATOM     25  C   LIG    1       -1.175  -6.043  -3.870  0.00  0.00    -0.010 A 
ATOM     26  C   LIG    1       -1.455  -4.761  -3.436  0.00  0.00    +0.050 A 
ATOM     27  C   LIG    1       -1.695  -3.752  -4.353  0.00  0.00    -0.110 A 
ENDBRANCH  16  19
ENDBRANCH   1  15
TORSDOF 3
