REMARK  Name = ZINCpe000000UWXS.0
REMARK                            x       y       z     vdW  Elec       q    Type
REMARK                         _______ _______ _______ _____ _____    ______ ____
ROOT
ATOM      1  C   LIG    1       -4.293  -1.433  -1.798  0.00  0.00    +0.570 C 
ATOM      2  N   LIG    1       -3.817  -0.778  -0.721  0.00  0.00    -0.600 N 
ATOM      3  C   LIG    1       -4.536  -0.822   0.560  0.00  0.00    +0.260 C 
ATOM      4  C   LIG    1       -4.781   0.613   1.037  0.00  0.00    +0.030 C 
ATOM      5  C   LIG    1       -3.448   1.363   1.089  0.00  0.00    +0.030 C 
ATOM      6  C   LIG    1       -2.836   1.418  -0.312  0.00  0.00    +0.050 C 
ATOM      7  C   LIG    1       -2.569  -0.007  -0.805  0.00  0.00    +0.300 C 
ATOM      8  O   LIG    1       -3.749  -1.304  -2.877  0.00  0.00    -0.520 OA
ENDROOT
BRANCH   1  12
ATOM      9  C   LIG    1       -7.693  -3.894  -1.502  0.00  0.00    +0.100 A 
ATOM     10  C   LIG    1       -6.754  -3.941  -0.474  0.00  0.00    +0.040 A 
ATOM     11  C   LIG    1       -5.628  -3.139  -0.552  0.00  0.00    +0.100 A 
ATOM     12  C   LIG    1       -5.479  -2.309  -1.668  0.00  0.00    -0.160 A 
ATOM     13  C   LIG    1       -6.468  -2.314  -2.655  0.00  0.00    +0.330 A 
ATOM     14  N   LIG    1       -7.520  -3.094  -2.547  0.00  0.00    -0.460 NA
BRANCH   9  18
ATOM     15  C   LIG    1      -11.012  -5.556  -2.343  0.00  0.00    +0.280 C 
ATOM     16  N   LIG    1       -9.817  -4.712  -2.417  0.00  0.00    -0.710 N 
ATOM     17  H   LIG    1       -9.684  -4.125  -3.177  0.00  0.00    +0.410 HD
ATOM     18  C   LIG    1       -8.903  -4.750  -1.427  0.00  0.00    +0.570 C 
ATOM     19  O   LIG    1       -9.069  -5.485  -0.474  0.00  0.00    -0.530 OA
ENDBRANCH   9  18
ENDBRANCH   1  12
BRANCH   6  20
ATOM     20  C   LIG    1       -1.540   2.185  -0.265  0.00  0.00    +0.230 A 
ATOM     21  C   LIG    1       -0.359   1.547   0.079  0.00  0.00    -0.140 A 
ATOM     22  C   LIG    1        0.812   2.288   0.104  0.00  0.00    +0.370 A 
ATOM     23  N   LIG    1        0.768   3.575  -0.194  0.00  0.00    -0.570 NA
ATOM     24  C   LIG    1       -0.379   4.157  -0.513  0.00  0.00    +0.570 A 
ATOM     25  N   LIG    1       -1.516   3.478  -0.547  0.00  0.00    -0.570 NA
BRANCH  24  26
ATOM     26  N   LIG    1       -0.390   5.507  -0.819  0.00  0.00    -0.820 N 
ATOM     27  H   LIG    1       -1.223   5.944  -1.055  0.00  0.00    +0.410 HD
ATOM     28  H   LIG    1        0.436   6.016  -0.798  0.00  0.00    +0.420 HD
ENDBRANCH  24  26
ENDBRANCH   6  20
TORSDOF 4
