REMARK  Name = ZINCrD0000074Kai.0
REMARK                            x       y       z     vdW  Elec       q    Type
REMARK                         _______ _______ _______ _____ _____    ______ ____
ROOT
ATOM      1  C   LIG    1       -4.785   1.523   0.095  0.00  0.00    -0.260 A 
ATOM      2  C   LIG    1       -3.485   1.918   0.039  0.00  0.00    +0.250 A 
ATOM      3  N   LIG    1       -3.470   3.269   0.003  0.00  0.00    -0.370 N 
ATOM      4  N   LIG    1       -4.796   3.717   0.043  0.00  0.00    -0.260 NA
ATOM      5  C   LIG    1       -2.276   4.116  -0.066  0.00  0.00    +0.360 C 
ATOM      6  C   LIG    1       -5.582   2.672   0.102  0.00  0.00    +0.090 A 
ATOM      7  C   LIG    1       -7.087   2.702   0.161  0.00  0.00    +0.150 C 
ENDROOT
BRANCH   1   8
ATOM      8  C   LIG    1       -5.279   0.100   0.145  0.00  0.00    +0.300 C 
BRANCH   8  11
ATOM      9  C   LIG    1       -4.243  -0.720   3.673  0.00  0.00    +0.280 C 
ATOM     10  C   LIG    1       -4.098  -0.206   2.238  0.00  0.00    +0.170 C 
ATOM     11  N   LIG    1       -5.389  -0.331   1.546  0.00  0.00    -0.520 NA
ATOM     12  C   LIG    1       -6.433   0.427   2.250  0.00  0.00    +0.150 C 
ATOM     13  C   LIG    1       -6.555  -0.094   3.684  0.00  0.00    +0.220 C 
ATOM     14  O   LIG    1       -5.283   0.006   4.332  0.00  0.00    -0.370 OA
BRANCH   9  19
ATOM     15  C   LIG    1       -0.572   1.442   6.373  0.00  0.00    +0.170 C 
ATOM     16  C   LIG    1       -1.348   0.418   5.586  0.00  0.00    -0.010 A 
ATOM     17  C   LIG    1       -0.946  -0.837   5.317  0.00  0.00    -0.060 A 
ATOM     18  C   LIG    1       -1.975  -1.444   4.560  0.00  0.00    -0.040 A 
ATOM     19  C   LIG    1       -2.945  -0.523   4.412  0.00  0.00    -0.010 A 
ATOM     20  O   LIG    1       -2.557   0.605   5.031  0.00  0.00    -0.160 OA
ENDBRANCH   9  19
ENDBRANCH   8  11
ENDBRANCH   1   8
BRANCH   2  21
ATOM     21  O   LIG    1       -2.400   1.103   0.017  0.00  0.00    -0.220 OA
BRANCH  21  22
ATOM     22  C   LIG    1       -1.870   0.779  -1.192  0.00  0.00    +0.060 A 
ATOM     23  C   LIG    1       -0.696   0.037  -1.271  0.00  0.00    +0.060 A 
ATOM     24  C   LIG    1       -0.198  -0.275  -2.526  0.00  0.00    +0.020 A 
ATOM     25  C   LIG    1       -0.874   0.164  -3.649  0.00  0.00    +0.230 A 
ATOM     26  N   LIG    1       -1.982   0.871  -3.539  0.00  0.00    -0.450 NA
ATOM     27  C   LIG    1       -2.489   1.188  -2.365  0.00  0.00    +0.190 A 
ENDBRANCH  21  22
ENDBRANCH   2  21
TORSDOF 5
