REMARK  Name = ZINCvU0000000HH0.0
REMARK                            x       y       z     vdW  Elec       q    Type
REMARK                         _______ _______ _______ _____ _____    ______ ____
ROOT
ATOM      1  N   LIG    1       -0.044   1.405   0.042  0.00  0.00    -0.680 N 
ATOM      2  H   LIG    1       -0.209   0.585  -0.449  0.00  0.00    +0.410 HD
ATOM      3  C   LIG    1       -1.018   1.945   0.801  0.00  0.00    +0.700 C 
ATOM      4  N   LIG    1       -2.254   1.407   0.793  0.00  0.00    -0.680 N 
ATOM      5  H   LIG    1       -2.425   0.593   0.295  0.00  0.00    +0.410 HD
ATOM      6  O   LIG    1       -0.782   2.917   1.492  0.00  0.00    -0.550 OA
ENDROOT
BRANCH   1  13
ATOM      7  C   LIG    1        5.144   6.669  -0.128  0.00  0.00    +0.680 C 
ATOM      8  N   LIG    1        4.394   5.549  -0.123  0.00  0.00    -0.600 N 
ATOM      9  C   LIG    1        4.881   4.171  -0.241  0.00  0.00    +0.330 C 
ATOM     10  C   LIG    1        3.685   3.255  -0.185  0.00  0.00    -0.120 A 
ATOM     11  C   LIG    1        3.591   1.875  -0.252  0.00  0.00    +0.060 A 
ATOM     12  C   LIG    1        2.357   1.259  -0.177  0.00  0.00    -0.010 A 
ATOM     13  C   LIG    1        1.208   2.026  -0.034  0.00  0.00    +0.170 A 
ATOM     14  C   LIG    1        1.305   3.409   0.027  0.00  0.00    +0.050 A 
ATOM     15  C   LIG    1        2.543   4.021  -0.043  0.00  0.00    -0.080 A 
ATOM     16  C   LIG    1        2.935   5.476   0.002  0.00  0.00    +0.350 C 
ATOM     17  O   LIG    1        4.612   7.757  -0.022  0.00  0.00    -0.560 OA
BRANCH   7  18
ATOM     18  O   LIG    1        6.482   6.583  -0.251  0.00  0.00    -0.360 OA
BRANCH  18  20
ATOM     19  C   LIG    1        6.981   8.567   1.069  0.00  0.00    +0.040 C 
ATOM     20  C   LIG    1        7.226   7.830  -0.248  0.00  0.00    +0.140 C 
ATOM     21  C   LIG    1        6.762   8.703  -1.416  0.00  0.00    +0.040 C 
ATOM     22  C   LIG    1        8.720   7.532  -0.396  0.00  0.00    +0.080 C 
ENDBRANCH  18  20
ENDBRANCH   7  18
ENDBRANCH   1  13
BRANCH   4  23
ATOM     23  C   LIG    1       -3.289   2.023   1.504  0.00  0.00    +0.170 A 
ATOM     24  C   LIG    1       -3.022   2.642   2.720  0.00  0.00    +0.040 A 
ATOM     25  C   LIG    1       -4.039   3.254   3.421  0.00  0.00    +0.050 A 
ATOM     26  C   LIG    1       -5.340   3.243   2.914  0.00  0.00    -0.030 A 
ATOM     27  C   LIG    1       -5.605   2.616   1.694  0.00  0.00    +0.050 A 
ATOM     28  C   LIG    1       -4.582   2.011   0.996  0.00  0.00    -0.010 A 
BRANCH  26  29
ATOM     29  C   LIG    1       -6.434   3.892   3.666  0.00  0.00    +0.030 A 
ATOM     30  C   LIG    1       -6.311   4.534   4.858  0.00  0.00    -0.040 A 
ATOM     31  C   LIG    1       -7.596   4.997   5.204  0.00  0.00    -0.060 A 
ATOM     32  C   LIG    1       -8.431   4.619   4.217  0.00  0.00    +0.180 A 
ATOM     33  O   LIG    1       -7.724   3.957   3.286  0.00  0.00    -0.170 OA
ENDBRANCH  26  29
ENDBRANCH   4  23
TORSDOF 5
