REMARK  Name = ZINCpk00000eb94y.0
REMARK                            x       y       z     vdW  Elec       q    Type
REMARK                         _______ _______ _______ _____ _____    ______ ____
ROOT
ATOM      1  C   LIG    1        3.088  -0.753   1.999  0.00  0.00    +0.130 C 
ENDROOT
BRANCH   1   4
ATOM      2  C   LIG    1        3.987   1.223   3.921  0.00  0.00    +0.150 C 
ATOM      3  C   LIG    1        4.921   0.737   2.843  0.00  0.00    +0.220 A 
ATOM      4  C   LIG    1        4.490  -0.205   1.929  0.00  0.00    -0.300 A 
ATOM      5  C   LIG    1        5.374  -0.637   0.934  0.00  0.00    +0.510 A 
ATOM      6  N   LIG    1        6.622  -0.124   0.901  0.00  0.00    -0.430 N 
ATOM      7  C   LIG    1        7.494  -0.535  -0.061  0.00  0.00    +0.280 A 
ATOM      8  C   LIG    1        8.750  -0.036  -0.114  0.00  0.00    -0.010 A 
ATOM      9  C   LIG    1        9.170   0.915   0.826  0.00  0.00    +0.130 A 
ATOM     10  C   LIG    1        8.305   1.333   1.793  0.00  0.00    +0.030 A 
ATOM     11  C   LIG    1        7.003   0.802   1.832  0.00  0.00    +0.390 A 
ATOM     12  O   LIG    1        5.021  -1.465   0.108  0.00  0.00    -0.530 OA
ATOM     13  N   LIG    1        6.156   1.208   2.776  0.00  0.00    -0.540 NA
ENDBRANCH   1   4
BRANCH   1  14
ATOM     14  C   LIG    1        2.181   0.044   1.059  0.00  0.00    +0.180 C 
BRANCH  14  15
ATOM     15  N   LIG    1        0.814  -0.490   1.127  0.00  0.00    -0.520 NA
ATOM     16  C   LIG    1        0.805  -1.944   0.906  0.00  0.00    +0.150 C 
ATOM     17  C   LIG    1       -0.627  -2.467   1.044  0.00  0.00    +0.220 C 
ATOM     18  O   LIG    1       -1.473  -1.774   0.122  0.00  0.00    -0.380 OA
ATOM     19  C   LIG    1       -1.489  -0.356   0.309  0.00  0.00    +0.240 C 
ATOM     20  C   LIG    1       -0.065   0.189   0.164  0.00  0.00    +0.120 C 
BRANCH  20  21
ATOM     21  C   LIG    1       -0.063   1.693   0.442  0.00  0.00    +0.150 C 
ATOM     22  C   LIG    1       -0.436   1.968   1.915  0.00  0.00    +0.020 C 
ATOM     23  C   LIG    1       -1.293   3.252   1.852  0.00  0.00    +0.000 C 
ATOM     24  C   LIG    1       -1.335   3.601   0.348  0.00  0.00    +0.190 C 
ATOM     25  O   LIG    1       -1.093   2.348  -0.329  0.00  0.00    -0.370 OA
ENDBRANCH  20  21
ENDBRANCH  14  15
ENDBRANCH   1  14
TORSDOF 4
