REMARK  Name = ZINCrH000004qimf.0
REMARK                            x       y       z     vdW  Elec       q    Type
REMARK                         _______ _______ _______ _____ _____    ______ ____
ROOT
ATOM      1  C   LIG    1        0.053   0.902   6.514  0.00  0.00    +0.230 C 
ENDROOT
BRANCH   1   2
ATOM      2  N   LIG    1        0.767  -0.085   7.334  0.00  0.00    -0.520 NA
ATOM      3  C   LIG    1        2.191  -0.136   6.976  0.00  0.00    +0.240 C 
ATOM      4  C   LIG    1        2.787   1.277   7.027  0.00  0.00    +0.090 C 
ATOM      5  C   LIG    1        2.389   1.900   8.342  0.00  0.00    +0.100 A 
ATOM      6  C   LIG    1        1.396   1.405   9.128  0.00  0.00    -0.240 A 
ATOM      7  C   LIG    1        1.299   2.214  10.256  0.00  0.00    +0.000 A 
ATOM      8  N   LIG    1        2.198   3.163  10.155  0.00  0.00    -0.230 NA
ATOM      9  N   LIG    1        2.896   2.981   8.950  0.00  0.00    -0.440 N 
ATOM     10  H   LIG    1        3.617   3.539   8.617  0.00  0.00    +0.450 HD
ATOM     11  C   LIG    1        0.581   0.188   8.770  0.00  0.00    +0.310 C 
BRANCH   7  12
ATOM     12  C   LIG    1        0.329   2.031  11.395  0.00  0.00    +0.550 C 
ATOM     13  F   LIG    1        0.612   0.833  12.060  0.00  0.00    -0.160 F 
ATOM     14  F   LIG    1       -0.976   1.990  10.895  0.00  0.00    -0.160 F 
ATOM     15  F   LIG    1        0.453   3.101  12.289  0.00  0.00    -0.160 F 
ENDBRANCH   7  12
ENDBRANCH   1   2
BRANCH   1  22
ATOM     16  C   LIG    1       -1.846  -1.090   5.641  0.00  0.00    +0.100 C 
ATOM     17  C   LIG    1       -0.865  -0.504   4.659  0.00  0.00    -0.040 A 
ATOM     18  C   LIG    1       -0.874  -0.921   3.342  0.00  0.00    +0.010 A 
ATOM     19  C   LIG    1        0.030  -0.381   2.438  0.00  0.00    +0.120 A 
ATOM     20  C   LIG    1        0.945   0.573   2.861  0.00  0.00    +0.010 A 
ATOM     21  C   LIG    1        0.947   0.990   4.178  0.00  0.00    +0.030 A 
ATOM     22  C   LIG    1        0.045   0.450   5.077  0.00  0.00    -0.080 A 
BRANCH  19  23
ATOM     23  N   LIG    1        0.023  -0.803   1.100  0.00  0.00    -0.420 N 
ATOM     24  C   LIG    1        0.037  -2.099   0.655  0.00  0.00    +0.130 A 
ATOM     25  C   LIG    1        0.023  -2.049  -0.691  0.00  0.00    +0.150 A 
ATOM     26  N   LIG    1       -0.003  -0.760  -1.062  0.00  0.00    -0.490 NA
ATOM     27  C   LIG    1        0.002  -0.004   0.002  0.00  0.00    +0.210 A 
ATOM     28  C   LIG    1       -0.018   1.503   0.010  0.00  0.00    +0.170 C 
ENDBRANCH  19  23
ENDBRANCH   1  22
TORSDOF 4
