REMARK  Name = ZINCtV00000vxcvI.0
REMARK                            x       y       z     vdW  Elec       q    Type
REMARK                         _______ _______ _______ _____ _____    ______ ____
ROOT
ATOM      1  C   LIG    1        3.798   5.239  -0.007  0.00  0.00    -0.070 A 
ATOM      2  C   LIG    1        2.953   4.140  -0.013  0.00  0.00    +0.080 A 
ATOM      3  C   LIG    1        1.561   4.339  -0.004  0.00  0.00    +0.230 A 
ATOM      4  N   LIG    1        1.023   5.543   0.021  0.00  0.00    -0.430 NA
ATOM      5  C   LIG    1        1.762   6.654   0.034  0.00  0.00    +0.130 A 
ATOM      6  C   LIG    1        1.160   7.925   0.060  0.00  0.00    +0.050 A 
ATOM      7  C   LIG    1        1.940   9.041   0.071  0.00  0.00    +0.040 A 
ATOM      8  C   LIG    1        3.329   8.947   0.058  0.00  0.00    +0.030 A 
ATOM      9  C   LIG    1        3.947   7.732   0.033  0.00  0.00    +0.050 A 
ATOM     10  C   LIG    1        3.177   6.565   0.021  0.00  0.00    -0.060 A 
ENDROOT
BRANCH   3  11
ATOM     11  C   LIG    1        0.672   3.161  -0.016  0.00  0.00    +0.000 A 
ATOM     12  C   LIG    1       -0.689   3.187  -0.005  0.00  0.00    +0.020 A 
ATOM     13  C   LIG    1       -1.119   1.847  -0.029  0.00  0.00    -0.060 A 
ATOM     14  C   LIG    1       -0.013   1.076  -0.046  0.00  0.00    +0.200 A 
ATOM     15  O   LIG    1        1.067   1.873  -0.041  0.00  0.00    -0.170 OA
ENDBRANCH   3  11
BRANCH   1  17
ATOM     16  O   LIG    1        5.983   6.055  -0.119  0.00  0.00    -0.490 OA
ATOM     17  C   LIG    1        5.267   5.079  -0.021  0.00  0.00    +0.520 C 
BRANCH  17  18
ATOM     18  O   LIG    1        5.812   3.851   0.074  0.00  0.00    -0.340 OA
BRANCH  18  19
ATOM     19  C   LIG    1        7.261   3.769   0.053  0.00  0.00    +0.260 C 
BRANCH  19  20
ATOM     20  C   LIG    1        7.691   2.306   0.172  0.00  0.00    +0.240 C 
BRANCH  20  21
ATOM     21  O   LIG    1        7.256   1.586  -0.984  0.00  0.00    -0.290 OA
BRANCH  21  22
ATOM     22  C   LIG    1        7.559   0.262  -1.037  0.00  0.00    +0.150 A 
ATOM     23  C   LIG    1        8.267  -0.330  -0.003  0.00  0.00    -0.040 A 
ATOM     24  C   LIG    1        8.570  -1.677  -0.056  0.00  0.00    +0.080 A 
ATOM     25  C   LIG    1        8.178  -2.433  -1.147  0.00  0.00    -0.060 A 
ATOM     26  C   LIG    1        7.477  -1.843  -2.183  0.00  0.00    +0.090 A 
ATOM     27 CL   LIG    1        8.567  -4.123  -1.215  0.00  0.00    -0.050 Cl
ATOM     28  C   LIG    1        7.166  -0.497  -2.131  0.00  0.00    -0.060 A 
ATOM     29 CL   LIG    1        6.287   0.243  -3.432  0.00  0.00    -0.040 Cl
ENDBRANCH  21  22
ENDBRANCH  20  21
ENDBRANCH  19  20
ENDBRANCH  18  19
ENDBRANCH  17  18
ENDBRANCH   1  17
TORSDOF 7
