REMARK  Name = ZINCpk00000xN6uj.0
REMARK                            x       y       z     vdW  Elec       q    Type
REMARK                         _______ _______ _______ _____ _____    ______ ____
ROOT
ATOM      1  N   LIG    1        3.701   4.212   2.894  0.00  0.00    -0.700 N 
ATOM      2  H   LIG    1        4.116   3.639   3.558  0.00  0.00    +0.420 HD
ENDROOT
BRANCH   1   3
ATOM      3  C   LIG    1        3.881   5.585   2.955  0.00  0.00    +0.450 A 
ATOM      4  C   LIG    1        3.289   6.418   2.006  0.00  0.00    -0.160 A 
ATOM      5  C   LIG    1        3.501   7.791   2.112  0.00  0.00    +0.260 A 
ATOM      6  N   LIG    1        4.256   8.253   3.109  0.00  0.00    -0.560 NA
ATOM      7  C   LIG    1        4.796   7.432   3.984  0.00  0.00    +0.370 A 
ATOM      8  C   LIG    1        5.643   8.000   5.095  0.00  0.00    +0.180 C 
ATOM      9  N   LIG    1        4.616   6.128   3.922  0.00  0.00    -0.580 NA
BRANCH   5  10
ATOM     10  C   LIG    1        2.895   8.724   1.131  0.00  0.00    -0.110 A 
ATOM     11  C   LIG    1        3.107  10.101   1.236  0.00  0.00    +0.120 A 
ATOM     12  C   LIG    1        2.520  10.930   0.295  0.00  0.00    -0.040 A 
ATOM     13  C   LIG    1        1.750  10.373  -0.710  0.00  0.00    +0.270 A 
ATOM     14  N   LIG    1        1.567   9.069  -0.783  0.00  0.00    -0.490 NA
ATOM     15  C   LIG    1        2.110   8.241   0.085  0.00  0.00    +0.290 A 
ENDBRANCH   5  10
ENDBRANCH   1   3
BRANCH   1  16
ATOM     16  C   LIG    1        2.885   3.627   1.828  0.00  0.00    +0.310 C 
BRANCH  16  22
ATOM     17  N   LIG    1        0.002  -0.004   0.002  0.00  0.00    -0.540 NA
ATOM     18  C   LIG    1       -0.018   1.465   0.010  0.00  0.00    +0.170 C 
ATOM     19  C   LIG    1        1.421   1.992  -0.001  0.00  0.00    +0.290 C 
ATOM     20  N   LIG    1        2.154   1.374   1.115  0.00  0.00    -0.610 N 
ATOM     21  C   LIG    1        2.106  -0.090   1.252  0.00  0.00    +0.300 C 
ATOM     22  C   LIG    1        2.849   2.128   1.988  0.00  0.00    +0.510 C 
ATOM     23  O   LIG    1        3.447   1.602   2.902  0.00  0.00    -0.530 OA
ATOM     24  C   LIG    1        0.640  -0.535   1.214  0.00  0.00    +0.170 C 
BRANCH  17  26
ATOM     25  C   LIG    1       -1.270  -2.055  -0.414  0.00  0.00    +0.040 C 
ATOM     26  C   LIG    1       -1.353  -0.548  -0.161  0.00  0.00    +0.160 C 
ENDBRANCH  17  26
ENDBRANCH  16  22
ENDBRANCH   1  16
TORSDOF 5
