REMARK  Name = ZINCrD00000lL97j.0
REMARK                            x       y       z     vdW  Elec       q    Type
REMARK                         _______ _______ _______ _____ _____    ______ ____
ROOT
ATOM      1  C   LIG    1        1.397   2.155   7.450  0.00  0.00    +0.140 C 
ATOM      2  C   LIG    1        0.256   2.516   6.826  0.00  0.00    -0.080 C 
ENDROOT
BRANCH   1   5
ATOM      3  C   LIG    1        2.832   2.135  10.918  0.00  0.00    +0.150 A 
ATOM      4  C   LIG    1        2.711   1.962   9.552  0.00  0.00    -0.060 A 
ATOM      5  C   LIG    1        1.529   2.337   8.903  0.00  0.00    -0.010 A 
ATOM      6  C   LIG    1        0.475   2.889   9.640  0.00  0.00    -0.070 A 
ATOM      7  C   LIG    1        0.601   3.054  11.006  0.00  0.00    +0.150 A 
ATOM      8  C   LIG    1        1.779   2.681  11.648  0.00  0.00    +0.040 A 
BRANCH   3  10
ATOM      9  C   LIG    1        5.019   1.219  10.739  0.00  0.00    +0.250 C 
ATOM     10  O   LIG    1        3.980   1.772  11.550  0.00  0.00    -0.300 OA
ENDBRANCH   3  10
BRANCH   7  11
ATOM     11  O   LIG    1       -0.424   3.587  11.723  0.00  0.00    -0.300 OA
ATOM     12  C   LIG    1       -1.603   3.947  11.000  0.00  0.00    +0.250 C 
ENDBRANCH   7  11
BRANCH   8  13
ATOM     13  O   LIG    1        1.901   2.850  12.991  0.00  0.00    -0.310 OA
ATOM     14  C   LIG    1        2.433   4.097  13.443  0.00  0.00    +0.240 C 
ENDBRANCH   8  13
ENDBRANCH   1   5
BRANCH   2  15
ATOM     15  C   LIG    1        0.125   2.336   5.381  0.00  0.00    +0.560 C 
ATOM     16  N   LIG    1       -1.015   2.696   4.758  0.00  0.00    -0.640 N 
ATOM     17  H   LIG    1       -1.747   3.076   5.268  0.00  0.00    +0.410 HD
ATOM     18  O   LIG    1        1.044   1.859   4.741  0.00  0.00    -0.500 OA
BRANCH  16  19
ATOM     19  C   LIG    1       -1.140   2.524   3.381  0.00  0.00    +0.300 A 
ATOM     20  C   LIG    1       -0.197   2.007   2.545  0.00  0.00    -0.100 A 
ATOM     21  C   LIG    1       -0.724   2.012   1.250  0.00  0.00    +0.100 A 
ATOM     22  N   LIG    1       -1.931   2.514   1.296  0.00  0.00    -0.280 NA
ATOM     23  N   LIG    1       -2.224   2.841   2.627  0.00  0.00    -0.400 N 
ATOM     24  C   LIG    1       -3.474   3.428   3.116  0.00  0.00    +0.340 C 
BRANCH  21  25
ATOM     25  C   LIG    1       -0.019   1.526   0.010  0.00  0.00    +0.010 C 
ATOM     26  C   LIG    1       -0.759   2.033  -1.229  0.00  0.00    +0.040 C 
ATOM     27  C   LIG    1        1.417   2.055  -0.000  0.00  0.00    +0.040 C 
ATOM     28  C   LIG    1        0.002  -0.004   0.002  0.00  0.00    +0.040 C 
ENDBRANCH  21  25
ENDBRANCH  16  19
ENDBRANCH   2  15
TORSDOF 7
