REMARK  Name = ZINCpk00000ebHVH.0
REMARK                            x       y       z     vdW  Elec       q    Type
REMARK                         _______ _______ _______ _____ _____    ______ ____
ROOT
ATOM      1  C   LIG    1       -3.353   5.664  -4.520  0.00  0.00    -0.150 A 
ATOM      2  C   LIG    1       -3.867   4.565  -5.213  0.00  0.00    +0.180 A 
ATOM      3  C   LIG    1       -3.306   3.318  -5.035  0.00  0.00    -0.020 A 
ATOM      4  C   LIG    1       -2.235   3.154  -4.170  0.00  0.00    +0.230 A 
ATOM      5  C   LIG    1       -1.721   4.241  -3.479  0.00  0.00    -0.730 A 
ATOM      6  F   LIG    1       -1.689   1.930  -4.000  0.00  0.00    -0.110 F 
ATOM      7  C   LIG    1       -2.277   5.491  -3.646  0.00  0.00    +0.240 A 
ENDROOT
BRANCH   5   8
ATOM      8  S   LIG    1       -0.360   4.023  -2.382  0.00  0.00    +2.690 S 
ATOM      9  O   LIG    1        0.614   3.274  -3.095  0.00  0.00    -0.940 OA
ATOM     10  O   LIG    1       -0.096   5.298  -1.812  0.00  0.00    -0.940 OA
BRANCH   8  11
ATOM     11  N   LIG    1       -0.879   3.055  -1.143  0.00  0.00    -0.990 NA
ATOM     12  C   LIG    1       -0.755   1.594  -1.232  0.00  0.00    +0.280 C 
ATOM     13  C   LIG    1       -0.013   1.086   0.008  0.00  0.00    +0.020 C 
ATOM     14  C   LIG    1       -0.730   1.580   1.266  0.00  0.00    +0.010 C 
ATOM     15  C   LIG    1       -0.724   3.110   1.292  0.00  0.00    +0.020 C 
ATOM     16  C   LIG    1       -1.474   3.641   0.066  0.00  0.00    +0.280 C 
ENDBRANCH   8  11
ENDBRANCH   5   8
BRANCH   1  18
ATOM     17  O   LIG    1       -3.502   7.955  -4.102  0.00  0.00    -0.480 OA
ATOM     18  C   LIG    1       -3.950   7.001  -4.706  0.00  0.00    +0.510 C 
BRANCH  18  19
ATOM     19  O   LIG    1       -4.991   7.163  -5.545  0.00  0.00    -0.330 OA
BRANCH  19  20
ATOM     20  C   LIG    1       -5.527   8.506  -5.679  0.00  0.00    +0.160 C 
ATOM     21  C   LIG    1       -7.018   8.453  -6.079  0.00  0.00    +0.070 C 
ATOM     22  C   LIG    1       -7.088   9.502  -7.212  0.00  0.00    +0.270 C 
ATOM     23  O   LIG    1       -5.742   9.523  -7.772  0.00  0.00    -0.330 OA
ATOM     24  C   LIG    1       -4.846   9.234  -6.818  0.00  0.00    +0.470 C 
ATOM     25  O   LIG    1       -3.671   9.512  -6.861  0.00  0.00    -0.420 OA
ENDBRANCH  19  20
ENDBRANCH  18  19
ENDBRANCH   1  18
TORSDOF 5
