REMARK  Name = ZINCpk000000mJDI.0
REMARK                            x       y       z     vdW  Elec       q    Type
REMARK                         _______ _______ _______ _____ _____    ______ ____
ROOT
ATOM      1  C   LIG    1       -2.502  -3.002  -2.392  0.00  0.00    -0.220 A 
ATOM      2  C   LIG    1       -3.342  -2.275  -3.241  0.00  0.00    +0.380 A 
ATOM      3  N   LIG    1       -4.029  -2.867  -4.196  0.00  0.00    -0.510 NA
ATOM      4  C   LIG    1       -3.966  -4.175  -4.390  0.00  0.00    +0.420 A 
ATOM      5  N   LIG    1       -4.694  -4.787  -5.391  0.00  0.00    -0.620 N 
ATOM      6  H   LIG    1       -5.264  -4.250  -5.965  0.00  0.00    +0.440 HD
ATOM      7  C   LIG    1       -4.624  -6.114  -5.582  0.00  0.00    +0.720 A 
ATOM      8  N   LIG    1       -3.858  -6.921  -4.831  0.00  0.00    -0.660 N 
ATOM      9  H   LIG    1       -3.846  -7.874  -5.014  0.00  0.00    +0.440 HD
ATOM     10  C   LIG    1       -3.105  -6.428  -3.824  0.00  0.00    +0.570 A 
ATOM     11  O   LIG    1       -2.412  -7.161  -3.145  0.00  0.00    -0.480 OA
ATOM     12  O   LIG    1       -5.284  -6.607  -6.476  0.00  0.00    -0.520 OA
ATOM     13  C   LIG    1       -3.145  -4.977  -3.572  0.00  0.00    -0.250 A 
ATOM     14  C   LIG    1       -2.400  -4.389  -2.556  0.00  0.00    +0.260 A 
ENDROOT
BRANCH   1  16
ATOM     15  N   LIG    1       -2.293  -1.293  -0.653  0.00  0.00    -0.600 N 
ATOM     16  C   LIG    1       -1.737  -2.316  -1.331  0.00  0.00    +0.570 C 
ATOM     17  O   LIG    1       -0.605  -2.675  -1.069  0.00  0.00    -0.510 OA
BRANCH  15  18
ATOM     18  C   LIG    1       -3.600  -0.770  -1.059  0.00  0.00    +0.300 C 
BRANCH  18  20
ATOM     19  C   LIG    1       -4.127   1.081  -2.561  0.00  0.00    +0.030 C 
ATOM     20  C   LIG    1       -3.448   0.655  -1.525  0.00  0.00    -0.070 C 
ENDBRANCH  18  20
ENDBRANCH  15  18
BRANCH  15  21
ATOM     21  C   LIG    1       -1.591  -0.703   0.489  0.00  0.00    +0.350 C 
BRANCH  21  22
ATOM     22  C   LIG    1       -0.710   0.423   0.011  0.00  0.00    -0.110 A 
ATOM     23  C   LIG    1       -1.208   1.711  -0.052  0.00  0.00    +0.020 A 
ATOM     24  C   LIG    1       -0.400   2.743  -0.490  0.00  0.00    +0.000 A 
ATOM     25  C   LIG    1        0.905   2.488  -0.867  0.00  0.00    +0.010 A 
ATOM     26  C   LIG    1        1.403   1.200  -0.803  0.00  0.00    +0.000 A 
ATOM     27  C   LIG    1        0.596   0.167  -0.364  0.00  0.00    +0.040 A 
ENDBRANCH  21  22
ENDBRANCH  15  21
ENDBRANCH   1  16
TORSDOF 5
