REMARK  Name = ZINCrH00000No4We.0
REMARK                            x       y       z     vdW  Elec       q    Type
REMARK                         _______ _______ _______ _____ _____    ______ ____
ROOT
ATOM      1  C   LIG    1       -1.047   0.242   9.184  0.00  0.00    -0.220 A 
ATOM      2  C   LIG    1       -0.196  -0.609   8.470  0.00  0.00    +0.100 A 
ATOM      3  C   LIG    1        0.297  -0.208   7.251  0.00  0.00    -0.010 A 
ATOM      4  C   LIG    1       -0.038   1.033   6.716  0.00  0.00    -0.050 A 
ATOM      5  C   LIG    1        0.557   1.401   5.379  0.00  0.00    +0.340 C 
ATOM      6  N   LIG    1       -0.111   2.596   4.852  0.00  0.00    -0.610 N 
ATOM      7  C   LIG    1       -0.338   3.710   5.787  0.00  0.00    +0.290 C 
ATOM      8  C   LIG    1       -1.310   3.218   6.867  0.00  0.00    +0.090 C 
ATOM      9  C   LIG    1       -0.495   2.673   3.563  0.00  0.00    +0.560 C 
ATOM     10  O   LIG    1       -1.045   3.673   3.153  0.00  0.00    -0.530 OA
ATOM     11  C   LIG    1       -0.881   1.877   7.402  0.00  0.00    -0.110 A 
ATOM     12  C   LIG    1       -1.387   1.488   8.642  0.00  0.00    +0.160 A 
ENDROOT
BRANCH   9  13
ATOM     13  C   LIG    1       -0.241   1.516   2.630  0.00  0.00    -0.040 C 
ATOM     14  C   LIG    1       -0.080   1.831   1.141  0.00  0.00    +0.100 C 
ATOM     15  C   LIG    1        1.131   1.430   1.974  0.00  0.00    -0.070 C 
ATOM     16  C   LIG    1        1.829   0.076   1.762  0.00  0.00    +0.080 C 
ATOM     17  C   LIG    1        3.250   0.499   1.329  0.00  0.00    +0.090 C 
ATOM     18  C   LIG    1        3.455   1.875   1.927  0.00  0.00    -0.080 A 
ATOM     19  C   LIG    1        4.616   2.599   2.133  0.00  0.00    +0.050 A 
ATOM     20  C   LIG    1        4.561   3.857   2.702  0.00  0.00    -0.080 A 
ATOM     21  C   LIG    1        3.341   4.395   3.070  0.00  0.00    +0.040 A 
ATOM     22  C   LIG    1        2.181   3.673   2.866  0.00  0.00    +0.030 A 
ATOM     23 BR   LIG    1        6.152   4.842   2.979  0.00  0.00    -0.050 Br
ATOM     24  C   LIG    1        2.234   2.413   2.296  0.00  0.00    -0.050 A 
ENDBRANCH   9  13
BRANCH   1  26
ATOM     25  O   LIG    1       -1.283  -1.249  10.954  0.00  0.00    -0.460 OA
ATOM     26  C   LIG    1       -1.580  -0.168  10.489  0.00  0.00    +0.490 C 
ENDBRANCH   1  26
BRANCH  12  27
ATOM     27  O   LIG    1       -2.209   2.321   9.326  0.00  0.00    -0.490 OA
ATOM     28  H   LIG    1       -1.749   2.927   9.923  0.00  0.00    +0.400 HD
ENDBRANCH  12  27
TORSDOF 3
