REMARK  Name = ZINCrg00001JduQu.0
REMARK                            x       y       z     vdW  Elec       q    Type
REMARK                         _______ _______ _______ _____ _____    ______ ____
ROOT
ATOM      1  C   LIG    1       11.723   2.599  -2.671  0.00  0.00    +0.580 C 
ATOM      2  N   LIG    1       10.488   2.679  -2.136  0.00  0.00    -0.620 N 
ATOM      3  C   LIG    1        9.242   2.139  -2.694  0.00  0.00    +0.350 C 
ATOM      4  C   LIG    1        8.131   2.486  -1.728  0.00  0.00    -0.170 C 
ATOM      5  C   LIG    1        8.612   3.146  -0.714  0.00  0.00    -0.170 C 
ATOM      6  C   LIG    1        7.500   3.493   0.252  0.00  0.00    +0.350 C 
ATOM      7  N   LIG    1        6.255   2.953  -0.305  0.00  0.00    -0.610 N 
ATOM      8  C   LIG    1        5.020   3.033   0.229  0.00  0.00    +0.570 C 
ATOM      9  O   LIG    1        4.853   3.602   1.287  0.00  0.00    -0.490 OA
ATOM     10  C   LIG    1        6.638   2.303  -1.563  0.00  0.00    +0.340 C 
ATOM     11  C   LIG    1       10.106   3.324  -0.875  0.00  0.00    +0.340 C 
ATOM     12  O   LIG    1       11.890   2.029  -3.732  0.00  0.00    -0.540 OA
ENDROOT
BRANCH   8  13
ATOM     13  C   LIG    1        3.847   2.416  -0.488  0.00  0.00    -0.410 C 
ATOM     14  C   LIG    1        3.584   0.979   0.008  0.00  0.00    +0.170 C 
ATOM     15  C   LIG    1        2.109   0.670  -0.004  0.00  0.00    -0.160 A 
ATOM     16  C   LIG    1        1.296  -0.423  -0.009  0.00  0.00    +0.210 A 
ATOM     17  N   LIG    1        0.002  -0.004   0.002  0.00  0.00    -0.540 N 
ATOM     18  H   LIG    1       -0.779  -0.580   0.004  0.00  0.00    +0.430 HD
ATOM     19  C   LIG    1       -0.016   1.359   0.009  0.00  0.00    +0.330 A 
ATOM     20  C   LIG    1        1.256   1.790  -0.000  0.00  0.00    -0.720 A 
ATOM     21  S   LIG    1        2.276   3.241  -0.019  0.00  0.00    +2.530 S 
ATOM     22  O   LIG    1        2.306   3.700   1.325  0.00  0.00    -0.890 OA
ATOM     23  O   LIG    1        1.773   4.045  -1.077  0.00  0.00    -0.930 OA
ENDBRANCH   8  13
BRANCH   1  25
ATOM     24  C   LIG    1       14.086   3.123  -2.498  0.00  0.00    +0.080 C 
ATOM     25  C   LIG    1       12.867   3.201  -1.970  0.00  0.00    -0.090 C 
BRANCH  24  26
ATOM     26  C   LIG    1       15.258   3.740  -1.780  0.00  0.00    +0.060 C 
BRANCH  26  28
ATOM     27  C   LIG    1       17.533   3.307  -0.840  0.00  0.00    +0.030 C 
ATOM     28  C   LIG    1       16.342   2.680  -1.569  0.00  0.00    +0.010 C 
ENDBRANCH  26  28
ENDBRANCH  24  26
ENDBRANCH   1  25
TORSDOF 4
