REMARK  Name = ZINCpk000000ozvg.0
REMARK                            x       y       z     vdW  Elec       q    Type
REMARK                         _______ _______ _______ _____ _____    ______ ____
ROOT
ATOM      1  N   LIG    1       -1.372  -0.511   0.012  0.00  0.00    -0.560 N 
ATOM      2  C   LIG    1       -2.088  -0.766  -1.089  0.00  0.00    +0.710 C 
ATOM      3  N   LIG    1       -3.321  -1.224  -0.806  0.00  0.00    -0.710 N 
ATOM      4  H   LIG    1       -4.007  -1.472  -1.445  0.00  0.00    +0.440 HD
ATOM      5  C   LIG    1       -3.425  -1.275   0.662  0.00  0.00    +0.230 C 
ATOM      6  O   LIG    1       -1.671  -0.602  -2.219  0.00  0.00    -0.540 OA
ATOM      7  C   LIG    1       -2.070  -0.784   1.133  0.00  0.00    +0.530 C 
ATOM      8  O   LIG    1       -1.693  -0.661   2.278  0.00  0.00    -0.460 OA
ENDROOT
BRANCH   1   9
ATOM      9  C   LIG    1        0.002  -0.004   0.002  0.00  0.00    +0.360 C 
BRANCH   9  11
ATOM     10  N   LIG    1        1.139   2.192   0.003  0.00  0.00    -0.610 N 
ATOM     11  C   LIG    1       -0.018   1.503   0.010  0.00  0.00    +0.500 C 
ATOM     12  O   LIG    1       -1.077   2.095   0.018  0.00  0.00    -0.530 OA
BRANCH  10  14
ATOM     13  C   LIG    1        2.849   1.236  -1.461  0.00  0.00    +0.010 C 
ATOM     14  C   LIG    1        2.418   1.477  -0.013  0.00  0.00    +0.270 C 
ENDBRANCH  10  14
BRANCH  10  15
ATOM     15  C   LIG    1        1.120   3.657   0.011  0.00  0.00    +0.270 C 
ATOM     16  C   LIG    1        1.127   4.160   1.456  0.00  0.00    +0.020 C 
ENDBRANCH  10  15
ENDBRANCH   9  11
ENDBRANCH   1   9
BRANCH   5  17
ATOM     17  C   LIG    1       -3.670  -2.710   1.135  0.00  0.00    +0.140 C 
BRANCH  17  18
ATOM     18  C   LIG    1       -5.028  -3.167   0.667  0.00  0.00    -0.180 A 
ATOM     19  C   LIG    1       -6.171  -3.125   1.369  0.00  0.00    +0.240 A 
ATOM     20  N   LIG    1       -7.200  -3.622   0.617  0.00  0.00    -0.590 N 
ATOM     21  H   LIG    1       -8.122  -3.691   0.910  0.00  0.00    +0.420 HD
ATOM     22  C   LIG    1       -6.730  -4.017  -0.616  0.00  0.00    +0.100 A 
ATOM     23  C   LIG    1       -7.334  -4.581  -1.735  0.00  0.00    -0.010 A 
ATOM     24  C   LIG    1       -6.576  -4.870  -2.848  0.00  0.00    +0.030 A 
ATOM     25  C   LIG    1       -5.213  -4.604  -2.866  0.00  0.00    -0.020 A 
ATOM     26  C   LIG    1       -4.600  -4.050  -1.778  0.00  0.00    +0.040 A 
ATOM     27  C   LIG    1       -5.349  -3.749  -0.639  0.00  0.00    -0.100 A 
ENDBRANCH  17  18
ENDBRANCH   5  17
TORSDOF 6
