REMARK  Name = ZINCpk000000pFJa.0
REMARK                            x       y       z     vdW  Elec       q    Type
REMARK                         _______ _______ _______ _____ _____    ______ ____
ROOT
ATOM      1  C   LIG    1       -4.238   2.727  -1.803  0.00  0.00    +0.260 C 
ATOM      2  C   LIG    1       -5.672   2.268  -1.958  0.00  0.00    +0.510 C 
ATOM      3  N   LIG    1       -6.660   3.176  -1.918  0.00  0.00    -0.720 N 
ATOM      4  H   LIG    1       -7.578   2.896  -2.058  0.00  0.00    +0.400 HD
ATOM      5  C   LIG    1       -6.359   4.589  -1.663  0.00  0.00    +0.270 C 
ATOM      6  C   LIG    1       -5.946   4.756  -0.199  0.00  0.00    +0.020 C 
ATOM      7  C   LIG    1       -4.447   4.553  -0.050  0.00  0.00    +0.270 C 
ATOM      8  O   LIG    1       -5.925   1.093  -2.117  0.00  0.00    -0.530 OA
ATOM      9  N   LIG    1       -4.043   3.201  -0.429  0.00  0.00    -0.600 N 
ATOM     10  C   LIG    1       -3.492   2.384   0.490  0.00  0.00    +0.570 C 
ATOM     11  O   LIG    1       -3.063   1.297   0.158  0.00  0.00    -0.500 OA
ENDROOT
BRANCH  10  12
ATOM     12  C   LIG    1       -3.409   2.810   1.904  0.00  0.00    -0.250 A 
ATOM     13  C   LIG    1       -4.537   3.295   2.576  0.00  0.00    +0.360 A 
ATOM     14  N   LIG    1       -4.417   3.670   3.837  0.00  0.00    -0.510 NA
ATOM     15  C   LIG    1       -3.259   3.587   4.462  0.00  0.00    +0.350 A 
ATOM     16  N   LIG    1       -2.173   3.132   3.869  0.00  0.00    -0.510 NA
ATOM     17  C   LIG    1       -2.203   2.735   2.608  0.00  0.00    +0.230 A 
ATOM     18  C   LIG    1       -0.956   2.216   1.940  0.00  0.00    +0.160 C 
BRANCH  15  19
ATOM     19  C   LIG    1       -3.173   4.028   5.901  0.00  0.00    +0.080 C 
ATOM     20  C   LIG    1       -4.132   3.190   6.752  0.00  0.00    +0.010 C 
ATOM     21  C   LIG    1       -4.098   3.698   8.195  0.00  0.00    +0.210 C 
ATOM     22  O   LIG    1       -4.444   5.084   8.221  0.00  0.00    -0.380 OA
ATOM     23  C   LIG    1       -3.553   5.922   7.482  0.00  0.00    +0.210 C 
ATOM     24  C   LIG    1       -3.567   5.505   6.009  0.00  0.00    +0.020 C 
ENDBRANCH  15  19
ENDBRANCH  10  12
BRANCH   1  26
ATOM     25  C   LIG    1       -2.488   3.812  -3.218  0.00  0.00    +0.030 C 
ATOM     26  C   LIG    1       -3.954   3.866  -2.784  0.00  0.00    +0.020 C 
ENDBRANCH   1  26
TORSDOF 3
