REMARK  Name = ZINCrH000004ums2.0
REMARK                            x       y       z     vdW  Elec       q    Type
REMARK                         _______ _______ _______ _____ _____    ______ ____
ROOT
ATOM      1  C   LIG    1       -6.226  -0.821  -2.562  0.00  0.00    -0.100 A 
ATOM      2  C   LIG    1       -7.030  -0.709  -1.427  0.00  0.00    +0.040 A 
ATOM      3  C   LIG    1       -6.536  -0.101  -0.292  0.00  0.00    +0.100 A 
ATOM      4  C   LIG    1       -5.236   0.400  -0.283  0.00  0.00    -0.150 A 
ATOM      5  C   LIG    1       -4.695   1.054   0.934  0.00  0.00    +0.530 C 
ATOM      6  O   LIG    1       -3.504   1.693   0.816  0.00  0.00    -0.350 OA
ATOM      7  C   LIG    1       -2.514   0.980   0.019  0.00  0.00    +0.240 C 
ATOM      8  C   LIG    1       -3.026   0.838  -1.414  0.00  0.00    +0.110 C 
ATOM      9  O   LIG    1       -5.293   1.019   1.991  0.00  0.00    -0.440 OA
ATOM     10  C   LIG    1       -4.430   0.292  -1.417  0.00  0.00    -0.040 A 
ATOM     11  C   LIG    1       -4.925  -0.318  -2.551  0.00  0.00    +0.080 A 
ENDROOT
BRANCH   7  12
ATOM     12  C   LIG    1       -1.219   1.751   0.017  0.00  0.00    -0.100 A 
ATOM     13  C   LIG    1       -0.013   1.076   0.008  0.00  0.00    +0.030 A 
ATOM     14  C   LIG    1        1.175   1.783   0.000  0.00  0.00    +0.010 A 
ATOM     15  C   LIG    1        1.156   3.165   0.008  0.00  0.00    +0.020 A 
ATOM     16  C   LIG    1       -0.050   3.840   0.022  0.00  0.00    +0.010 A 
ATOM     17  C   LIG    1       -1.238   3.133   0.030  0.00  0.00    +0.040 A 
ENDBRANCH   7  12
BRANCH   1  19
ATOM     18  O   LIG    1       -6.056  -1.574  -4.769  0.00  0.00    -0.520 OA
ATOM     19  C   LIG    1       -6.755  -1.476  -3.780  0.00  0.00    +0.560 C 
ATOM     20  N   LIG    1       -8.012  -1.962  -3.792  0.00  0.00    -0.730 N 
ATOM     21  H   LIG    1       -8.570  -1.884  -3.002  0.00  0.00    +0.400 HD
BRANCH  20  22
ATOM     22  C   LIG    1       -8.536  -2.610  -4.997  0.00  0.00    +0.280 C 
BRANCH  22  23
ATOM     23  C   LIG    1       -9.973  -3.068  -4.746  0.00  0.00    +0.140 C 
BRANCH  23  24
ATOM     24  C   LIG    1      -10.512  -3.734  -5.986  0.00  0.00    -0.020 A 
ATOM     25  C   LIG    1      -10.419  -5.044  -6.279  0.00  0.00    -0.050 A 
ATOM     26  C   LIG    1      -11.056  -5.230  -7.527  0.00  0.00    -0.060 A 
ATOM     27  C   LIG    1      -11.493  -4.022  -7.926  0.00  0.00    +0.160 A 
ATOM     28  O   LIG    1      -11.161  -3.120  -6.989  0.00  0.00    -0.170 OA
ENDBRANCH  23  24
ENDBRANCH  22  23
ENDBRANCH  20  22
ENDBRANCH   1  19
TORSDOF 5
