REMARK  Name = ZINCtV000002OnCA.0
REMARK                            x       y       z     vdW  Elec       q    Type
REMARK                         _______ _______ _______ _____ _____    ______ ____
ROOT
ATOM      1  O   LIG    1        3.486   3.407  -0.334  0.00  0.00    -0.490 OA
ATOM      2  C   LIG    1        2.420   3.969  -0.167  0.00  0.00    +0.550 C 
ATOM      3  N   LIG    1        2.382   5.305   0.007  0.00  0.00    -0.670 N 
ATOM      4  H   LIG    1        1.529   5.762   0.064  0.00  0.00    +0.410 HD
ENDROOT
BRANCH   3   5
ATOM      5  C   LIG    1        3.575   6.032   0.106  0.00  0.00    +0.160 A 
ATOM      6  C   LIG    1        3.640   7.327  -0.389  0.00  0.00    +0.000 A 
ATOM      7  C   LIG    1        4.816   8.048  -0.292  0.00  0.00    +0.060 A 
ATOM      8  C   LIG    1        5.930   7.480   0.299  0.00  0.00    +0.010 A 
ATOM      9  O   LIG    1        7.194   7.964   0.520  0.00  0.00    -0.290 OA
ATOM     10  C   LIG    1        7.990   6.782   0.691  0.00  0.00    +0.250 C 
ATOM     11  O   LIG    1        7.092   5.859   1.323  0.00  0.00    -0.290 OA
ATOM     12  C   LIG    1        9.213   7.059   1.572  0.00  0.00    +0.080 C 
ATOM     13  C   LIG    1       10.317   6.149   0.973  0.00  0.00    +0.040 C 
ATOM     14  C   LIG    1       10.036   6.220  -0.549  0.00  0.00    +0.030 C 
ATOM     15  C   LIG    1        8.494   6.247  -0.649  0.00  0.00    +0.020 C 
ATOM     16  C   LIG    1        5.868   6.177   0.796  0.00  0.00    +0.050 A 
ATOM     17  C   LIG    1        4.690   5.460   0.705  0.00  0.00    +0.050 A 
ENDBRANCH   3   5
BRANCH   2  18
ATOM     18  C   LIG    1        1.170   3.188  -0.154  0.00  0.00    -0.140 A 
ATOM     19  C   LIG    1       -0.057   3.828   0.039  0.00  0.00    +0.070 A 
ATOM     20  C   LIG    1       -1.221   3.092   0.050  0.00  0.00    -0.010 A 
ATOM     21  C   LIG    1       -1.185   1.719  -0.134  0.00  0.00    +0.070 A 
ATOM     22  C   LIG    1        0.019   1.071  -0.320  0.00  0.00    -0.020 A 
ATOM     23  C   LIG    1        1.205   1.795  -0.335  0.00  0.00    -0.040 A 
BRANCH  23  24
ATOM     24  S   LIG    1        2.743   0.972  -0.579  0.00  0.00    +0.020 S 
BRANCH  24  25
ATOM     25  C   LIG    1        2.252  -0.766  -0.756  0.00  0.00    +0.090 C 
BRANCH  25  26
ATOM     26  C   LIG    1        3.478  -1.615  -0.974  0.00  0.00    -0.090 A 
ATOM     27  C   LIG    1        4.162  -2.160   0.033  0.00  0.00    -0.030 A 
ATOM     28  S   LIG    1        5.521  -3.076  -0.605  0.00  0.00    +0.110 S 
ATOM     29  C   LIG    1        5.071  -2.653  -2.252  0.00  0.00    -0.040 A 
ATOM     30  C   LIG    1        3.977  -1.891  -2.236  0.00  0.00    +0.010 A 
ENDBRANCH  25  26
ENDBRANCH  24  25
ENDBRANCH  23  24
ENDBRANCH   2  18
TORSDOF 5
