REMARK  Name = ZINCpk00000KfKEY.0
REMARK                            x       y       z     vdW  Elec       q    Type
REMARK                         _______ _______ _______ _____ _____    ______ ____
ROOT
ATOM      1  C   LIG    1        3.555   1.788  -0.124  0.00  0.00    +0.510 C 
ATOM      2  N   LIG    1        2.399   1.104  -0.015  0.00  0.00    -0.670 N 
ATOM      3  H   LIG    1        2.412   0.136   0.048  0.00  0.00    +0.420 HD
ATOM      4  O   LIG    1        3.545   3.001  -0.117  0.00  0.00    -0.500 OA
ENDROOT
BRANCH   2   5
ATOM      5  C   LIG    1        1.184   1.788   0.009  0.00  0.00    +0.170 A 
ATOM      6  C   LIG    1        1.098   3.030   0.629  0.00  0.00    +0.010 A 
ATOM      7  C   LIG    1       -0.101   3.705   0.659  0.00  0.00    +0.070 A 
ATOM      8  C   LIG    1       -1.231   3.146   0.056  0.00  0.00    -0.160 A 
ATOM      9  C   LIG    1       -1.141   1.898  -0.567  0.00  0.00    +0.100 A 
ATOM     10  C   LIG    1        0.060   1.226  -0.589  0.00  0.00    -0.010 A 
BRANCH   8  11
ATOM     11  C   LIG    1       -2.518   3.869   0.081  0.00  0.00    +0.570 C 
ATOM     12  O   LIG    1       -3.501   3.380  -0.441  0.00  0.00    -0.540 OA
ATOM     13  N   LIG    1       -2.602   5.073   0.682  0.00  0.00    -0.850 N 
ATOM     14  H   LIG    1       -3.448   5.548   0.698  0.00  0.00    +0.410 HD
ATOM     15  H   LIG    1       -1.818   5.463   1.098  0.00  0.00    +0.400 HD
ENDBRANCH   8  11
ENDBRANCH   2   5
BRANCH   1  17
ATOM     16  C   LIG    1        4.828   0.172  -1.509  0.00  0.00    +0.070 C 
ATOM     17  C   LIG    1        4.860   1.046  -0.253  0.00  0.00    +0.250 C 
BRANCH  17  18
ATOM     18  N   LIG    1        5.960   2.008  -0.356  0.00  0.00    -0.560 N 
ATOM     19  C   LIG    1        6.044   2.914  -1.340  0.00  0.00    +0.530 C 
ATOM     20  C   LIG    1        7.296   3.745  -1.146  0.00  0.00    +0.090 C 
ATOM     21  C   LIG    1        7.916   3.153   0.126  0.00  0.00    -0.100 C 
ATOM     22  C   LIG    1        8.036   4.217   1.224  0.00  0.00    +0.060 C 
ATOM     23  C   LIG    1        9.352   3.850   1.959  0.00  0.00    +0.010 C 
ATOM     24  C   LIG    1       10.270   3.375   0.805  0.00  0.00    +0.020 C 
ATOM     25  C   LIG    1        9.321   2.610  -0.145  0.00  0.00    +0.050 C 
ATOM     26  O   LIG    1        5.244   3.047  -2.241  0.00  0.00    -0.460 OA
ATOM     27  C   LIG    1        6.966   2.059   0.531  0.00  0.00    +0.540 C 
ATOM     28  O   LIG    1        7.090   1.340   1.499  0.00  0.00    -0.470 OA
ENDBRANCH  17  18
ENDBRANCH   1  17
TORSDOF 4
