REMARK  Name = ZINCrD000006V6xY.2
REMARK                            x       y       z     vdW  Elec       q    Type
REMARK                         _______ _______ _______ _____ _____    ______ ____
ROOT
ATOM      1  C   LIG    1        1.081   6.141   4.516  0.00  0.00    +0.100 A 
ATOM      2  C   LIG    1        0.749   6.496   3.221  0.00  0.00    -0.040 A 
ATOM      3  C   LIG    1        1.355   5.866   2.144  0.00  0.00    -0.070 A 
ATOM      4  C   LIG    1        2.295   4.882   2.361  0.00  0.00    -0.110 A 
ATOM      5  C   LIG    1        2.984   4.176   1.222  0.00  0.00    +0.270 C 
ATOM      6  N   LIG    1        2.239   4.367  -0.026  0.00  0.00    -0.530 NA
ATOM      7  C   LIG    1        1.996   5.800  -0.258  0.00  0.00    +0.220 C 
ATOM      8  C   LIG    1        2.631   4.522   3.659  0.00  0.00    -0.030 A 
ATOM      9  C   LIG    1        0.955   6.285   0.752  0.00  0.00    +0.040 C 
ATOM     10  C   LIG    1        2.029   5.146   4.736  0.00  0.00    +0.100 A 
ENDROOT
BRANCH   1  12
ATOM     11  C   LIG    1       -0.478   7.772   5.266  0.00  0.00    +0.240 C 
ATOM     12  O   LIG    1        0.485   6.761   5.569  0.00  0.00    -0.310 OA
ENDBRANCH   1  12
BRANCH  10  13
ATOM     13  O   LIG    1        2.362   4.788   6.005  0.00  0.00    -0.310 OA
ATOM     14  C   LIG    1        3.342   3.758   6.154  0.00  0.00    +0.240 C 
ENDBRANCH  10  13
BRANCH   6  15
ATOM     15  C   LIG    1        0.977   3.615  -0.007  0.00  0.00    +0.200 C 
BRANCH  15  16
ATOM     16  C   LIG    1        1.278   2.115  -0.015  0.00  0.00    +0.070 C 
BRANCH  16  17
ATOM     17  C   LIG    1       -0.017   1.344   0.005  0.00  0.00    +0.520 C 
ATOM     18  N   LIG    1        0.002  -0.004   0.002  0.00  0.00    -0.670 N 
ATOM     19  H   LIG    1        0.845  -0.477  -0.078  0.00  0.00    +0.420 HD
ATOM     20  O   LIG    1       -1.075   1.935   0.018  0.00  0.00    -0.520 OA
BRANCH  18  21
ATOM     21  C   LIG    1       -1.196  -0.722   0.115  0.00  0.00    +0.100 A 
ATOM     22  C   LIG    1       -2.358  -0.230  -0.462  0.00  0.00    +0.090 A 
ATOM     23  C   LIG    1       -3.538  -0.942  -0.355  0.00  0.00    +0.010 A 
ATOM     24  C   LIG    1       -3.564  -2.140   0.339  0.00  0.00    +0.120 A 
ATOM     25  C   LIG    1       -2.408  -2.631   0.921  0.00  0.00    -0.020 A 
ATOM     26  F   LIG    1       -4.720  -2.831   0.447  0.00  0.00    -0.130 F 
ATOM     27  C   LIG    1       -1.224  -1.925   0.811  0.00  0.00    +0.100 A 
ATOM     28  F   LIG    1       -0.096  -2.404   1.380  0.00  0.00    -0.130 F 
ENDBRANCH  18  21
ENDBRANCH  16  17
ENDBRANCH  15  16
ENDBRANCH   6  15
TORSDOF 6
