REMARK  Name = ZINCrD00000l0Y4U.0
REMARK                            x       y       z     vdW  Elec       q    Type
REMARK                         _______ _______ _______ _____ _____    ______ ____
ROOT
ATOM      1  C   LIG    1        2.058  -4.623  -3.552  0.00  0.00    -0.010 C 
ATOM      2  C   LIG    1        1.269  -4.179  -4.782  0.00  0.00    +0.040 C 
ATOM      3  C   LIG    1        0.816  -5.390  -5.626  0.00  0.00    +0.100 C 
ATOM      4  C   LIG    1        0.039  -6.281  -4.668  0.00  0.00    -0.080 A 
ATOM      5  C   LIG    1       -1.255  -6.676  -4.848  0.00  0.00    +0.010 A 
ATOM      6  C   LIG    1       -1.845  -7.492  -3.890  0.00  0.00    +0.000 A 
ATOM      7  C   LIG    1       -1.130  -7.894  -2.778  0.00  0.00    +0.000 A 
ATOM      8  C   LIG    1        0.186  -7.488  -2.601  0.00  0.00    +0.030 A 
ATOM      9  C   LIG    1        0.759  -6.686  -3.546  0.00  0.00    -0.080 A 
ATOM     10  C   LIG    1        2.089  -6.162  -5.940  0.00  0.00    -0.080 A 
ATOM     11  C   LIG    1        2.531  -6.457  -7.197  0.00  0.00    +0.020 A 
ATOM     12  C   LIG    1        3.780  -7.163  -7.315  0.00  0.00    +0.000 A 
ATOM     13  C   LIG    1        4.476  -7.566  -6.190  0.00  0.00    +0.000 A 
ATOM     14  C   LIG    1        3.998  -7.264  -4.921  0.00  0.00    +0.030 A 
ATOM     15  C   LIG    1        2.831  -6.564  -4.807  0.00  0.00    -0.080 A 
ATOM     16  C   LIG    1        2.185  -6.161  -3.491  0.00  0.00    +0.100 C 
ENDROOT
BRANCH   1  17
ATOM     17  C   LIG    1        1.341  -4.130  -2.293  0.00  0.00    +0.260 C 
BRANCH  17  19
ATOM     18  C   LIG    1        0.739  -2.004  -1.265  0.00  0.00    +0.510 C 
ATOM     19  N   LIG    1        1.322  -2.665  -2.285  0.00  0.00    -0.730 N 
ATOM     20  H   LIG    1        1.728  -2.170  -3.014  0.00  0.00    +0.400 HD
ATOM     21  O   LIG    1        0.231  -2.623  -0.354  0.00  0.00    -0.540 OA
BRANCH  18  22
ATOM     22  C   LIG    1        0.718  -0.497  -1.257  0.00  0.00    +0.060 C 
BRANCH  22  23
ATOM     23  C   LIG    1        0.002  -0.004   0.002  0.00  0.00    +0.040 C 
BRANCH  23  24
ATOM     24  C   LIG    1       -0.019   1.526   0.010  0.00  0.00    +0.260 C 
BRANCH  24  27
ATOM     25  C   LIG    1       -1.549   3.806   2.677  0.00  0.00    +0.110 C 
ATOM     26  C   LIG    1       -0.843   3.320   1.438  0.00  0.00    +0.510 C 
ATOM     27  N   LIG    1       -0.704   1.998   1.216  0.00  0.00    -0.730 N 
ATOM     28  H   LIG    1       -1.058   1.359   1.854  0.00  0.00    +0.400 HD
ATOM     29  O   LIG    1       -0.401   4.119   0.639  0.00  0.00    -0.550 OA
ENDBRANCH  24  27
ENDBRANCH  23  24
ENDBRANCH  22  23
ENDBRANCH  18  22
ENDBRANCH  17  19
ENDBRANCH   1  17
TORSDOF 6
