REMARK  Name = ZINCvU000000078W.0
REMARK                            x       y       z     vdW  Elec       q    Type
REMARK                         _______ _______ _______ _____ _____    ______ ____
ROOT
ATOM      1  O   LIG    1       -4.740  -3.540   1.409  0.00  0.00    -0.480 OA
ATOM      2  C   LIG    1       -5.134  -3.818   0.288  0.00  0.00    +0.570 A 
ATOM      3  C   LIG    1       -6.269  -4.657   0.114  0.00  0.00    -0.230 A 
ATOM      4  C   LIG    1       -6.678  -4.944  -1.188  0.00  0.00    +0.090 A 
ATOM      5  S   LIG    1       -8.090  -5.992  -1.153  0.00  0.00    +0.220 S 
ATOM      6  C   LIG    1       -8.110  -6.029   0.599  0.00  0.00    -0.040 A 
ATOM      7  N   LIG    1       -5.999  -4.426  -2.223  0.00  0.00    -0.490 NA
ATOM      8  C   LIG    1       -4.949  -3.650  -2.048  0.00  0.00    +0.400 A 
ATOM      9  C   LIG    1       -4.240  -3.109  -3.218  0.00  0.00    -0.030 A 
ATOM     10  C   LIG    1       -4.648  -3.395  -4.519  0.00  0.00    +0.100 A 
ATOM     11  C   LIG    1       -3.950  -2.863  -5.582  0.00  0.00    +0.040 A 
ATOM     12  C   LIG    1       -2.848  -2.048  -5.368  0.00  0.00    +0.050 A 
ATOM     13  C   LIG    1       -2.427  -1.753  -4.089  0.00  0.00    +0.050 A 
ATOM     14  C   LIG    1       -3.118  -2.280  -2.999  0.00  0.00    -0.080 A 
ATOM     15  C   LIG    1       -2.712  -1.997  -1.616  0.00  0.00    +0.420 A 
ATOM     16  N   LIG    1       -3.379  -2.511  -0.619  0.00  0.00    -0.330 NA
ATOM     17  C   LIG    1       -7.118  -5.300   1.109  0.00  0.00    +0.010 A 
ATOM     18  N   LIG    1       -4.497  -3.331  -0.797  0.00  0.00    -0.340 N 
ENDROOT
BRANCH  17  19
ATOM     19  C   LIG    1       -6.897  -5.154   2.567  0.00  0.00    -0.040 A 
ATOM     20  C   LIG    1       -5.632  -5.376   3.110  0.00  0.00    +0.060 A 
ATOM     21  C   LIG    1       -5.431  -5.234   4.467  0.00  0.00    +0.000 A 
ATOM     22  C   LIG    1       -6.485  -4.881   5.292  0.00  0.00    +0.010 A 
ATOM     23  C   LIG    1       -7.744  -4.664   4.760  0.00  0.00    -0.010 A 
ATOM     24  C   LIG    1       -7.955  -4.798   3.403  0.00  0.00    +0.020 A 
ENDBRANCH  17  19
BRANCH  15  25
ATOM     25  N   LIG    1       -1.615  -1.185  -1.369  0.00  0.00    -0.690 N 
ATOM     26  H   LIG    1       -1.116  -0.806  -2.110  0.00  0.00    +0.420 HD
BRANCH  25  27
ATOM     27  C   LIG    1       -1.208  -0.902   0.009  0.00  0.00    +0.400 C 
BRANCH  27  28
ATOM     28  C   LIG    1        0.002  -0.004   0.002  0.00  0.00    -0.050 A 
ATOM     29  C   LIG    1       -0.016   1.341   0.009  0.00  0.00    -0.030 A 
ATOM     30  C   LIG    1        1.331   1.769  -0.001  0.00  0.00    -0.070 A 
ATOM     31  C   LIG    1        2.092   0.660  -0.014  0.00  0.00    +0.190 A 
ATOM     32  O   LIG    1        1.282  -0.411  -0.012  0.00  0.00    -0.170 OA
ENDBRANCH  27  28
ENDBRANCH  25  27
ENDBRANCH  15  25
TORSDOF 4
