REMARK  Name = ZINCqH00000060aY.0
REMARK                            x       y       z     vdW  Elec       q    Type
REMARK                         _______ _______ _______ _____ _____    ______ ____
ROOT
ATOM      1  C   LIG    1        0.042  -1.832   1.538  0.00  0.00    +0.560 C 
ATOM      2  O   LIG    1        0.042  -2.567   0.570  0.00  0.00    -0.500 OA
ENDROOT
BRANCH   1   3
ATOM      3  C   LIG    1        0.062  -2.403   2.896  0.00  0.00    -0.060 A 
ATOM      4  C   LIG    1        0.083  -3.727   3.216  0.00  0.00    +0.060 A 
ATOM      5  O   LIG    1        0.097  -3.810   4.556  0.00  0.00    -0.180 OA
ATOM      6  C   LIG    1        0.085  -2.560   5.053  0.00  0.00    +0.240 A 
ATOM      7  C   LIG    1        0.090  -4.882   2.248  0.00  0.00    +0.220 C 
ATOM      8  N   LIG    1        0.070  -1.706   4.062  0.00  0.00    -0.430 NA
BRANCH   6   9
ATOM      9  C   LIG    1        0.093  -2.208   6.489  0.00  0.00    -0.030 A 
ATOM     10  C   LIG    1        0.109  -3.213   7.457  0.00  0.00    +0.040 A 
ATOM     11  C   LIG    1        0.121  -2.878   8.796  0.00  0.00    +0.010 A 
ATOM     12  C   LIG    1        0.107  -1.549   9.179  0.00  0.00    +0.030 A 
ATOM     13  C   LIG    1        0.086  -0.548   8.224  0.00  0.00    +0.010 A 
ATOM     14  C   LIG    1        0.078  -0.870   6.883  0.00  0.00    +0.070 A 
ENDBRANCH   6   9
ENDBRANCH   1   3
BRANCH   1  15
ATOM     15  O   LIG    1        0.022  -0.495   1.368  0.00  0.00    -0.330 OA
BRANCH  15  16
ATOM     16  C   LIG    1        0.002  -0.004   0.002  0.00  0.00    +0.290 C 
BRANCH  16  21
ATOM     17  C   LIG    1        1.147   3.603   0.011  0.00  0.00    -0.130 A 
ATOM     18  C   LIG    1       -0.076   4.277   0.026  0.00  0.00    +0.090 A 
ATOM     19  C   LIG    1       -1.255   3.560   0.033  0.00  0.00    +0.010 A 
ATOM     20  C   LIG    1       -1.227   2.177   0.020  0.00  0.00    +0.080 A 
ATOM     21  C   LIG    1       -0.018   1.503   0.010  0.00  0.00    -0.110 A 
ATOM     22  C   LIG    1        1.167   2.207   0.003  0.00  0.00    +0.110 A 
BRANCH  17  23
ATOM     23  C   LIG    1        2.413   4.364   0.003  0.00  0.00    +0.510 C 
ATOM     24  O   LIG    1        3.475   3.776  -0.010  0.00  0.00    -0.500 OA
BRANCH  23  26
ATOM     25  C   LIG    1        3.671   6.393   0.002  0.00  0.00    +0.290 C 
ATOM     26  O   LIG    1        2.389   5.711   0.010  0.00  0.00    -0.350 OA
ENDBRANCH  23  26
ENDBRANCH  17  23
ENDBRANCH  16  21
ENDBRANCH  15  16
ENDBRANCH   1  15
TORSDOF 7
