REMARK  Name = ZINCpe00000MJLOi.0
REMARK                            x       y       z     vdW  Elec       q    Type
REMARK                         _______ _______ _______ _____ _____    ______ ____
ROOT
ATOM      1  C   LIG    1       -1.703   1.843  -4.712  0.00  0.00    +0.370 C 
ATOM      2  C   LIG    1       -2.678   2.821  -5.345  0.00  0.00    -0.400 C 
ATOM      3  C   LIG    1       -3.397   3.619  -4.501  0.00  0.00    +0.300 C 
ATOM      4  N   LIG    1       -3.259   3.552  -3.184  0.00  0.00    -0.590 NA
ATOM      5  C   LIG    1       -2.437   2.732  -2.553  0.00  0.00    +0.590 A 
ATOM      6  N   LIG    1       -2.182   2.545  -1.244  0.00  0.00    -0.510 NA
ATOM      7  C   LIG    1       -1.278   1.613  -1.086  0.00  0.00    +0.390 A 
ATOM      8  N   LIG    1       -0.893   1.150  -2.298  0.00  0.00    -0.460 N 
ATOM      9  H   LIG    1       -0.234   0.461  -2.474  0.00  0.00    +0.450 HD
ATOM     10  C   LIG    1       -4.377   4.604  -5.084  0.00  0.00    +0.150 C 
ATOM     11  N   LIG    1       -1.635   1.858  -3.247  0.00  0.00    -0.430 N 
ENDROOT
BRANCH   1  17
ATOM     12  C   LIG    1        0.654   1.164  -5.232  0.00  0.00    +0.130 A 
ATOM     13  C   LIG    1        1.918   1.442  -5.732  0.00  0.00    -0.080 A 
ATOM     14  C   LIG    1        2.199   2.697  -6.236  0.00  0.00    +0.060 A 
ATOM     15  C   LIG    1        1.220   3.674  -6.247  0.00  0.00    -0.020 A 
ATOM     16  C   LIG    1       -0.042   3.397  -5.754  0.00  0.00    +0.100 A 
ATOM     17  C   LIG    1       -0.328   2.144  -5.249  0.00  0.00    -0.170 A 
BRANCH  12  19
ATOM     18  C   LIG    1        1.463  -0.993  -4.644  0.00  0.00    +0.240 C 
ATOM     19  O   LIG    1        0.377  -0.068  -4.730  0.00  0.00    -0.330 OA
ENDBRANCH  12  19
ENDBRANCH   1  17
BRANCH   2  20
ATOM     20  C   LIG    1       -2.834   2.902  -6.741  0.00  0.00    +0.600 C 
ATOM     21  O   LIG    1       -3.698   3.617  -7.218  0.00  0.00    -0.560 OA
ATOM     22  N   LIG    1       -2.027   2.188  -7.552  0.00  0.00    -0.870 N 
ATOM     23  H   LIG    1       -2.101   2.282  -8.514  0.00  0.00    +0.400 HD
ATOM     24  H   LIG    1       -1.373   1.581  -7.172  0.00  0.00    +0.390 HD
ENDBRANCH   2  20
BRANCH   7  25
ATOM     25  C   LIG    1       -0.744   1.134   0.239  0.00  0.00    +0.170 C 
BRANCH  25  26
ATOM     26  C   LIG    1       -1.423   1.906   1.372  0.00  0.00    +0.070 C 
BRANCH  26  27
ATOM     27  C   LIG    1       -0.880   1.420   2.717  0.00  0.00    +0.180 C 
BRANCH  27  28
ATOM     28  O   LIG    1       -1.514   2.141   3.775  0.00  0.00    -0.570 OA
ATOM     29  H   LIG    1       -1.218   1.884   4.659  0.00  0.00    +0.380 HD
ENDBRANCH  27  28
ENDBRANCH  26  27
ENDBRANCH  25  26
ENDBRANCH   7  25
TORSDOF 7
