REMARK  Name = ZINCzw0000000bz3.0
REMARK                            x       y       z     vdW  Elec       q    Type
REMARK                         _______ _______ _______ _____ _____    ______ ____
ROOT
ATOM      1  O   LIG    1        5.862  -4.783  -3.951  0.00  0.00    -0.500 OA
ATOM      2  C   LIG    1        4.733  -4.351  -3.855  0.00  0.00    +0.520 C 
ATOM      3  N   LIG    1        4.520  -3.138  -3.308  0.00  0.00    -0.630 N 
ATOM      4  C   LIG    1        5.642  -2.319  -2.822  0.00  0.00    +0.330 C 
ATOM      5  C   LIG    1        5.324  -1.858  -1.396  0.00  0.00    +0.270 C 
ATOM      6  N   LIG    1        4.025  -1.175  -1.381  0.00  0.00    -0.390 N 
ATOM      7  C   LIG    1        2.959  -2.120  -1.737  0.00  0.00    +0.260 C 
ATOM      8  H   LIG    1        4.037  -0.418  -2.048  0.00  0.00    +0.420 HD
ATOM      9  C   LIG    1        3.159  -2.594  -3.181  0.00  0.00    +0.310 C 
ENDROOT
BRANCH   6  10
ATOM     10  C   LIG    1        3.771  -0.637  -0.038  0.00  0.00    +0.320 C 
BRANCH  10  11
ATOM     11  C   LIG    1        2.508   0.184  -0.055  0.00  0.00    -0.160 A 
ATOM     12  C   LIG    1        1.355  -0.323   0.461  0.00  0.00    +0.070 A 
ATOM     13  C   LIG    1        0.177   0.422   0.454  0.00  0.00    +0.010 A 
ATOM     14  C   LIG    1        0.145   1.677  -0.070  0.00  0.00    +0.080 A 
ATOM     15  C   LIG    1        1.315   2.235  -0.612  0.00  0.00    -0.060 A 
ATOM     16  C   LIG    1        1.321   3.528  -1.161  0.00  0.00    +0.060 A 
ATOM     17  C   LIG    1        2.474   4.035  -1.678  0.00  0.00    +0.010 A 
ATOM     18  C   LIG    1        3.652   3.291  -1.671  0.00  0.00    +0.050 A 
ATOM     19  C   LIG    1        3.684   2.034  -1.147  0.00  0.00    -0.040 A 
ATOM     20  C   LIG    1        2.514   1.478  -0.605  0.00  0.00    -0.030 A 
ENDBRANCH  10  11
ENDBRANCH   6  10
BRANCH   2  21
ATOM     21  C   LIG    1        3.568  -5.171  -4.346  0.00  0.00    +0.320 C 
BRANCH  21  22
ATOM     22  N   LIG    1        4.059  -6.439  -4.892  0.00  0.00    -1.110 NA
ATOM     23  H   LIG    1        5.002  -6.547  -5.095  0.00  0.00    +0.430 HD
BRANCH  22  24
ATOM     24  S   LIG    1        3.006  -7.688  -5.161  0.00  0.00    +2.700 S 
ATOM     25  O   LIG    1        2.235  -7.826  -3.976  0.00  0.00    -0.950 OA
ATOM     26  O   LIG    1        3.773  -8.747  -5.717  0.00  0.00    -0.940 OA
BRANCH  24  27
ATOM     27  C   LIG    1        1.891  -7.167  -6.422  0.00  0.00    -0.680 A 
ATOM     28  C   LIG    1        0.715  -6.526  -6.080  0.00  0.00    +0.130 A 
ATOM     29  C   LIG    1       -0.163  -6.109  -7.064  0.00  0.00    +0.010 A 
ATOM     30  C   LIG    1        0.136  -6.345  -8.395  0.00  0.00    +0.130 A 
ATOM     31  O   LIG    1       -0.724  -5.944  -9.376  0.00  0.00    -0.320 OA
ATOM     32  C   LIG    1       -0.261  -4.885 -10.217  0.00  0.00    +0.230 C 
ATOM     33  C   LIG    1        0.598  -5.429 -11.347  0.00  0.00    +0.000 C 
ATOM     34  C   LIG    1        1.883  -6.066 -10.842  0.00  0.00    +0.230 C 
ATOM     35  O   LIG    1        1.599  -7.223 -10.053  0.00  0.00    -0.310 OA
ATOM     36  C   LIG    1        1.314  -6.994  -8.739  0.00  0.00    +0.050 A 
ATOM     37  C   LIG    1        2.193  -7.405  -7.751  0.00  0.00    +0.150 A 
ENDBRANCH  24  27
ENDBRANCH  22  24
ENDBRANCH  21  22
ENDBRANCH   2  21
TORSDOF 6
