REMARK  Name = ZINCwl0000000and.0
REMARK                            x       y       z     vdW  Elec       q    Type
REMARK                         _______ _______ _______ _____ _____    ______ ____
ROOT
ATOM      1  C   LIG    1       -1.365   3.822  -0.194  0.00  0.00    +0.190 C 
ATOM      2  C   LIG    1        0.067   4.275  -0.072  0.00  0.00    +0.140 A 
ATOM      3  C   LIG    1        0.511   5.566  -0.012  0.00  0.00    -0.110 A 
ATOM      4  N   LIG    1        1.851   5.551   0.087  0.00  0.00    -0.200 NA
ATOM      5  N   LIG    1        2.269   4.333   0.099  0.00  0.00    -0.050 NA
ATOM      6  N   LIG    1        1.159   3.483   0.003  0.00  0.00    -0.310 N 
ENDROOT
BRANCH   6   7
ATOM      7  C   LIG    1        1.178   2.081  -0.018  0.00  0.00    +0.110 A 
ATOM      8  C   LIG    1        0.487   1.398  -1.005  0.00  0.00    +0.040 A 
ATOM      9  C   LIG    1        0.504   0.017  -1.024  0.00  0.00    +0.040 A 
ATOM     10  C   LIG    1        1.207  -0.673  -0.057  0.00  0.00    +0.050 A 
ATOM     11  C   LIG    1        1.901   0.008   0.935  0.00  0.00    -0.080 A 
ATOM     12  C   LIG    1        2.636  -0.811   1.967  0.00  0.00    +0.380 C 
ATOM     13  N   LIG    1        3.508   0.062   2.760  0.00  0.00    -1.000 NA
ATOM     14  C   LIG    1        2.945   1.341   3.222  0.00  0.00    +0.310 C 
ATOM     15  C   LIG    1        2.635   2.190   1.990  0.00  0.00    +0.070 C 
ATOM     16  C   LIG    1        1.893   1.383   0.956  0.00  0.00    -0.040 A 
BRANCH  13  17
ATOM     17  S   LIG    1        5.064  -0.374   3.122  0.00  0.00    +2.610 S 
ATOM     18  O   LIG    1        5.047  -1.795   3.086  0.00  0.00    -0.950 OA
ATOM     19  O   LIG    1        5.354   0.325   4.324  0.00  0.00    -0.950 OA
ATOM     20  C   LIG    1        6.049   0.284   1.748  0.00  0.00    -0.280 C 
ENDBRANCH  13  17
ENDBRANCH   6   7
BRANCH   3  21
ATOM     21  C   LIG    1       -0.338   6.772  -0.055  0.00  0.00    +0.610 C 
ATOM     22  N   LIG    1        0.226   7.995   0.006  0.00  0.00    -0.720 N 
ATOM     23  H   LIG    1        1.190   8.082   0.079  0.00  0.00    +0.410 HD
ATOM     24  O   LIG    1       -1.545   6.663  -0.146  0.00  0.00    -0.520 OA
BRANCH  22  25
ATOM     25  C   LIG    1       -0.616   9.193  -0.037  0.00  0.00    +0.290 C 
BRANCH  25  26
ATOM     26  C   LIG    1        0.266  10.440   0.049  0.00  0.00    +0.110 C 
BRANCH  26  27
ATOM     27  S   LIG    1       -0.777  11.923  -0.004  0.00  0.00    -0.100 S 
BRANCH  27  28
ATOM     28  S   LIG    1       -1.737  11.876   1.806  0.00  0.00    -0.070 S 
BRANCH  28  29
ATOM     29  C   LIG    1       -0.550  12.680   2.918  0.00  0.00    +0.090 C 
BRANCH  29  30
ATOM     30  C   LIG    1       -0.468  14.171   2.586  0.00  0.00    +0.270 C 
BRANCH  30  31
ATOM     31  N   LIG    1        0.494  14.821   3.486  0.00  0.00    -0.390 N 
ATOM     32  C   LIG    1       -0.007  14.758   4.866  0.00  0.00    +0.330 C 
ATOM     33  C   LIG    1        0.662  16.226   3.091  0.00  0.00    +0.320 C 
ATOM     34  H   LIG    1        1.383  14.347   3.429  0.00  0.00    +0.430 HD
ENDBRANCH  30  31
ENDBRANCH  29  30
ENDBRANCH  28  29
ENDBRANCH  27  28
ENDBRANCH  26  27
ENDBRANCH  25  26
ENDBRANCH  22  25
ENDBRANCH   3  21
TORSDOF 10
