REMARK  Name = ZINCpe000000SJrJ.0
REMARK                            x       y       z     vdW  Elec       q    Type
REMARK                         _______ _______ _______ _____ _____    ______ ____
ROOT
ATOM      1  C   LIG    1       -2.215   8.214  -4.174  0.00  0.00    +0.650 C 
ATOM      2  N   LIG    1       -1.681   6.999  -3.936  0.00  0.00    -0.590 N 
ATOM      3  C   LIG    1       -0.965   6.729  -2.681  0.00  0.00    +0.300 C 
ATOM      4  C   LIG    1        0.438   6.211  -3.018  0.00  0.00    +0.300 C 
ATOM      5  N   LIG    1        0.315   5.133  -4.010  0.00  0.00    -1.000 NA
ATOM      6  C   LIG    1       -0.395   5.405  -5.267  0.00  0.00    +0.300 C 
ATOM      7  C   LIG    1       -1.803   5.921  -4.928  0.00  0.00    +0.290 C 
ATOM      8  O   LIG    1       -2.107   9.097  -3.347  0.00  0.00    -0.560 OA
ENDROOT
BRANCH   5   9
ATOM      9  S   LIG    1        0.972   3.641  -3.717  0.00  0.00    +2.610 S 
ATOM     10  O   LIG    1        1.219   3.107  -5.011  0.00  0.00    -0.940 OA
ATOM     11  O   LIG    1        2.039   3.898  -2.815  0.00  0.00    -0.940 OA
BRANCH   9  12
ATOM     12  C   LIG    1       -0.353   2.718  -2.891  0.00  0.00    -0.480 C 
ATOM     13  C   LIG    1        0.062   1.322  -2.405  0.00  0.00    +0.220 C 
ATOM     14  N   LIG    1       -0.723   1.572  -1.182  0.00  0.00    -0.450 NA
ATOM     15  C   LIG    1       -0.482   3.013  -1.389  0.00  0.00    +0.220 C 
BRANCH  14  16
ATOM     16  C   LIG    1       -0.013   1.086   0.008  0.00  0.00    +0.160 C 
BRANCH  16  17
ATOM     17  C   LIG    1       -0.729   1.579   1.267  0.00  0.00    +0.040 C 
BRANCH  17  18
ATOM     18  C   LIG    1        0.011   1.072   2.506  0.00  0.00    +0.200 C 
BRANCH  18  19
ATOM     19  C   LIG    1       -0.678   1.547   3.717  0.00  0.00    +0.200 C 
ATOM     20  N   LIG    1       -1.210   1.913   4.652  0.00  0.00    -0.430 NA
ENDBRANCH  18  19
ENDBRANCH  17  18
ENDBRANCH  16  17
ENDBRANCH  14  16
ENDBRANCH   9  12
ENDBRANCH   5   9
BRANCH   1  21
ATOM     21  O   LIG    1       -2.867   8.448  -5.328  0.00  0.00    -0.360 OA
BRANCH  21  23
ATOM     22  C   LIG    1       -2.286  10.809  -5.467  0.00  0.00    +0.040 C 
ATOM     23  C   LIG    1       -3.417   9.779  -5.517  0.00  0.00    +0.140 C 
ATOM     24  C   LIG    1       -4.426  10.076  -4.406  0.00  0.00    +0.040 C 
ATOM     25  C   LIG    1       -4.116   9.854  -6.875  0.00  0.00    +0.080 C 
ENDBRANCH  21  23
ENDBRANCH   1  21
TORSDOF 8
