REMARK  Name = ZINCrD00000F5LGP.0
REMARK                            x       y       z     vdW  Elec       q    Type
REMARK                         _______ _______ _______ _____ _____    ______ ____
ROOT
ATOM      1  O   LIG    1       -0.875  -0.682   1.020  0.00  0.00    -0.420 OA
ATOM      2  C   LIG    1        0.084   0.041   0.828  0.00  0.00    +0.530 C 
ATOM      3  S   LIG    1        1.695  -0.464   0.289  0.00  0.00    -0.010 S 
ATOM      4  C   LIG    1        2.368   1.178   0.298  0.00  0.00    -0.240 C 
ATOM      5  C   LIG    1        1.247   2.021   0.735  0.00  0.00    +0.550 C 
ATOM      6  O   LIG    1        1.345   3.228   0.858  0.00  0.00    -0.450 OA
ATOM      7  C   LIG    1        3.627   1.565  -0.024  0.00  0.00    +0.250 C 
ATOM      8  N   LIG    1        0.124   1.369   0.984  0.00  0.00    -0.570 N 
ENDROOT
BRANCH   7   9
ATOM      9  C   LIG    1        3.952   2.995  -0.130  0.00  0.00    -0.100 A 
ATOM     10  C   LIG    1        3.049   3.879  -0.732  0.00  0.00    +0.080 A 
ATOM     11  C   LIG    1        3.360   5.219  -0.823  0.00  0.00    +0.000 A 
ATOM     12  C   LIG    1        4.565   5.689  -0.331  0.00  0.00    +0.040 A 
ATOM     13  C   LIG    1        5.466   4.821   0.261  0.00  0.00    +0.000 A 
ATOM     14  C   LIG    1        5.168   3.479   0.365  0.00  0.00    +0.050 A 
ENDBRANCH   7   9
BRANCH   8  15
ATOM     15  C   LIG    1       -1.070   2.097   1.421  0.00  0.00    +0.310 C 
BRANCH  15  16
ATOM     16  C   LIG    1       -1.087   2.177   2.949  0.00  0.00    +0.270 C 
BRANCH  16  17
ATOM     17  N   LIG    1       -2.281   2.905   3.387  0.00  0.00    -1.110 NA
ATOM     18  H   LIG    1       -2.790   3.430   2.749  0.00  0.00    +0.420 HD
BRANCH  17  19
ATOM     19  S   LIG    1       -2.762   2.831   4.970  0.00  0.00    +2.700 S 
ATOM     20  O   LIG    1       -2.756   1.455   5.327  0.00  0.00    -0.950 OA
ATOM     21  O   LIG    1       -3.913   3.657   5.078  0.00  0.00    -0.950 OA
BRANCH  19  22
ATOM     22  C   LIG    1       -1.504   3.600   5.934  0.00  0.00    -0.680 A 
ATOM     23  C   LIG    1       -0.459   2.846   6.436  0.00  0.00    +0.140 A 
ATOM     24  C   LIG    1        0.530   3.450   7.188  0.00  0.00    +0.020 A 
ATOM     25  C   LIG    1        0.470   4.808   7.447  0.00  0.00    +0.020 A 
ATOM     26  C   LIG    1       -0.578   5.561   6.949  0.00  0.00    +0.020 A 
ATOM     27 CL   LIG    1        1.710   5.566   8.397  0.00  0.00    -0.050 Cl
ATOM     28  C   LIG    1       -1.564   4.957   6.192  0.00  0.00    +0.150 A 
ENDBRANCH  19  22
ENDBRANCH  17  19
ENDBRANCH  16  17
ENDBRANCH  15  16
ENDBRANCH   8  15
TORSDOF 6
