REMARK  Name = ZINCpe000000ZxCb.0
REMARK                            x       y       z     vdW  Elec       q    Type
REMARK                         _______ _______ _______ _____ _____    ______ ____
ROOT
ATOM      1  C   LIG    1       -2.641   1.234   0.033  0.00  0.00    +0.060 C 
ATOM      2  C   LIG    1       -3.511   2.502   0.047  0.00  0.00    +0.290 C 
ATOM      3  N   LIG    1       -2.562   3.619   0.044  0.00  0.00    -0.550 N 
ATOM      4  C   LIG    1       -1.251   3.134   0.029  0.00  0.00    +0.140 A 
ATOM      5  C   LIG    1       -0.047   3.840   0.022  0.00  0.00    -0.030 A 
ATOM      6  C   LIG    1        1.155   3.164   0.008  0.00  0.00    +0.050 A 
ATOM      7  C   LIG    1        1.176   1.782   0.000  0.00  0.00    +0.000 A 
ATOM      8  C   LIG    1       -0.013   1.076   0.008  0.00  0.00    +0.060 A 
ATOM      9  C   LIG    1       -2.904   4.923   0.053  0.00  0.00    +0.510 C 
ATOM     10  O   LIG    1       -4.074   5.243   0.065  0.00  0.00    -0.480 OA
ATOM     11  C   LIG    1       -1.219   1.749   0.017  0.00  0.00    -0.120 A 
ENDROOT
BRANCH   1  12
ATOM     12  C   LIG    1       -2.922   0.408  -1.224  0.00  0.00    +0.020 C 
BRANCH  12  13
ATOM     13  C   LIG    1       -2.140  -0.905  -1.156  0.00  0.00    +0.300 C 
BRANCH  13  19
ATOM     14  O   LIG    1       -4.193  -2.868  -1.592  0.00  0.00    -0.530 OA
ATOM     15  C   LIG    1       -3.403  -2.594  -2.470  0.00  0.00    +0.520 C 
ATOM     16  C   LIG    1       -3.394  -3.212  -3.851  0.00  0.00    +0.050 C 
ATOM     17  C   LIG    1       -2.505  -2.263  -4.687  0.00  0.00    +0.040 C 
ATOM     18  C   LIG    1       -1.624  -1.614  -3.597  0.00  0.00    +0.250 C 
ATOM     19  N   LIG    1       -2.409  -1.696  -2.359  0.00  0.00    -0.620 N 
ENDBRANCH  13  19
ENDBRANCH  12  13
ENDBRANCH   1  12
BRANCH   9  20
ATOM     20  C   LIG    1       -1.833   5.983   0.048  0.00  0.00    +0.390 C 
BRANCH  20  21
ATOM     21  N   LIG    1       -2.457   7.308   0.059  0.00  0.00    -0.310 N 
ATOM     22  C   LIG    1       -2.228   8.292   0.949  0.00  0.00    +0.400 A 
ATOM     23  N   LIG    1       -2.986   9.301   0.597  0.00  0.00    -0.300 NA
ATOM     24  N   LIG    1       -3.647   8.955  -0.454  0.00  0.00    -0.070 NA
ATOM     25  N   LIG    1       -3.325   7.753  -0.784  0.00  0.00    -0.070 NA
ENDBRANCH  20  21
ENDBRANCH   9  20
TORSDOF 5
