REMARK  Name = ZINCrg000000ndOr.0
REMARK                            x       y       z     vdW  Elec       q    Type
REMARK                         _______ _______ _______ _____ _____    ______ ____
ROOT
ATOM      1  C   LIG    1       -4.223  -0.114   0.546  0.00  0.00    -0.000 A 
ATOM      2  C   LIG    1       -3.437   0.921   0.922  0.00  0.00    +0.140 A 
ATOM      3  N   LIG    1       -2.430   0.977   0.019  0.00  0.00    -0.280 N 
ATOM      4  N   LIG    1       -2.609   0.038  -0.843  0.00  0.00    -0.060 NA
ATOM      5  N   LIG    1       -3.666  -0.634  -0.553  0.00  0.00    -0.250 NA
ENDROOT
BRANCH   1   7
ATOM      6  C   LIG    1       -5.151  -1.001   2.668  0.00  0.00    +0.060 C 
ATOM      7  C   LIG    1       -5.479  -0.588   1.232  0.00  0.00    +0.200 C 
ATOM      8  C   LIG    1       -6.508   0.544   1.249  0.00  0.00    +0.020 C 
BRANCH   7   9
ATOM      9  N   LIG    1       -6.029  -1.739   0.504  0.00  0.00    -0.510 NA
ATOM     10  C   LIG    1       -6.276  -1.403  -0.905  0.00  0.00    +0.170 C 
ATOM     11  C   LIG    1       -6.791  -2.645  -1.638  0.00  0.00    +0.230 C 
ATOM     12  O   LIG    1       -7.968  -3.125  -0.982  0.00  0.00    -0.390 OA
ATOM     13  C   LIG    1       -7.763  -3.463   0.393  0.00  0.00    +0.220 C 
ATOM     14  C   LIG    1       -7.258  -2.229   1.146  0.00  0.00    +0.150 C 
ENDBRANCH   7   9
ENDBRANCH   1   7
BRANCH   3  15
ATOM     15  C   LIG    1       -1.330   1.944   0.019  0.00  0.00    +0.370 C 
BRANCH  15  16
ATOM     16  C   LIG    1       -0.014   1.209   0.009  0.00  0.00    +0.500 C 
ATOM     17  N   LIG    1        1.143   1.898   0.001  0.00  0.00    -0.720 N 
ATOM     18  H   LIG    1        1.130   2.868   0.007  0.00  0.00    +0.410 HD
ATOM     19  O   LIG    1        0.002  -0.004   0.002  0.00  0.00    -0.500 OA
BRANCH  17  20
ATOM     20  C   LIG    1        2.422   1.183  -0.015  0.00  0.00    +0.330 C 
BRANCH  20  21
ATOM     21  C   LIG    1        3.554   2.178  -0.020  0.00  0.00    -0.110 A 
ATOM     22  C   LIG    1        4.065   2.636  -1.222  0.00  0.00    +0.070 A 
ATOM     23  C   LIG    1        5.101   3.553  -1.236  0.00  0.00    +0.020 A 
ATOM     24  C   LIG    1        5.639   4.009  -0.050  0.00  0.00    +0.080 A 
ATOM     25  C   LIG    1        5.131   3.547   1.166  0.00  0.00    -0.030 A 
ATOM     26  C   LIG    1        4.082   2.626   1.173  0.00  0.00    +0.090 A 
BRANCH  25  27
ATOM     27  C   LIG    1        5.685   4.016   2.401  0.00  0.00    +0.250 C 
ATOM     28  N   LIG    1        6.124   4.388   3.380  0.00  0.00    -0.410 NA
ENDBRANCH  25  27
ENDBRANCH  20  21
ENDBRANCH  17  20
ENDBRANCH  15  16
ENDBRANCH   3  15
TORSDOF 7
