REMARK  Name = ZINCpe00000yvmUt.0
REMARK                            x       y       z     vdW  Elec       q    Type
REMARK                         _______ _______ _______ _____ _____    ______ ____
ROOT
ATOM      1  C   LIG    1       -2.254   3.181   2.113  0.00  0.00    +0.540 C 
ATOM      2  N   LIG    1       -3.085   4.209   1.848  0.00  0.00    -0.610 N 
ATOM      3  C   LIG    1       -2.943   4.986   0.609  0.00  0.00    +0.270 C 
ATOM      4  C   LIG    1       -2.830   6.468   0.961  0.00  0.00    +0.020 C 
ATOM      5  C   LIG    1       -4.023   6.877   1.827  0.00  0.00    +0.040 C 
ATOM      6  C   LIG    1       -4.014   6.069   3.127  0.00  0.00    +0.050 C 
ATOM      7  C   LIG    1       -4.145   4.578   2.796  0.00  0.00    +0.300 C 
ATOM      8  O   LIG    1       -2.433   2.495   3.097  0.00  0.00    -0.510 OA
ENDROOT
BRANCH   6   9
ATOM      9  C   LIG    1       -5.171   6.495   3.993  0.00  0.00    +0.230 A 
ATOM     10  C   LIG    1       -6.375   6.873   3.419  0.00  0.00    -0.140 A 
ATOM     11  C   LIG    1       -7.416   7.254   4.252  0.00  0.00    +0.370 A 
ATOM     12  N   LIG    1       -7.227   7.255   5.561  0.00  0.00    -0.570 NA
ATOM     13  C   LIG    1       -6.061   6.893   6.077  0.00  0.00    +0.570 A 
ATOM     14  N   LIG    1       -5.049   6.519   5.310  0.00  0.00    -0.570 NA
BRANCH  13  15
ATOM     15  N   LIG    1       -5.898   6.906   7.452  0.00  0.00    -0.820 N 
ATOM     16  H   LIG    1       -6.632   7.178   8.025  0.00  0.00    +0.420 HD
ATOM     17  H   LIG    1       -5.050   6.643   7.842  0.00  0.00    +0.420 HD
ENDBRANCH  13  15
ENDBRANCH   6   9
BRANCH   1  18
ATOM     18  C   LIG    1       -1.103   2.885   1.187  0.00  0.00    +0.240 C 
BRANCH  18  24
ATOM     19  C   LIG    1        0.347   4.747  -0.879  0.00  0.00    +0.310 C 
ATOM     20  N   LIG    1        0.649   4.654   0.552  0.00  0.00    -0.450 N 
ATOM     21  C   LIG    1        1.595   5.350   1.218  0.00  0.00    +0.400 A 
ATOM     22  N   LIG    1        1.571   4.994   2.473  0.00  0.00    -0.490 NA
ATOM     23  C   LIG    1        0.614   4.070   2.652  0.00  0.00    +0.170 A 
ATOM     24  C   LIG    1        0.024   3.846   1.463  0.00  0.00    -0.070 A 
ENDBRANCH  18  24
BRANCH  18  25
ATOM     25  N   LIG    1       -0.639   1.509   1.407  0.00  0.00    -0.510 NA
ATOM     26  C   LIG    1        0.089   1.396   2.678  0.00  0.00    +0.210 C 
ATOM     27  C   LIG    1        0.187   1.045   0.284  0.00  0.00    +0.200 C 
ENDBRANCH  18  25
ENDBRANCH   1  18
TORSDOF 5
