REMARK  Name = ZINCqH0000037cDa.0
REMARK                            x       y       z     vdW  Elec       q    Type
REMARK                         _______ _______ _______ _____ _____    ______ ____
ROOT
ATOM      1  N   LIG    1       -2.312   1.526  -0.886  0.00  0.00    -0.740 N 
ATOM      2  H   LIG    1       -2.188   0.584  -1.083  0.00  0.00    +0.400 HD
ATOM      3  C   LIG    1       -3.347   2.198  -1.428  0.00  0.00    +0.710 C 
ATOM      4  N   LIG    1       -4.211   1.561  -2.243  0.00  0.00    -0.740 N 
ATOM      5  H   LIG    1       -4.087   0.619  -2.439  0.00  0.00    +0.400 HD
ATOM      6  O   LIG    1       -3.501   3.378  -1.181  0.00  0.00    -0.580 OA
ENDROOT
BRANCH   1   8
ATOM      7  C   LIG    1       -1.926   2.223   1.426  0.00  0.00    +0.040 C 
ATOM      8  C   LIG    1       -1.372   2.219   0.000  0.00  0.00    +0.300 C 
BRANCH   8   9
ATOM      9  C   LIG    1       -0.044   1.507  -0.021  0.00  0.00    -0.090 A 
ATOM     10  C   LIG    1       -0.002   0.124  -0.037  0.00  0.00    +0.050 A 
ATOM     11  C   LIG    1        1.213  -0.537  -0.062  0.00  0.00    +0.030 A 
ATOM     12  C   LIG    1        2.392   0.179  -0.072  0.00  0.00    +0.070 A 
ATOM     13  C   LIG    1        2.357   1.575  -0.056  0.00  0.00    -0.020 A 
ATOM     14  C   LIG    1        1.127   2.236  -0.031  0.00  0.00    +0.080 A 
BRANCH  13  15
ATOM     15  C   LIG    1        3.576   2.326  -0.067  0.00  0.00    +0.250 C 
ATOM     16  N   LIG    1        4.544   2.921  -0.076  0.00  0.00    -0.410 NA
ENDBRANCH  13  15
ENDBRANCH   8   9
ENDBRANCH   1   8
BRANCH   4  17
ATOM     17  C   LIG    1       -5.336   2.291  -2.832  0.00  0.00    +0.350 C 
BRANCH  17  18
ATOM     18  C   LIG    1       -6.143   1.357  -3.696  0.00  0.00    -0.110 A 
ATOM     19  C   LIG    1       -5.974   1.366  -5.068  0.00  0.00    +0.030 A 
ATOM     20  C   LIG    1       -6.713   0.510  -5.864  0.00  0.00    +0.050 A 
ATOM     21  C   LIG    1       -7.624  -0.357  -5.290  0.00  0.00    -0.040 A 
ATOM     22  C   LIG    1       -7.796  -0.369  -3.914  0.00  0.00    +0.100 A 
ATOM     23  C   LIG    1       -7.049   0.487  -3.116  0.00  0.00    +0.090 A 
ATOM     24  F   LIG    1       -7.210   0.474  -1.774  0.00  0.00    -0.130 F 
BRANCH  22  25
ATOM     25  O   LIG    1       -8.692  -1.221  -3.348  0.00  0.00    -0.280 OA
BRANCH  25  26
ATOM     26  C   LIG    1       -9.508  -1.989  -4.235  0.00  0.00    +0.120 C 
ATOM     27  C   LIG    1      -11.001  -2.085  -3.916  0.00  0.00    +0.040 C 
ATOM     28  C   LIG    1      -10.092  -3.298  -3.702  0.00  0.00    +0.050 C 
ENDBRANCH  25  26
ENDBRANCH  22  25
ENDBRANCH  17  18
ENDBRANCH   4  17
TORSDOF 7
