REMARK  Name = ZINCrD0000075sFo.0
REMARK                            x       y       z     vdW  Elec       q    Type
REMARK                         _______ _______ _______ _____ _____    ______ ____
ROOT
ATOM      1  C   LIG    1       -1.061  -2.143   0.001  0.00  0.00    +0.300 C 
ENDROOT
BRANCH   1   3
ATOM      2  O   LIG    1       -3.417  -2.012   0.024  0.00  0.00    -0.510 OA
ATOM      3  C   LIG    1       -2.446  -2.738   0.011  0.00  0.00    +0.520 C 
ATOM      4  N   LIG    1       -2.604  -4.076   0.005  0.00  0.00    -0.520 N 
ATOM      5  H   LIG    1       -1.827  -4.657  -0.005  0.00  0.00    +0.440 HD
BRANCH   4   6
ATOM      6  N   LIG    1       -3.891  -4.630   0.014  0.00  0.00    -0.520 N 
ATOM      7  H   LIG    1       -4.668  -4.049   0.025  0.00  0.00    +0.430 HD
ATOM      8  C   LIG    1       -4.050  -5.968   0.009  0.00  0.00    +0.560 C 
ATOM      9  O   LIG    1       -3.076  -6.695  -0.004  0.00  0.00    -0.530 OA
BRANCH   8  10
ATOM     10  C   LIG    1       -5.408  -6.551   0.018  0.00  0.00    -0.130 A 
ATOM     11  C   LIG    1       -6.528  -5.719   0.039  0.00  0.00    +0.040 A 
ATOM     12  C   LIG    1       -7.793  -6.270   0.043  0.00  0.00    +0.010 A 
ATOM     13  C   LIG    1       -7.952  -7.645   0.037  0.00  0.00    +0.040 A 
ATOM     14  C   LIG    1       -6.846  -8.475   0.022  0.00  0.00    +0.000 A 
ATOM     15  C   LIG    1       -5.576  -7.937   0.013  0.00  0.00    +0.090 A 
ENDBRANCH   8  10
ENDBRANCH   4   6
ENDBRANCH   1   3
BRANCH   1  16
ATOM     16  O   LIG    1       -1.157  -0.694   0.009  0.00  0.00    -0.330 OA
BRANCH  16  17
ATOM     17  C   LIG    1        0.002  -0.004   0.002  0.00  0.00    +0.540 C 
ATOM     18  O   LIG    1        1.063  -0.598  -0.011  0.00  0.00    -0.470 OA
BRANCH  17  19
ATOM     19  C   LIG    1       -0.018   1.462   0.010  0.00  0.00    -0.230 A 
ATOM     20  C   LIG    1        1.073   2.238   0.004  0.00  0.00    +0.050 A 
ATOM     21  C   LIG    1        0.831   3.622   0.014  0.00  0.00    -0.100 A 
ATOM     22  C   LIG    1        1.765   4.686   0.010  0.00  0.00    +0.130 A 
ATOM     23  C   LIG    1        1.341   5.977   0.020  0.00  0.00    +0.000 A 
ATOM     24  C   LIG    1       -0.018   6.277   0.035  0.00  0.00    +0.150 A 
ATOM     25  C   LIG    1       -0.950   5.264   0.039  0.00  0.00    +0.020 A 
ATOM     26  F   LIG    1       -0.424   7.566   0.044  0.00  0.00    -0.120 F 
ATOM     27  C   LIG    1       -0.536   3.929   0.028  0.00  0.00    -0.110 A 
ATOM     28 CL   LIG    1        2.679   1.579  -0.016  0.00  0.00    -0.000 Cl
ATOM     29  S   LIG    1       -1.474   2.440   0.022  0.00  0.00    +0.240 S 
ENDBRANCH  17  19
ENDBRANCH  16  17
ENDBRANCH   1  16
TORSDOF 6
