REMARK  Name = ZINCpe000000WryF.2
REMARK                            x       y       z     vdW  Elec       q    Type
REMARK                         _______ _______ _______ _____ _____    ______ ____
ROOT
ATOM      1  N   LIG    1       -4.561  -3.087   1.698  0.00  0.00    -0.650 N 
ATOM      2  H   LIG    1       -5.046  -3.498   0.966  0.00  0.00    +0.420 HD
ATOM      3  C   LIG    1       -3.664  -2.113   1.449  0.00  0.00    +0.500 C 
ATOM      4  O   LIG    1       -3.114  -1.545   2.370  0.00  0.00    -0.510 OA
ENDROOT
BRANCH   1   8
ATOM      5  C   LIG    1       -5.262  -4.394   5.553  0.00  0.00    +0.350 A 
ATOM      6  C   LIG    1       -4.967  -3.054   5.353  0.00  0.00    -0.060 A 
ATOM      7  C   LIG    1       -4.729  -2.596   4.067  0.00  0.00    +0.150 A 
ATOM      8  C   LIG    1       -4.795  -3.505   3.017  0.00  0.00    +0.040 A 
ATOM      9  C   LIG    1       -5.102  -4.837   3.291  0.00  0.00    +0.340 A 
ATOM     10  N   LIG    1       -5.318  -5.236   4.533  0.00  0.00    -0.580 NA
BRANCH   5  12
ATOM     11  C   LIG    1       -5.794  -6.239   6.953  0.00  0.00    +0.260 C 
ATOM     12  O   LIG    1       -5.496  -4.848   6.811  0.00  0.00    -0.300 OA
ENDBRANCH   5  12
BRANCH   9  13
ATOM     13  O   LIG    1       -5.176  -5.733   2.275  0.00  0.00    -0.310 OA
ATOM     14  C   LIG    1       -5.495  -7.082   2.621  0.00  0.00    +0.260 C 
ENDBRANCH   9  13
ENDBRANCH   1   8
BRANCH   3  15
ATOM     15  C   LIG    1       -3.343  -1.729   0.028  0.00  0.00    +0.350 C 
BRANCH  15  16
ATOM     16  N   LIG    1       -2.346  -0.655   0.025  0.00  0.00    -0.540 N 
ATOM     17  C   LIG    1       -2.778   0.745   0.047  0.00  0.00    +0.340 C 
BRANCH  16  18
ATOM     18  C   LIG    1       -1.008  -0.960   0.002  0.00  0.00    +0.540 A 
ATOM     19  C   LIG    1       -0.045   0.063  -0.001  0.00  0.00    -0.110 A 
ATOM     20  N   LIG    1       -0.079   1.405   0.015  0.00  0.00    -0.500 NA
ATOM     21  C   LIG    1        1.160   1.848   0.002  0.00  0.00    +0.400 A 
ATOM     22  N   LIG    1        2.011   0.829  -0.022  0.00  0.00    -0.540 NA
ATOM     23  C   LIG    1        1.320  -0.301  -0.026  0.00  0.00    +0.220 A 
ATOM     24  N   LIG    1        1.640  -1.639  -0.045  0.00  0.00    -0.540 N 
ATOM     25  H   LIG    1        2.569  -1.917  -0.063  0.00  0.00    +0.430 HD
ATOM     26  C   LIG    1        0.661  -2.559  -0.041  0.00  0.00    +0.650 A 
ATOM     27  N   LIG    1       -0.605  -2.234  -0.019  0.00  0.00    -0.580 NA
ENDBRANCH  16  18
ENDBRANCH  15  16
ENDBRANCH   3  15
TORSDOF 6
