REMARK  Name = ZINCpe000000WryF.1
REMARK                            x       y       z     vdW  Elec       q    Type
REMARK                         _______ _______ _______ _____ _____    ______ ____
ROOT
ATOM      1  N   LIG    1        4.643   6.860  -0.292  0.00  0.00    -0.660 N 
ATOM      2  H   LIG    1        3.928   7.510  -0.213  0.00  0.00    +0.420 HD
ATOM      3  C   LIG    1        4.362   5.543  -0.273  0.00  0.00    +0.510 C 
ATOM      4  O   LIG    1        5.246   4.731  -0.448  0.00  0.00    -0.510 OA
ENDROOT
BRANCH   1   8
ATOM      5  C   LIG    1        8.537   8.195  -0.640  0.00  0.00    +0.350 A 
ATOM      6  C   LIG    1        8.174   7.033  -1.306  0.00  0.00    -0.060 A 
ATOM      7  C   LIG    1        6.872   6.570  -1.201  0.00  0.00    +0.160 A 
ATOM      8  C   LIG    1        5.972   7.292  -0.426  0.00  0.00    +0.040 A 
ATOM      9  C   LIG    1        6.404   8.454   0.210  0.00  0.00    +0.340 A 
ATOM     10  N   LIG    1        7.657   8.862   0.090  0.00  0.00    -0.580 NA
BRANCH   5  12
ATOM     11  C   LIG    1       10.124   9.855  -0.031  0.00  0.00    +0.260 C 
ATOM     12  O   LIG    1        9.811   8.654  -0.739  0.00  0.00    -0.300 OA
ENDBRANCH   5  12
BRANCH   9  13
ATOM     13  O   LIG    1        5.533   9.172   0.964  0.00  0.00    -0.310 OA
ATOM     14  C   LIG    1        6.038  10.354   1.590  0.00  0.00    +0.260 C 
ENDBRANCH   9  13
ENDBRANCH   1   8
BRANCH   3  15
ATOM     15  C   LIG    1        2.949   5.077  -0.033  0.00  0.00    +0.260 C 
BRANCH  15  16
ATOM     16  N   LIG    1        2.906   3.609  -0.059  0.00  0.00    -0.440 N 
ATOM     17  C   LIG    1        3.657   3.040   1.068  0.00  0.00    +0.260 C 
BRANCH  16  18
ATOM     18  C   LIG    1        1.600   3.151  -0.066  0.00  0.00    +0.430 A 
ATOM     19  C   LIG    1        1.321   1.774  -0.091  0.00  0.00    -0.060 A 
ATOM     20  N   LIG    1        2.075   0.650  -0.111  0.00  0.00    -0.460 NA
ATOM     21  C   LIG    1        1.297  -0.394  -0.129  0.00  0.00    +0.500 A 
ATOM     22  N   LIG    1       -0.008  -0.001  -0.120  0.00  0.00    -0.580 N 
ATOM     23  H   LIG    1       -0.783  -0.585  -0.129  0.00  0.00    +0.430 HD
ATOM     24  C   LIG    1       -0.025   1.370  -0.097  0.00  0.00    +0.290 A 
ATOM     25  N   LIG    1       -0.978   2.297  -0.075  0.00  0.00    -0.540 NA
ATOM     26  C   LIG    1       -0.669   3.576  -0.056  0.00  0.00    +0.560 A 
ATOM     27  N   LIG    1        0.580   4.004  -0.050  0.00  0.00    -0.570 NA
ENDBRANCH  16  18
ENDBRANCH  15  16
ENDBRANCH   3  15
TORSDOF 6
