REMARK  Name = ZINCpe000000WryF.0
REMARK                            x       y       z     vdW  Elec       q    Type
REMARK                         _______ _______ _______ _____ _____    ______ ____
ROOT
ATOM      1  N   LIG    1        1.139   2.192   0.003  0.00  0.00    -0.650 N 
ATOM      2  H   LIG    1        1.986   1.720   0.052  0.00  0.00    +0.420 HD
ATOM      3  C   LIG    1       -0.019   1.504   0.029  0.00  0.00    +0.520 C 
ATOM      4  O   LIG    1       -1.077   2.097   0.040  0.00  0.00    -0.510 OA
ENDROOT
BRANCH   1   8
ATOM      5  C   LIG    1        1.155   6.309  -0.330  0.00  0.00    +0.350 A 
ATOM      6  C   LIG    1        0.130   5.708   0.385  0.00  0.00    -0.060 A 
ATOM      7  C   LIG    1        0.108   4.328   0.507  0.00  0.00    +0.150 A 
ATOM      8  C   LIG    1        1.122   3.592  -0.095  0.00  0.00    +0.040 A 
ATOM      9  C   LIG    1        2.124   4.264  -0.793  0.00  0.00    +0.340 A 
ATOM     10  N   LIG    1        2.108   5.582  -0.893  0.00  0.00    -0.580 NA
BRANCH   5  12
ATOM     11  C   LIG    1        2.264   8.222  -1.202  0.00  0.00    +0.260 C 
ATOM     12  O   LIG    1        1.183   7.661  -0.454  0.00  0.00    -0.300 OA
ENDBRANCH   5  12
BRANCH   9  13
ATOM     13  O   LIG    1        3.123   3.558  -1.381  0.00  0.00    -0.310 OA
ATOM     14  C   LIG    1        4.120   4.304  -2.082  0.00  0.00    +0.260 C 
ENDBRANCH   9  13
ENDBRANCH   1   8
BRANCH   3  15
ATOM     15  C   LIG    1        0.000  -0.003   0.040  0.00  0.00    +0.270 C 
BRANCH  15  16
ATOM     16  N   LIG    1       -1.378  -0.510   0.069  0.00  0.00    -0.460 N 
ATOM     17  C   LIG    1       -2.041  -0.160   1.332  0.00  0.00    +0.250 C 
BRANCH  16  18
ATOM     18  C   LIG    1       -1.409  -1.878  -0.146  0.00  0.00    +0.400 A 
ATOM     19  C   LIG    1       -2.620  -2.571  -0.160  0.00  0.00    -0.080 A 
ATOM     20  N   LIG    1       -3.947  -2.230   0.001  0.00  0.00    -0.570 N 
ATOM     21  H   LIG    1       -4.296  -1.341   0.170  0.00  0.00    +0.430 HD
ATOM     22  C   LIG    1       -4.669  -3.366  -0.122  0.00  0.00    +0.540 A 
ATOM     23  N   LIG    1       -3.878  -4.378  -0.346  0.00  0.00    -0.490 NA
ATOM     24  C   LIG    1       -2.600  -3.958  -0.382  0.00  0.00    +0.310 A 
ATOM     25  N   LIG    1       -1.421  -4.560  -0.572  0.00  0.00    -0.500 NA
ATOM     26  C   LIG    1       -0.305  -3.865  -0.551  0.00  0.00    +0.540 A 
ATOM     27  N   LIG    1       -0.284  -2.560  -0.349  0.00  0.00    -0.550 NA
ENDBRANCH  16  18
ENDBRANCH  15  16
ENDBRANCH   3  15
TORSDOF 6
