REMARK  Name = ZINCrD0000073gJK.0
REMARK                            x       y       z     vdW  Elec       q    Type
REMARK                         _______ _______ _______ _____ _____    ______ ____
ROOT
ATOM      1  N   LIG    1        7.006   2.599  -0.971  0.00  0.00    -0.660 N 
ATOM      2  H   LIG    1        7.386   1.780  -0.616  0.00  0.00    +0.420 HD
ATOM      3  C   LIG    1        5.712   2.896  -0.740  0.00  0.00    +0.520 C 
ATOM      4  O   LIG    1        5.257   3.957  -1.114  0.00  0.00    -0.500 OA
ENDROOT
BRANCH   1  12
ATOM      5  C   LIG    1        8.798   2.965  -2.558  0.00  0.00    +0.110 A 
ATOM      6  C   LIG    1        9.578   3.832  -3.305  0.00  0.00    -0.030 A 
ATOM      7  C   LIG    1        9.376   5.198  -3.215  0.00  0.00    -0.010 A 
ATOM      8  C   LIG    1        8.390   5.701  -2.384  0.00  0.00    -0.090 A 
ATOM      9  C   LIG    1        7.604   4.841  -1.640  0.00  0.00    +0.090 A 
ATOM     10  C   LIG    1        8.174   7.189  -2.290  0.00  0.00    +0.100 C 
ATOM     11 CL   LIG    1       10.360   6.283  -4.146  0.00  0.00    -0.060 Cl
ATOM     12  C   LIG    1        7.802   3.472  -1.725  0.00  0.00    +0.120 A 
BRANCH   5  14
ATOM     13  C   LIG    1       10.038   1.176  -3.515  0.00  0.00    +0.260 C 
ATOM     14  O   LIG    1        8.999   1.623  -2.641  0.00  0.00    -0.310 OA
ENDBRANCH   5  14
ENDBRANCH   1  12
BRANCH   3  15
ATOM     15  C   LIG    1        4.830   1.912  -0.016  0.00  0.00    +0.190 C 
ATOM     16  C   LIG    1        5.331   1.738   1.419  0.00  0.00    +0.070 C 
BRANCH  15  17
ATOM     17  O   LIG    1        3.465   2.409   0.005  0.00  0.00    -0.330 OA
BRANCH  17  18
ATOM     18  C   LIG    1        2.479   1.489   0.020  0.00  0.00    +0.540 C 
ATOM     19  O   LIG    1        2.753   0.304   0.016  0.00  0.00    -0.490 OA
BRANCH  18  20
ATOM     20  C   LIG    1        1.077   1.918   0.041  0.00  0.00    -0.050 A 
ATOM     21  C   LIG    1       -0.009   1.093   0.058  0.00  0.00    +0.120 A 
ATOM     22  C   LIG    1       -1.157   1.922   0.070  0.00  0.00    -0.270 A 
ATOM     23  C   LIG    1       -0.709   3.234   0.069  0.00  0.00    +0.300 A 
ATOM     24  N   LIG    1        0.632   3.223   0.048  0.00  0.00    -0.410 N 
ATOM     25  C   LIG    1        1.490   4.410   0.033  0.00  0.00    +0.350 C 
BRANCH  22  26
ATOM     26  C   LIG    1       -2.554   1.477   0.084  0.00  0.00    +0.430 C 
ATOM     27  O   LIG    1       -3.450   2.294   0.092  0.00  0.00    -0.470 OA
ATOM     28  C   LIG    1       -2.876   0.005   0.088  0.00  0.00    +0.070 C 
ENDBRANCH  22  26
ENDBRANCH  18  20
ENDBRANCH  17  18
ENDBRANCH  15  17
ENDBRANCH   3  15
TORSDOF 7
