REMARK  Name = ZINCvU0000000IV3.0
REMARK                            x       y       z     vdW  Elec       q    Type
REMARK                         _______ _______ _______ _____ _____    ______ ____
ROOT
ATOM      1  N   LIG    1        2.195   3.884   0.135  0.00  0.00    -0.570 N 
ATOM      2  C   LIG    1        3.352   3.189   0.045  0.00  0.00    +0.570 C 
ATOM      3  C   LIG    1        4.611   3.960   0.017  0.00  0.00    -0.180 A 
ATOM      4  C   LIG    1        5.819   3.358  -0.328  0.00  0.00    +0.110 A 
ATOM      5  C   LIG    1        6.971   4.117  -0.367  0.00  0.00    -0.030 A 
ATOM      6  C   LIG    1        6.928   5.469  -0.067  0.00  0.00    +0.070 A 
ATOM      7  C   LIG    1        5.738   6.075   0.285  0.00  0.00    -0.030 A 
ATOM      8  C   LIG    1        4.571   5.325   0.343  0.00  0.00    +0.160 A 
ATOM      9  N   LIG    1        3.375   5.905   0.736  0.00  0.00    -0.490 N 
ATOM     10  C   LIG    1        3.423   7.365   0.585  0.00  0.00    +0.250 C 
ATOM     11  O   LIG    1        3.356   1.974  -0.011  0.00  0.00    -0.510 OA
ATOM     12  C   LIG    1        2.217   5.343   0.032  0.00  0.00    +0.490 C 
ENDROOT
BRANCH  12  13
ATOM     13  C   LIG    1        2.278   5.735  -1.421  0.00  0.00    -0.230 C 
ATOM     14  C   LIG    1        2.844   4.917  -2.304  0.00  0.00    +0.080 C 
ATOM     15  C   LIG    1        2.914   5.350  -3.716  0.00  0.00    -0.130 A 
ATOM     16  C   LIG    1        3.199   4.451  -4.737  0.00  0.00    +0.100 A 
ATOM     17  C   LIG    1        3.224   4.893  -6.047  0.00  0.00    -0.120 A 
ATOM     18  C   LIG    1        2.968   6.221  -6.341  0.00  0.00    +0.090 A 
ATOM     19  C   LIG    1        2.691   7.124  -5.329  0.00  0.00    +0.010 A 
ATOM     20 BR   LIG    1        3.610   3.677  -7.444  0.00  0.00    -0.040 Br
ATOM     21  C   LIG    1        2.669   6.697  -4.015  0.00  0.00    +0.150 A 
ATOM     22  O   LIG    1        2.416   7.560  -2.997  0.00  0.00    -0.300 OA
ATOM     23  C   LIG    1        1.706   7.054  -1.868  0.00  0.00    +0.310 C 
ENDBRANCH  12  13
BRANCH   1  27
ATOM     24  C   LIG    1       -1.420   1.881   0.683  0.00  0.00    +0.140 A 
ATOM     25  C   LIG    1       -0.932   2.093  -0.598  0.00  0.00    +0.000 A 
ATOM     26  C   LIG    1        0.264   2.758  -0.781  0.00  0.00    +0.070 A 
ATOM     27  C   LIG    1        0.982   3.209   0.319  0.00  0.00    +0.090 A 
ATOM     28  C   LIG    1        0.496   2.991   1.601  0.00  0.00    +0.070 A 
ATOM     29  C   LIG    1       -0.701   2.327   1.782  0.00  0.00    -0.070 A 
BRANCH  24  31
ATOM     30  C   LIG    1       -3.043   1.048   2.208  0.00  0.00    +0.250 C 
ATOM     31  O   LIG    1       -2.601   1.232   0.862  0.00  0.00    -0.310 OA
ENDBRANCH  24  31
ENDBRANCH   1  27
TORSDOF 3
