REMARK  Name = ZINCvU0000000Exk.0
REMARK                            x       y       z     vdW  Elec       q    Type
REMARK                         _______ _______ _______ _____ _____    ______ ____
ROOT
ATOM      1  N   LIG    1        1.154  -0.378   3.345  0.00  0.00    -0.660 N 
ATOM      2  H   LIG    1        1.812   0.027   2.759  0.00  0.00    +0.420 HD
ATOM      3  C   LIG    1        0.196  -1.177   2.833  0.00  0.00    +0.610 C 
ATOM      4  O   LIG    1       -0.678  -1.618   3.554  0.00  0.00    -0.480 OA
ENDROOT
BRANCH   1   8
ATOM      5  C   LIG    1        1.284   0.350   7.448  0.00  0.00    +0.100 A 
ATOM      6  C   LIG    1        0.062   0.217   6.805  0.00  0.00    +0.080 A 
ATOM      7  C   LIG    1        0.019  -0.018   5.445  0.00  0.00    +0.050 A 
ATOM      8  C   LIG    1        1.199  -0.134   4.722  0.00  0.00    +0.180 A 
ATOM      9  C   LIG    1        2.423  -0.001   5.364  0.00  0.00    -0.020 A 
ATOM     10  C   LIG    1        2.466   0.240   6.724  0.00  0.00    +0.140 A 
ATOM     11  F   LIG    1        3.657   0.368   7.350  0.00  0.00    -0.120 F 
BRANCH   5  18
ATOM     12  C   LIG    1       -0.382   2.485   8.888  0.00  0.00    +0.140 C 
ATOM     13  C   LIG    1        0.608   1.525   9.495  0.00  0.00    +0.090 A 
ATOM     14  C   LIG    1        0.935   1.439  10.806  0.00  0.00    -0.110 A 
ATOM     15  C   LIG    1        1.892   0.428  10.945  0.00  0.00    +0.080 A 
ATOM     16  N   LIG    1        2.128  -0.079   9.761  0.00  0.00    -0.280 NA
ATOM     17  C   LIG    1        2.540  -0.003  12.236  0.00  0.00    +0.160 C 
ATOM     18  N   LIG    1        1.327   0.594   8.830  0.00  0.00    -0.330 N 
ENDBRANCH   5  18
ENDBRANCH   1   8
BRANCH   3  19
ATOM     19  C   LIG    1        0.208  -1.514   1.399  0.00  0.00    -0.240 A 
ATOM     20  C   LIG    1       -0.477  -0.914   0.373  0.00  0.00    +0.040 A 
ATOM     21  O   LIG    1       -0.149  -1.573  -0.740  0.00  0.00    +0.120 OA
ATOM     22  N   LIG    1        0.634  -2.472  -0.552  0.00  0.00    -0.320 NA
ATOM     23  C   LIG    1       -1.421   0.255   0.483  0.00  0.00    +0.220 C 
ATOM     24  C   LIG    1        0.961  -2.584   0.711  0.00  0.00    +0.090 A 
BRANCH  24  25
ATOM     25  C   LIG    1        1.887  -3.569   1.318  0.00  0.00    -0.060 A 
ATOM     26  C   LIG    1        1.499  -4.291   2.448  0.00  0.00    +0.140 A 
ATOM     27  C   LIG    1        2.368  -5.209   3.009  0.00  0.00    +0.000 A 
ATOM     28  C   LIG    1        3.617  -5.412   2.453  0.00  0.00    +0.090 A 
ATOM     29  C   LIG    1        4.007  -4.700   1.333  0.00  0.00    +0.030 A 
ATOM     30  F   LIG    1        0.279  -4.093   2.993  0.00  0.00    -0.110 F 
ATOM     31  C   LIG    1        3.147  -3.783   0.759  0.00  0.00    +0.020 A 
ATOM     32 CL   LIG    1        3.636  -2.896  -0.650  0.00  0.00    -0.040 Cl
ENDBRANCH  24  25
ENDBRANCH   3  19
TORSDOF 4
