REMARK  Name = ZINCrg000000sBbB.0
REMARK                            x       y       z     vdW  Elec       q    Type
REMARK                         _______ _______ _______ _____ _____    ______ ____
ROOT
ATOM      1  N   LIG    1       -3.527   4.085  -0.623  0.00  0.00    -0.500 NA
ATOM      2  C   LIG    1       -2.978   5.436  -0.450  0.00  0.00    +0.170 C 
ATOM      3  C   LIG    1       -4.012   6.322   0.248  0.00  0.00    +0.040 C 
ATOM      4  C   LIG    1       -4.362   5.715   1.609  0.00  0.00    +0.020 C 
ATOM      5  C   LIG    1       -4.886   4.290   1.404  0.00  0.00    +0.060 C 
ATOM      6  C   LIG    1       -3.826   3.463   0.673  0.00  0.00    +0.260 C 
ENDROOT
BRANCH   6   7
ATOM      7  C   LIG    1       -4.346   2.066   0.451  0.00  0.00    +0.160 A 
ATOM      8  N   LIG    1       -5.234   1.704  -0.431  0.00  0.00    -0.250 NA
ATOM      9  N   LIG    1       -5.436   0.437  -0.338  0.00  0.00    -0.260 NA
ATOM     10  C   LIG    1       -4.683  -0.053   0.605  0.00  0.00    +0.160 A 
ATOM     11  O   LIG    1       -3.973   0.963   1.122  0.00  0.00    -0.220 OA
BRANCH  10  12
ATOM     12  C   LIG    1       -4.617  -1.497   1.034  0.00  0.00    +0.290 C 
ATOM     13  C   LIG    1       -5.889  -1.880   1.832  0.00  0.00    +0.040 C 
ATOM     14  C   LIG    1       -5.931  -3.415   1.597  0.00  0.00    +0.020 C 
ATOM     15  C   LIG    1       -5.371  -3.545   0.165  0.00  0.00    +0.210 C 
ATOM     16  O   LIG    1       -4.619  -2.359  -0.115  0.00  0.00    -0.360 OA
ENDBRANCH  10  12
ENDBRANCH   6   7
BRANCH   1  17
ATOM     17  C   LIG    1       -2.616   3.244  -1.413  0.00  0.00    +0.310 C 
BRANCH  17  22
ATOM     18  C   LIG    1        2.318   2.635   1.386  0.00  0.00    +0.340 C 
ATOM     19  N   LIG    1        1.045   2.777   0.675  0.00  0.00    -0.560 N 
ATOM     20  C   LIG    1        0.045   1.903   0.907  0.00  0.00    +0.550 A 
ATOM     21  C   LIG    1       -1.179   2.046   0.211  0.00  0.00    -0.130 A 
ATOM     22  C   LIG    1       -1.321   3.065  -0.663  0.00  0.00    +0.160 A 
ATOM     23  N   LIG    1       -0.282   3.931  -0.871  0.00  0.00    -0.530 N 
ATOM     24  C   LIG    1       -0.434   5.032  -1.825  0.00  0.00    +0.330 C 
ATOM     25  O   LIG    1        0.196   0.995   1.705  0.00  0.00    -0.510 OA
ATOM     26  C   LIG    1        0.878   3.780  -0.207  0.00  0.00    +0.690 A 
ATOM     27  O   LIG    1        1.789   4.561  -0.406  0.00  0.00    -0.530 OA
ENDBRANCH  17  22
ENDBRANCH   1  17
TORSDOF 4
