REMARK  Name = ZINCvU00000005fQ.0
REMARK                            x       y       z     vdW  Elec       q    Type
REMARK                         _______ _______ _______ _____ _____    ______ ____
ROOT
ATOM      1  C   LIG    1        5.475   3.095  -0.116  0.00  0.00    +0.070 A 
ATOM      2  C   LIG    1        6.141   3.263   1.031  0.00  0.00    -0.040 A 
ATOM      3  S   LIG    1        7.817   3.633   0.636  0.00  0.00    +0.170 S 
ATOM      4  C   LIG    1        7.455   3.534  -1.032  0.00  0.00    +0.060 A 
ATOM      5  N   LIG    1        6.208   3.249  -1.200  0.00  0.00    -0.450 NA
ENDROOT
BRANCH   1   6
ATOM      6  C   LIG    1        4.006   2.763  -0.165  0.00  0.00    +0.210 C 
BRANCH   6   7
ATOM      7  S   LIG    1        3.794   0.965  -0.167  0.00  0.00    +0.020 S 
BRANCH   7   9
ATOM      8  N   LIG    1        1.290  -0.279  -0.249  0.00  0.00    -0.460 N 
ATOM      9  C   LIG    1        2.036   0.865  -0.227  0.00  0.00    +0.160 A 
ATOM     10  N   LIG    1        1.198   1.877  -0.259  0.00  0.00    -0.290 NA
ATOM     11  N   LIG    1       -0.013   1.447  -0.298  0.00  0.00    -0.270 NA
ATOM     12  C   LIG    1       -0.022   0.134  -0.295  0.00  0.00    +0.230 A 
BRANCH  12  13
ATOM     13  C   LIG    1       -1.216  -0.737  -0.334  0.00  0.00    -0.020 A 
ATOM     14  C   LIG    1       -1.101  -2.066  -0.742  0.00  0.00    +0.010 A 
ATOM     15  C   LIG    1       -2.218  -2.875  -0.769  0.00  0.00    +0.010 A 
ATOM     16  C   LIG    1       -3.453  -2.367  -0.405  0.00  0.00    +0.030 A 
ATOM     17  C   LIG    1       -3.575  -1.048  -0.006  0.00  0.00    +0.010 A 
ATOM     18  C   LIG    1       -2.464  -0.231   0.032  0.00  0.00    +0.070 A 
ENDBRANCH  12  13
BRANCH   8  20
ATOM     19  C   LIG    1        2.121  -2.100  -1.654  0.00  0.00    +0.050 C 
ATOM     20  C   LIG    1        1.784  -1.658  -0.229  0.00  0.00    +0.300 C 
ENDBRANCH   8  20
ENDBRANCH   7   9
ENDBRANCH   6   7
ENDBRANCH   1   6
BRANCH   4  21
ATOM     21  C   LIG    1        8.449   3.747  -2.145  0.00  0.00    +0.190 C 
BRANCH  21  22
ATOM     22  C   LIG    1        8.467   5.204  -2.530  0.00  0.00    +0.520 C 
ATOM     23  N   LIG    1        9.287   5.631  -3.511  0.00  0.00    -0.670 N 
ATOM     24  H   LIG    1        9.802   4.991  -4.026  0.00  0.00    +0.410 HD
ATOM     25  O   LIG    1        7.744   5.991  -1.958  0.00  0.00    -0.500 OA
BRANCH  23  26
ATOM     26  C   LIG    1        9.393   6.999  -3.787  0.00  0.00    +0.140 A 
ATOM     27  C   LIG    1        9.768   7.426  -5.054  0.00  0.00    -0.010 A 
ATOM     28  C   LIG    1        9.867   8.777  -5.325  0.00  0.00    +0.030 A 
ATOM     29  C   LIG    1        9.604   9.703  -4.332  0.00  0.00    -0.100 A 
ATOM     30  C   LIG    1        9.236   9.281  -3.068  0.00  0.00    +0.030 A 
ATOM     31  C   LIG    1        9.719  11.176  -4.630  0.00  0.00    +0.100 C 
ATOM     32  C   LIG    1        9.130   7.932  -2.793  0.00  0.00    +0.020 A 
ENDBRANCH  23  26
ENDBRANCH  21  22
ENDBRANCH   4  21
TORSDOF 8
