REMARK  Name = ZINCvU0000000AVq.0
REMARK                            x       y       z     vdW  Elec       q    Type
REMARK                         _______ _______ _______ _____ _____    ______ ____
ROOT
ATOM      1  C   LIG    1        1.129   1.754   0.150  0.00  0.00    +0.190 C 
ENDROOT
BRANCH   1   2
ATOM      2  C   LIG    1        0.989   2.558   1.417  0.00  0.00    -0.090 A 
ATOM      3  C   LIG    1        1.444   2.042   2.616  0.00  0.00    +0.060 A 
ATOM      4  C   LIG    1        1.320   2.781   3.777  0.00  0.00    +0.000 A 
ATOM      5  C   LIG    1        0.733   4.032   3.741  0.00  0.00    +0.010 A 
ATOM      6  C   LIG    1        0.273   4.545   2.543  0.00  0.00    +0.000 A 
ATOM      7  C   LIG    1        0.401   3.808   1.381  0.00  0.00    +0.010 A 
ENDBRANCH   1   2
BRANCH   1   8
ATOM      8  C   LIG    1        0.032   0.722   0.086  0.00  0.00    +0.530 C 
ATOM      9  N   LIG    1       -1.153   1.033  -0.475  0.00  0.00    -0.670 N 
ATOM     10  H   LIG    1       -1.276   1.895  -0.903  0.00  0.00    +0.410 HD
ATOM     11  O   LIG    1        0.218  -0.389   0.535  0.00  0.00    -0.480 OA
BRANCH   9  12
ATOM     12  C   LIG    1       -2.206   0.112  -0.441  0.00  0.00    +0.180 A 
ATOM     13  C   LIG    1       -3.101   0.039  -1.500  0.00  0.00    +0.000 A 
ATOM     14  C   LIG    1       -4.138  -0.875  -1.466  0.00  0.00    -0.000 A 
ATOM     15  C   LIG    1       -4.290  -1.710  -0.372  0.00  0.00    +0.030 A 
ATOM     16  C   LIG    1       -3.402  -1.635   0.687  0.00  0.00    -0.000 A 
ATOM     17 CL   LIG    1       -3.597  -2.684   2.057  0.00  0.00    -0.050 Cl
ATOM     18 CL   LIG    1       -5.253  -0.972  -2.793  0.00  0.00    -0.050 Cl
ATOM     19  C   LIG    1       -2.361  -0.727   0.655  0.00  0.00    +0.040 A 
ENDBRANCH   9  12
ENDBRANCH   1   8
BRANCH   1  20
ATOM     20  N   LIG    1        2.435   1.082   0.138  0.00  0.00    -0.510 NA
ATOM     21  C   LIG    1        2.583   0.240  -1.057  0.00  0.00    +0.220 C 
BRANCH  20  22
ATOM     22  C   LIG    1        3.530   2.057   0.233  0.00  0.00    +0.240 C 
BRANCH  22  27
ATOM     23  C   LIG    1        6.694   0.072  -0.382  0.00  0.00    +0.110 A 
ATOM     24  C   LIG    1        7.220  -0.003   0.897  0.00  0.00    -0.070 A 
ATOM     25  C   LIG    1        6.553   0.587   1.955  0.00  0.00    +0.050 A 
ATOM     26  C   LIG    1        5.361   1.252   1.739  0.00  0.00    +0.010 A 
ATOM     27  C   LIG    1        4.830   1.331   0.465  0.00  0.00    -0.060 A 
ATOM     28  C   LIG    1        5.490   0.737  -0.598  0.00  0.00    +0.070 A 
BRANCH  23  30
ATOM     29  C   LIG    1        8.575  -1.179  -1.125  0.00  0.00    +0.240 C 
ATOM     30  O   LIG    1        7.349  -0.508  -1.423  0.00  0.00    -0.310 OA
ENDBRANCH  23  30
BRANCH  28  31
ATOM     31  O   LIG    1        4.967   0.808  -1.851  0.00  0.00    -0.320 OA
ATOM     32  C   LIG    1        5.358   1.923  -2.655  0.00  0.00    +0.210 C 
ENDBRANCH  28  31
ENDBRANCH  22  27
ENDBRANCH  20  22
ENDBRANCH   1  20
TORSDOF 8
