REMARK  Name = ZINCpk000000oTkF.0
REMARK                            x       y       z     vdW  Elec       q    Type
REMARK                         _______ _______ _______ _____ _____    ______ ____
ROOT
ATOM      1  C   LIG    1        9.165   6.918   0.621  0.00  0.00    +0.030 C 
ATOM      2  C   LIG    1       10.068   5.836   0.024  0.00  0.00    +0.050 C 
ATOM      3  C   LIG    1        9.772   4.497   0.707  0.00  0.00    +0.290 C 
ATOM      4  N   LIG    1        8.334   4.215   0.591  0.00  0.00    -0.610 N 
ATOM      5  C   LIG    1        7.376   5.231   1.046  0.00  0.00    +0.280 C 
ATOM      6  C   LIG    1        7.903   3.048   0.071  0.00  0.00    +0.540 C 
ATOM      7  O   LIG    1        8.704   2.219  -0.306  0.00  0.00    -0.520 OA
ATOM      8  C   LIG    1        7.700   6.560   0.365  0.00  0.00    +0.050 C 
ENDROOT
BRANCH   1   9
ATOM      9  C   LIG    1        9.478   8.244  -0.024  0.00  0.00    +0.470 C 
ATOM     10  O   LIG    1       10.334   8.316  -0.874  0.00  0.00    -0.500 OA
BRANCH   9  11
ATOM     11  O   LIG    1        8.805   9.345   0.344  0.00  0.00    -0.360 OA
BRANCH  11  13
ATOM     12  C   LIG    1        8.291  11.723   0.229  0.00  0.00    +0.070 C 
ATOM     13  C   LIG    1        9.158  10.587  -0.319  0.00  0.00    +0.200 C 
ENDBRANCH  11  13
ENDBRANCH   9  11
ENDBRANCH   1   9
BRANCH   6  14
ATOM     14  C   LIG    1        6.426   2.774  -0.041  0.00  0.00    +0.010 C 
ATOM     15  C   LIG    1        5.891   3.381  -1.340  0.00  0.00    +0.090 C 
BRANCH  14  16
ATOM     16  S   LIG    1        6.142   0.982  -0.049  0.00  0.00    +0.110 S 
BRANCH  16  17
ATOM     17  C   LIG    1        4.384   0.859  -0.034  0.00  0.00    +0.240 A 
ATOM     18  N   LIG    1        3.700  -0.267  -0.034  0.00  0.00    -0.310 NA
ATOM     19  N   LIG    1        2.342   0.079  -0.020  0.00  0.00    -0.320 N 
ATOM     20  C   LIG    1        1.197  -0.651  -0.013  0.00  0.00    +0.370 A 
ATOM     21  C   LIG    1        0.002  -0.004   0.002  0.00  0.00    -0.040 A 
ATOM     22  C   LIG    1       -0.017   1.395   0.010  0.00  0.00    +0.400 A 
ATOM     23  N   LIG    1        1.109   2.073   0.003  0.00  0.00    -0.460 NA
ATOM     24  C   LIG    1        2.289   1.444  -0.012  0.00  0.00    +0.450 A 
ATOM     25  N   LIG    1        3.541   1.889  -0.021  0.00  0.00    -0.520 NA
ENDBRANCH  16  17
ENDBRANCH  14  16
ENDBRANCH   6  14
TORSDOF 6
