REMARK  Name = ZINCpe00000gM9nE.0
REMARK                            x       y       z     vdW  Elec       q    Type
REMARK                         _______ _______ _______ _____ _____    ______ ____
ROOT
ATOM      1  N   LIG    1        0.048  -0.896   3.583  0.00  0.00    -0.530 N 
ATOM      2  C   LIG    1        1.230  -1.318   4.079  0.00  0.00    +0.570 A 
ATOM      3  C   LIG    1        1.222  -2.280   5.192  0.00  0.00    -0.190 A 
ATOM      4  C   LIG    1        0.001  -2.704   5.676  0.00  0.00    +0.430 A 
ATOM      5  N   LIG    1       -1.141  -2.225   5.114  0.00  0.00    -0.490 N 
ATOM      6  O   LIG    1        2.280  -0.912   3.615  0.00  0.00    -0.480 OA
ATOM      7  C   LIG    1       -1.108  -1.344   4.102  0.00  0.00    +0.710 A 
ATOM      8  O   LIG    1       -2.156  -0.942   3.638  0.00  0.00    -0.520 OA
ENDROOT
BRANCH   5   9
ATOM      9  C   LIG    1       -2.436  -2.676   5.629  0.00  0.00    +0.220 C 
ATOM     10  C   LIG    1       -2.435  -3.513   6.909  0.00  0.00    +0.060 C 
ATOM     11  C   LIG    1       -2.739  -4.174   5.564  0.00  0.00    +0.060 C 
ENDBRANCH   5   9
BRANCH   3  12
ATOM     12  C   LIG    1        2.447  -2.763   5.758  0.00  0.00    +0.280 C 
ATOM     13  N   LIG    1        3.418  -3.145   6.206  0.00  0.00    -0.400 NA
ENDBRANCH   3  12
BRANCH   1  14
ATOM     14  C   LIG    1        0.025   0.062   2.475  0.00  0.00    +0.350 C 
BRANCH  14  17
ATOM     15  C   LIG    1       -0.018   1.461   0.010  0.00  0.00    +0.280 C 
ATOM     16  N   LIG    1        0.002  -0.004   0.002  0.00  0.00    -0.610 N 
ATOM     17  C   LIG    1        0.022  -0.684   1.165  0.00  0.00    +0.510 C 
ATOM     18  O   LIG    1        0.039  -1.897   1.159  0.00  0.00    -0.520 OA
BRANCH  16  19
ATOM     19  C   LIG    1       -0.000  -0.730  -1.271  0.00  0.00    +0.340 C 
BRANCH  19  20
ATOM     20  C   LIG    1        1.420  -0.959  -1.720  0.00  0.00    -0.110 A 
ATOM     21  C   LIG    1        2.049  -0.027  -2.524  0.00  0.00    +0.010 A 
ATOM     22  C   LIG    1        3.353  -0.235  -2.933  0.00  0.00    +0.000 A 
ATOM     23  C   LIG    1        4.024  -1.381  -2.546  0.00  0.00    +0.010 A 
ATOM     24  C   LIG    1        3.393  -2.315  -1.747  0.00  0.00    +0.000 A 
ATOM     25  C   LIG    1        2.091  -2.104  -1.334  0.00  0.00    +0.040 A 
ENDBRANCH  19  20
ENDBRANCH  16  19
ENDBRANCH  14  17
ENDBRANCH   1  14
TORSDOF 6
