REMARK  Name = ZINCrg00000bJ9Sp.0
REMARK                            x       y       z     vdW  Elec       q    Type
REMARK                         _______ _______ _______ _____ _____    ______ ____
ROOT
ATOM      1  C   LIG    1       -0.012   1.085   0.009  0.00  0.00    +0.250 C 
ATOM      2  C   LIG    1       -0.196   1.710  -1.385  0.00  0.00    +0.280 C 
ATOM      3  N   LIG    1        0.836   2.682  -0.976  0.00  0.00    -0.650 N 
ATOM      4  C   LIG    1        1.148   3.940  -1.345  0.00  0.00    +0.620 C 
ATOM      5  O   LIG    1        2.082   4.515  -0.819  0.00  0.00    -0.520 OA
ATOM      6  C   LIG    1        1.389   1.724   0.000  0.00  0.00    +0.310 C 
ENDROOT
BRANCH   4   7
ATOM      7  C   LIG    1        0.361   4.617  -2.383  0.00  0.00    -0.270 A 
ATOM      8  C   LIG    1        0.580   5.872  -2.826  0.00  0.00    +0.160 A 
ATOM      9  C   LIG    1       -0.306   6.275  -3.818  0.00  0.00    -0.160 A 
ATOM     10  C   LIG    1       -1.236   5.331  -4.152  0.00  0.00    -0.030 A 
ATOM     11  S   LIG    1       -1.010   3.915  -3.228  0.00  0.00    +0.250 S 
BRANCH   9  12
ATOM     12  C   LIG    1       -0.250   7.604  -4.450  0.00  0.00    +0.580 C 
ATOM     13  O   LIG    1        0.602   8.403  -4.112  0.00  0.00    -0.530 OA
ATOM     14  N   LIG    1       -1.143   7.935  -5.403  0.00  0.00    -0.850 N 
ATOM     15  H   LIG    1       -1.107   8.811  -5.819  0.00  0.00    +0.410 HD
ATOM     16  H   LIG    1       -1.823   7.298  -5.673  0.00  0.00    +0.400 HD
ENDBRANCH   9  12
ENDBRANCH   4   7
BRANCH   1  18
ATOM     17  C   LIG    1       -1.951   0.914   1.475  0.00  0.00    +0.610 C 
ATOM     18  N   LIG    1       -0.906   1.639   1.029  0.00  0.00    -0.710 N 
ATOM     19  H   LIG    1       -0.746   2.527   1.384  0.00  0.00    +0.410 HD
ATOM     20  O   LIG    1       -2.206  -0.163   0.966  0.00  0.00    -0.550 OA
BRANCH  17  25
ATOM     21  C   LIG    1       -5.973  -2.270   3.519  0.00  0.00    +0.120 C 
ATOM     22  C   LIG    1       -5.379  -0.903   3.738  0.00  0.00    -0.100 A 
ATOM     23  C   LIG    1       -4.341  -0.488   2.976  0.00  0.00    +0.250 A 
ATOM     24  N   LIG    1       -3.794   0.743   3.161  0.00  0.00    -0.320 N 
ATOM     25  C   LIG    1       -2.753   1.404   2.537  0.00  0.00    -0.160 A 
ATOM     26  C   LIG    1       -2.651   2.643   3.149  0.00  0.00    +0.300 A 
ATOM     27  N   LIG    1       -3.578   2.715   4.091  0.00  0.00    -0.490 NA
ATOM     28  C   LIG    1       -4.279   1.583   4.123  0.00  0.00    +0.250 A 
ATOM     29  C   LIG    1       -5.354   1.169   4.929  0.00  0.00    +0.070 A 
ATOM     30  C   LIG    1       -5.902  -0.064   4.731  0.00  0.00    +0.070 A 
ENDBRANCH  17  25
ENDBRANCH   1  18
TORSDOF 4
