REMARK  Name = ZINCrg00000fSJzG.0
REMARK                            x       y       z     vdW  Elec       q    Type
REMARK                         _______ _______ _______ _____ _____    ______ ____
ROOT
ATOM      1  C   LIG    1       -0.860   8.690  -4.695  0.00  0.00    +0.000 C 
ATOM      2  C   LIG    1       -0.159   9.352  -3.500  0.00  0.00    +0.320 C 
ATOM      3  N   LIG    1       -0.135   8.034  -2.850  0.00  0.00    -0.660 N 
ATOM      4  C   LIG    1       -0.117   7.577  -1.582  0.00  0.00    +0.740 C 
ATOM      5  N   LIG    1       -0.096   6.251  -1.343  0.00  0.00    -0.740 N 
ATOM      6  H   LIG    1       -0.095   5.625  -2.084  0.00  0.00    +0.400 HD
ATOM      7  O   LIG    1       -0.118   8.362  -0.653  0.00  0.00    -0.580 OA
ATOM      8  C   LIG    1       -0.133   7.432  -4.192  0.00  0.00    +0.270 C 
ENDROOT
BRANCH   1  14
ATOM      9  O   LIG    1       -0.672   7.249  -8.885  0.00  0.00    -0.540 OA
ATOM     10  C   LIG    1       -0.333   7.874  -7.900  0.00  0.00    +0.700 C 
ATOM     11  N   LIG    1        0.925   7.927  -7.449  0.00  0.00    -0.680 N 
ATOM     12  H   LIG    1        1.674   7.474  -7.868  0.00  0.00    +0.440 HD
ATOM     13  C   LIG    1        1.025   8.690  -6.342  0.00  0.00    +0.530 C 
ATOM     14  C   LIG    1       -0.378   9.187  -6.059  0.00  0.00    +0.240 C 
ATOM     15  O   LIG    1        2.029   8.929  -5.706  0.00  0.00    -0.460 OA
ATOM     16  N   LIG    1       -1.182   8.591  -7.141  0.00  0.00    -0.720 N 
ATOM     17  H   LIG    1       -2.136   8.696  -7.279  0.00  0.00    +0.440 HD
ENDBRANCH   1  14
BRANCH   5  18
ATOM     18  C   LIG    1       -0.076   5.755   0.035  0.00  0.00    +0.340 C 
BRANCH  18  19
ATOM     19  C   LIG    1       -0.056   4.248   0.026  0.00  0.00    -0.110 A 
ATOM     20  C   LIG    1        1.153   3.575   0.010  0.00  0.00    +0.040 A 
ATOM     21  C   LIG    1        1.177   2.195   0.003  0.00  0.00    +0.020 A 
ATOM     22  C   LIG    1       -0.018   1.480   0.010  0.00  0.00    -0.030 A 
ATOM     23  C   LIG    1       -1.233   2.163   0.020  0.00  0.00    +0.020 A 
ATOM     24  C   LIG    1       -1.245   3.543   0.033  0.00  0.00    +0.040 A 
BRANCH  22  25
ATOM     25  C   LIG    1        0.002  -0.004   0.002  0.00  0.00    -0.100 A 
ATOM     26  C   LIG    1       -1.192  -0.730   0.015  0.00  0.00    +0.070 A 
ATOM     27  C   LIG    1       -1.119  -2.113   0.002  0.00  0.00    -0.030 A 
ATOM     28  C   LIG    1        0.121  -2.725  -0.012  0.00  0.00    +0.260 A 
ATOM     29  N   LIG    1        1.231  -2.013  -0.020  0.00  0.00    -0.480 NA
ATOM     30  C   LIG    1        1.212  -0.696  -0.013  0.00  0.00    +0.270 A 
ENDBRANCH  22  25
ENDBRANCH  18  19
ENDBRANCH   5  18
TORSDOF 4
