REMARK  Name = ZINCqH0000002UY3.0
REMARK                            x       y       z     vdW  Elec       q    Type
REMARK                         _______ _______ _______ _____ _____    ______ ____
ROOT
ATOM      1  N   LIG    1       -3.914   5.096   0.047  0.00  0.00    -0.660 N 
ATOM      2  H   LIG    1       -4.807   4.960   0.401  0.00  0.00    +0.410 HD
ATOM      3  C   LIG    1       -3.558   6.301  -0.441  0.00  0.00    +0.520 C 
ATOM      4  O   LIG    1       -2.477   6.446  -0.971  0.00  0.00    -0.480 OA
ENDROOT
BRANCH   3   5
ATOM      5  C   LIG    1       -4.505   7.468  -0.328  0.00  0.00    +0.200 C 
ATOM      6  C   LIG    1       -5.755   7.194  -1.164  0.00  0.00    +0.110 C 
ATOM      7  C   LIG    1       -6.598   8.438  -1.268  0.00  0.00    -0.040 A 
ATOM      8  C   LIG    1       -7.939   8.337  -1.578  0.00  0.00    +0.020 A 
ATOM      9  C   LIG    1       -8.717   9.478  -1.678  0.00  0.00    +0.050 A 
ATOM     10  C   LIG    1       -8.160  10.727  -1.470  0.00  0.00    +0.010 A 
ATOM     11  C   LIG    1       -6.820  10.843  -1.158  0.00  0.00    +0.090 A 
ATOM     12  C   LIG    1       -6.034   9.697  -1.054  0.00  0.00    -0.180 A 
ATOM     13  C   LIG    1       -4.597   9.802  -0.711  0.00  0.00    +0.530 C 
ATOM     14  O   LIG    1       -4.107  10.853  -0.348  0.00  0.00    -0.440 OA
ATOM     15  O   LIG    1       -3.851   8.674  -0.821  0.00  0.00    -0.330 OA
ENDBRANCH   3   5
BRANCH   1  22
ATOM     16  N   LIG    1        0.633   3.187   0.360  0.00  0.00    -0.480 N 
ATOM     17  C   LIG    1        1.048   1.885   0.272  0.00  0.00    +0.220 A 
ATOM     18  C   LIG    1       -0.008   1.080   0.076  0.00  0.00    -0.050 A 
ATOM     19  C   LIG    1       -1.197   1.936   0.029  0.00  0.00    -0.120 A 
ATOM     20  C   LIG    1       -2.560   1.692  -0.150  0.00  0.00    +0.080 A 
ATOM     21  C   LIG    1       -3.444   2.733  -0.143  0.00  0.00    -0.030 A 
ATOM     22  C   LIG    1       -2.995   4.040   0.042  0.00  0.00    +0.160 A 
ATOM     23  C   LIG    1       -1.648   4.300   0.229  0.00  0.00    +0.000 A 
ATOM     24  C   LIG    1       -0.736   3.252   0.220  0.00  0.00    +0.120 A 
BRANCH  16  25
ATOM     25  C   LIG    1        1.513   4.338   0.573  0.00  0.00    +0.290 C 
BRANCH  25  27
ATOM     26  C   LIG    1        2.487   5.873   2.287  0.00  0.00    +0.030 C 
ATOM     27  C   LIG    1        1.567   4.670   2.066  0.00  0.00    +0.000 C 
ENDBRANCH  25  27
ENDBRANCH  16  25
ENDBRANCH   1  22
TORSDOF 4
