REMARK  Name = ZINCrg00000SjSLw.0
REMARK                            x       y       z     vdW  Elec       q    Type
REMARK                         _______ _______ _______ _____ _____    ______ ____
ROOT
ATOM      1  N   LIG    1        3.502   2.268   5.121  0.00  0.00    -0.590 N 
ATOM      2  C   LIG    1        2.614   2.253   4.107  0.00  0.00    +0.510 C 
ATOM      3  O   LIG    1        3.005   2.241   2.959  0.00  0.00    -0.520 OA
ENDROOT
BRANCH   1   4
ATOM      4  C   LIG    1        4.939   2.269   4.837  0.00  0.00    +0.280 C 
ATOM      5  C   LIG    1        5.320   1.009   4.041  0.00  0.00    +0.070 C 
ATOM      6  C   LIG    1        6.738   1.196   3.467  0.00  0.00    -0.310 C 
ATOM      7  S   LIG    1        6.934   3.003   3.262  0.00  0.00    +2.390 S 
ATOM      8  O   LIG    1        6.979   3.318   1.877  0.00  0.00    -0.930 OA
ATOM      9  O   LIG    1        7.962   3.467   4.127  0.00  0.00    -0.930 OA
ATOM     10  C   LIG    1        5.303   3.484   3.945  0.00  0.00    -0.310 C 
ENDBRANCH   1   4
BRANCH   1  11
ATOM     11  C   LIG    1        3.029   2.283   6.508  0.00  0.00    +0.230 C 
ATOM     12  C   LIG    1        3.544   3.543   7.208  0.00  0.00    +0.040 C 
BRANCH  11  14
ATOM     13  C   LIG    1        2.938  -0.211   6.615  0.00  0.00    +0.020 C 
ATOM     14  C   LIG    1        3.552   1.044   7.238  0.00  0.00    +0.010 C 
ENDBRANCH  11  14
ENDBRANCH   1  11
BRANCH   2  15
ATOM     15  C   LIG    1        1.136   2.252   4.400  0.00  0.00    +0.360 C 
BRANCH  15  16
ATOM     16  N   LIG    1        0.389   2.234   3.140  0.00  0.00    -0.560 N 
ATOM     17  C   LIG    1        0.002   3.333   2.479  0.00  0.00    +0.710 C 
ATOM     18  N   LIG    1       -0.669   3.042   1.348  0.00  0.00    -0.710 N 
ATOM     19  H   LIG    1       -1.041   3.675   0.714  0.00  0.00    +0.440 HD
ATOM     20  C   LIG    1       -0.725   1.577   1.263  0.00  0.00    +0.130 C 
ATOM     21  C   LIG    1       -0.013   1.086   0.008  0.00  0.00    +0.060 C 
ATOM     22  C   LIG    1       -0.752   1.592  -1.233  0.00  0.00    +0.020 C 
ATOM     23  C   LIG    1       -2.194   1.080  -1.211  0.00  0.00    +0.010 C 
ATOM     24  C   LIG    1       -2.902   1.602   0.042  0.00  0.00    +0.020 C 
ATOM     25  C   LIG    1       -2.171   1.095   1.288  0.00  0.00    +0.050 C 
ATOM     26  O   LIG    1        0.231   4.465   2.857  0.00  0.00    -0.540 OA
ATOM     27  C   LIG    1        0.006   1.109   2.501  0.00  0.00    +0.540 C 
ATOM     28  O   LIG    1        0.206  -0.035   2.847  0.00  0.00    -0.460 OA
ENDBRANCH  15  16
ENDBRANCH   2  15
TORSDOF 5
