REMARK  Name = ZINCvU00000004Fz.0
REMARK                            x       y       z     vdW  Elec       q    Type
REMARK                         _______ _______ _______ _____ _____    ______ ____
ROOT
ATOM      1  C   LIG    1        0.065   0.905  -2.729  0.00  0.00    +0.160 A 
ATOM      2  N   LIG    1        1.138   0.167  -2.553  0.00  0.00    -0.280 NA
ATOM      3  N   LIG    1        1.706  -0.064  -3.682  0.00  0.00    -0.250 NA
ATOM      4  C   LIG    1        1.038   0.520  -4.650  0.00  0.00    +0.250 A 
ATOM      5  N   LIG    1       -0.036   1.160  -4.070  0.00  0.00    -0.420 N 
ENDROOT
BRANCH   5   6
ATOM      6  C   LIG    1       -1.025   1.914  -4.718  0.00  0.00    +0.110 A 
ATOM      7  C   LIG    1       -1.914   1.295  -5.586  0.00  0.00    +0.060 A 
ATOM      8  C   LIG    1       -2.890   2.040  -6.219  0.00  0.00    +0.060 A 
ATOM      9  C   LIG    1       -2.975   3.403  -5.996  0.00  0.00    -0.020 A 
ATOM     10  C   LIG    1       -2.087   4.023  -5.135  0.00  0.00    +0.060 A 
ATOM     11 CL   LIG    1       -4.199   4.337  -6.799  0.00  0.00    -0.050 Cl
ATOM     12  C   LIG    1       -1.112   3.282  -4.496  0.00  0.00    +0.050 A 
ENDBRANCH   5   6
BRANCH   4  13
ATOM     13  C   LIG    1        1.373   0.495  -6.088  0.00  0.00    -0.060 A 
ATOM     14  C   LIG    1        1.358   1.675  -6.832  0.00  0.00    +0.080 A 
ATOM     15  C   LIG    1        1.679   1.646  -8.174  0.00  0.00    -0.030 A 
ATOM     16  C   LIG    1        2.002   0.449  -8.789  0.00  0.00    +0.070 A 
ATOM     17  C   LIG    1        2.015  -0.728  -8.063  0.00  0.00    -0.070 A 
ATOM     18  C   LIG    1        1.702  -0.715  -6.714  0.00  0.00    +0.170 A 
BRANCH  18  19
ATOM     19  O   LIG    1        1.714  -1.870  -6.000  0.00  0.00    -0.300 OA
ATOM     20  C   LIG    1        2.059  -3.064  -6.704  0.00  0.00    +0.240 C 
ENDBRANCH  18  19
ENDBRANCH   4  13
BRANCH   1  21
ATOM     21  S   LIG    1       -1.034   1.468  -1.472  0.00  0.00    +0.040 S 
BRANCH  21  22
ATOM     22  C   LIG    1       -0.247   0.737  -0.015  0.00  0.00    +0.220 C 
BRANCH  22  26
ATOM     23  C   LIG    1       -1.732   2.178   2.994  0.00  0.00    -0.050 A 
ATOM     24  C   LIG    1       -2.511   1.062   2.872  0.00  0.00    +0.070 A 
ATOM     25  C   LIG    1       -2.059   0.377   1.733  0.00  0.00    -0.020 A 
ATOM     26  C   LIG    1       -1.038   1.096   1.216  0.00  0.00    +0.030 A 
ATOM     27  O   LIG    1       -0.840   2.176   1.982  0.00  0.00    -0.140 OA
BRANCH  23  28
ATOM     28  C   LIG    1       -1.843   3.193   4.043  0.00  0.00    +0.550 C 
ATOM     29  O   LIG    1       -2.688   3.083   4.911  0.00  0.00    -0.480 OA
BRANCH  28  31
ATOM     30  C   LIG    1       -1.173   5.219   5.118  0.00  0.00    +0.290 C 
ATOM     31  O   LIG    1       -1.006   4.252   4.048  0.00  0.00    -0.350 OA
ENDBRANCH  28  31
ENDBRANCH  23  28
ENDBRANCH  22  26
ENDBRANCH  21  22
ENDBRANCH   1  21
TORSDOF 8
