REMARK  Name = ZINCpe000000WJ0Q.0
REMARK                            x       y       z     vdW  Elec       q    Type
REMARK                         _______ _______ _______ _____ _____    ______ ____
ROOT
ATOM      1  N   LIG    1       -1.244  -0.975  -0.001  0.00  0.00    -0.680 N 
ATOM      2  H   LIG    1       -1.236  -1.941  -0.085  0.00  0.00    +0.410 HD
ATOM      3  C   LIG    1       -2.416  -0.318   0.113  0.00  0.00    +0.710 C 
ATOM      4  N   LIG    1       -3.568  -1.009   0.216  0.00  0.00    -0.620 N 
ATOM      5  C   LIG    1       -4.865  -0.315   0.234  0.00  0.00    +0.310 C 
ATOM      6  C   LIG    1       -5.775  -0.967  -0.820  0.00  0.00    +0.170 C 
ATOM      7  N   LIG    1       -5.842  -2.413  -0.575  0.00  0.00    -0.530 NA
ATOM      8  C   LIG    1       -4.523  -3.042  -0.732  0.00  0.00    +0.170 C 
ATOM      9  C   LIG    1       -3.562  -2.476   0.319  0.00  0.00    +0.280 C 
ATOM     10  O   LIG    1       -2.433   0.897   0.122  0.00  0.00    -0.570 OA
ENDROOT
BRANCH   1  14
ATOM     11  C   LIG    1        2.334   1.070  -0.047  0.00  0.00    -0.460 A 
ATOM     12  C   LIG    1        1.299   1.578   0.716  0.00  0.00    +0.100 A 
ATOM     13  C   LIG    1        0.089   0.905   0.750  0.00  0.00    +0.060 A 
ATOM     14  C   LIG    1       -0.039  -0.263   0.002  0.00  0.00    +0.170 A 
ATOM     15  C   LIG    1        1.047  -0.713  -0.736  0.00  0.00    +0.230 A 
ATOM     16  N   LIG    1        2.182  -0.042  -0.740  0.00  0.00    -0.370 NA
BRANCH  11  18
ATOM     17  C   LIG    1        3.714   3.073  -1.486  0.00  0.00    -0.250 C 
ATOM     18  S   LIG    1        3.876   1.920  -0.096  0.00  0.00    +2.510 S 
ATOM     19  O   LIG    1        4.825   0.906  -0.397  0.00  0.00    -0.920 OA
ATOM     20  O   LIG    1        3.926   2.627   1.136  0.00  0.00    -0.930 OA
ENDBRANCH  11  18
ENDBRANCH   1  14
BRANCH   7  21
ATOM     21  C   LIG    1       -6.836  -3.050  -1.449  0.00  0.00    +0.200 C 
BRANCH  21  22
ATOM     22  C   LIG    1       -8.122  -2.221  -1.446  0.00  0.00    +0.140 C 
ATOM     23  C   LIG    1       -9.173  -2.881  -2.361  0.00  0.00    +0.010 C 
ATOM     24  C   LIG    1      -10.375  -3.151  -1.424  0.00  0.00    +0.000 C 
ATOM     25  C   LIG    1      -10.112  -2.158  -0.263  0.00  0.00    +0.190 C 
ATOM     26  O   LIG    1       -8.675  -2.180  -0.120  0.00  0.00    -0.360 OA
ENDBRANCH  21  22
ENDBRANCH   7  21
TORSDOF 4
