REMARK  Name = ZINCpe00000VVGnt.0
REMARK                            x       y       z     vdW  Elec       q    Type
REMARK                         _______ _______ _______ _____ _____    ______ ____
ROOT
ATOM      1  C   LIG    1       -3.245  -2.727   6.680  0.00  0.00    +0.520 C 
ATOM      2  N   LIG    1       -4.309  -3.408   7.149  0.00  0.00    -0.620 N 
ATOM      3  C   LIG    1       -5.587  -3.408   6.419  0.00  0.00    +0.300 C 
ATOM      4  C   LIG    1       -6.039  -4.866   6.239  0.00  0.00    +0.210 C 
ATOM      5  N   LIG    1       -6.074  -5.527   7.550  0.00  0.00    -0.460 N 
ATOM      6  C   LIG    1       -4.735  -5.589   8.152  0.00  0.00    +0.220 C 
ATOM      7  C   LIG    1       -4.227  -4.166   8.407  0.00  0.00    +0.300 C 
ATOM      8  O   LIG    1       -2.201  -2.734   7.298  0.00  0.00    -0.530 OA
ENDROOT
BRANCH   5   9
ATOM      9  C   LIG    1       -6.633  -6.790   7.454  0.00  0.00    +0.490 A 
ATOM     10  N   LIG    1       -5.942  -7.837   7.880  0.00  0.00    -0.550 NA
ATOM     11  C   LIG    1       -6.450  -9.057   7.808  0.00  0.00    +0.350 A 
ATOM     12  C   LIG    1       -7.715  -9.232   7.268  0.00  0.00    -0.110 A 
ATOM     13  C   LIG    1       -8.407  -8.115   6.827  0.00  0.00    +0.350 A 
ATOM     14  N   LIG    1       -7.844  -6.923   6.933  0.00  0.00    -0.530 NA
ENDBRANCH   5   9
BRANCH   1  15
ATOM     15  C   LIG    1       -3.352  -1.957   5.389  0.00  0.00    +0.090 C 
BRANCH  15  16
ATOM     16  C   LIG    1       -2.013  -1.281   5.087  0.00  0.00    +0.130 C 
BRANCH  16  17
ATOM     17  S   LIG    1       -2.141  -0.356   3.536  0.00  0.00    +0.030 S 
BRANCH  17  22
ATOM     18  N   LIG    1       -0.020   1.094   2.454  0.00  0.00    -0.360 N 
ATOM     19  N   LIG    1        1.315   1.347   2.814  0.00  0.00    -0.070 NA
ATOM     20  N   LIG    1        1.524   0.733   3.928  0.00  0.00    -0.030 NA
ATOM     21  N   LIG    1        0.463   0.113   4.301  0.00  0.00    -0.330 NA
ATOM     22  C   LIG    1       -0.509   0.301   3.436  0.00  0.00    +0.210 A 
BRANCH  18  24
ATOM     23  C   LIG    1       -0.013   1.086   0.008  0.00  0.00    +0.080 C 
ATOM     24  C   LIG    1       -0.729   1.579   1.267  0.00  0.00    +0.250 C 
ATOM     25  C   LIG    1       -0.750   3.109   1.275  0.00  0.00    +0.080 C 
ENDBRANCH  18  24
ENDBRANCH  17  22
ENDBRANCH  16  17
ENDBRANCH  15  16
ENDBRANCH   1  15
TORSDOF 6
