REMARK  Name = ZINCpe00000gMLfY.0
REMARK                            x       y       z     vdW  Elec       q    Type
REMARK                         _______ _______ _______ _____ _____    ______ ____
ROOT
ATOM      1  C   LIG    1        5.133   0.271   1.028  0.00  0.00    +0.070 C 
ATOM      2  C   LIG    1        4.861   1.058  -0.255  0.00  0.00    +0.190 C 
ENDROOT
BRANCH   2   3
ATOM      3  C   LIG    1        3.553   1.795  -0.124  0.00  0.00    +0.520 C 
ATOM      4  N   LIG    1        2.400   1.107  -0.015  0.00  0.00    -0.670 N 
ATOM      5  H   LIG    1        2.417   0.139   0.046  0.00  0.00    +0.420 HD
ATOM      6  O   LIG    1        3.538   3.008  -0.117  0.00  0.00    -0.490 OA
BRANCH   4   7
ATOM      7  C   LIG    1        1.177   1.788   0.009  0.00  0.00    +0.140 A 
ATOM      8  C   LIG    1        0.056   1.224  -0.586  0.00  0.00    +0.030 A 
ATOM      9  C   LIG    1       -1.154   1.892  -0.565  0.00  0.00    +0.040 A 
ATOM     10  C   LIG    1       -1.256   3.124   0.048  0.00  0.00    +0.060 A 
ATOM     11  C   LIG    1       -0.136   3.698   0.653  0.00  0.00    -0.010 A 
ATOM     12  C   LIG    1        1.086   3.026   0.626  0.00  0.00    +0.080 A 
BRANCH  11  13
ATOM     13  C   LIG    1       -0.240   4.974   1.295  0.00  0.00    +0.250 C 
ATOM     14  N   LIG    1       -0.323   5.986   1.804  0.00  0.00    -0.410 NA
ENDBRANCH  11  13
ENDBRANCH   4   7
ENDBRANCH   2   3
BRANCH   2  15
ATOM     15  O   LIG    1        5.934   2.012  -0.475  0.00  0.00    -0.330 OA
BRANCH  15  16
ATOM     16  C   LIG    1        6.984   1.592  -1.198  0.00  0.00    +0.440 C 
ATOM     17  O   LIG    1        7.006   0.464  -1.632  0.00  0.00    -0.470 OA
BRANCH  16  18
ATOM     18  C   LIG    1        8.136   2.526  -1.467  0.00  0.00    +0.290 C 
ATOM     19  C   LIG    1        8.790   2.950  -0.135  0.00  0.00    +0.060 C 
ATOM     20  C   LIG    1       10.302   2.975  -0.483  0.00  0.00    +0.040 C 
ATOM     21  C   LIG    1       10.412   1.790  -1.474  0.00  0.00    +0.280 C 
ATOM     22  N   LIG    1        9.165   1.835  -2.258  0.00  0.00    -1.000 NA
BRANCH  22  23
ATOM     23  S   LIG    1        8.957   1.212  -3.778  0.00  0.00    +2.620 S 
ATOM     24  O   LIG    1        7.566   0.932  -3.855  0.00  0.00    -0.930 OA
ATOM     25  O   LIG    1        9.920   0.171  -3.865  0.00  0.00    -0.940 OA
ATOM     26  C   LIG    1        9.394   2.577  -4.891  0.00  0.00    -0.290 C 
ENDBRANCH  22  23
ENDBRANCH  16  18
ENDBRANCH  15  16
ENDBRANCH   2  15
TORSDOF 7
