REMARK  Name = ZINCtV00001bB39I.0
REMARK                            x       y       z     vdW  Elec       q    Type
REMARK                         _______ _______ _______ _____ _____    ______ ____
ROOT
ATOM      1  C   LIG    1        2.550   3.246   0.804  0.00  0.00    +0.090 C 
ATOM      2  C   LIG    1        1.169   2.684   0.586  0.00  0.00    -0.080 A 
ATOM      3  C   LIG    1        0.115   3.532   0.418  0.00  0.00    +0.040 A 
ATOM      4  C   LIG    1       -1.170   3.009   0.215  0.00  0.00    -0.090 A 
ATOM      5  C   LIG    1       -2.288   3.860   0.038  0.00  0.00    +0.050 A 
ATOM      6  C   LIG    1       -3.542   3.258  -0.160  0.00  0.00    -0.190 A 
ATOM      7  C   LIG    1       -3.635   1.857  -0.174  0.00  0.00    +0.190 A 
ATOM      8  N   LIG    1       -2.584   1.096  -0.007  0.00  0.00    -0.470 NA
ATOM      9  C   LIG    1       -4.981   1.213  -0.386  0.00  0.00    +0.150 C 
ATOM     10  C   LIG    1       -1.360   1.606   0.180  0.00  0.00    +0.140 A 
ATOM     11  C   LIG    1       -0.251   0.764   0.362  0.00  0.00    +0.050 A 
ATOM     12  C   LIG    1        0.984   1.304   0.557  0.00  0.00    +0.040 A 
ENDROOT
BRANCH   5  13
ATOM     13  C   LIG    1       -2.142   5.331   0.059  0.00  0.00    -0.070 A 
ATOM     14  C   LIG    1       -1.746   5.979   1.231  0.00  0.00    +0.030 A 
ATOM     15  C   LIG    1       -1.606   7.351   1.243  0.00  0.00    +0.010 A 
ATOM     16  C   LIG    1       -1.867   8.086   0.100  0.00  0.00    +0.020 A 
ATOM     17  C   LIG    1       -2.264   7.451  -1.063  0.00  0.00    +0.010 A 
ATOM     18  C   LIG    1       -2.403   6.079  -1.091  0.00  0.00    +0.040 A 
ENDBRANCH   5  13
BRANCH   6  19
ATOM     19  C   LIG    1       -4.746   4.088  -0.350  0.00  0.00    +0.440 C 
ATOM     20  O   LIG    1       -5.133   4.351  -1.475  0.00  0.00    -0.440 OA
BRANCH  19  21
ATOM     21  C   LIG    1       -5.476   4.595   0.811  0.00  0.00    -0.100 C 
ATOM     22  C   LIG    1       -6.638   5.262   0.640  0.00  0.00    +0.130 C 
BRANCH  22  23
ATOM     23  C   LIG    1       -7.372   5.771   1.808  0.00  0.00    -0.090 A 
ATOM     24  C   LIG    1       -6.872   5.562   3.098  0.00  0.00    +0.070 A 
ATOM     25  C   LIG    1       -7.561   6.048   4.187  0.00  0.00    -0.020 A 
ATOM     26  C   LIG    1       -8.755   6.732   4.008  0.00  0.00    +0.110 A 
ATOM     27  C   LIG    1       -9.259   6.938   2.732  0.00  0.00    -0.020 A 
ATOM     28  F   LIG    1       -9.429   7.200   5.081  0.00  0.00    -0.130 F 
ATOM     29  C   LIG    1       -8.576   6.463   1.634  0.00  0.00    +0.080 A 
ENDBRANCH  22  23
ENDBRANCH  19  21
ENDBRANCH   6  19
TORSDOF 4
