REMARK  Name = ZINCrH000004qp40.0
REMARK                            x       y       z     vdW  Elec       q    Type
REMARK                         _______ _______ _______ _____ _____    ______ ____
ROOT
ATOM      1  N   LIG    1       -1.781   5.786  -5.335  0.00  0.00    -0.730 N 
ATOM      2  H   LIG    1       -1.426   4.918  -5.088  0.00  0.00    +0.400 HD
ENDROOT
BRANCH   1   9
ATOM      3  C   LIG    1       -2.215   3.471  -6.923  0.00  0.00    +0.090 C 
ATOM      4  C   LIG    1       -2.773   4.817  -7.305  0.00  0.00    -0.170 A 
ATOM      5  C   LIG    1       -3.523   4.950  -8.451  0.00  0.00    +0.130 A 
ATOM      6  C   LIG    1       -4.035   6.201  -8.809  0.00  0.00    -0.190 A 
ATOM      7  C   LIG    1       -3.789   7.312  -7.997  0.00  0.00    +0.080 A 
ATOM      8  C   LIG    1       -3.043   7.171  -6.849  0.00  0.00    -0.070 A 
ATOM      9  C   LIG    1       -2.534   5.925  -6.496  0.00  0.00    +0.250 A 
BRANCH   6  10
ATOM     10  C   LIG    1       -4.833   6.348 -10.041  0.00  0.00    +0.570 C 
ATOM     11  N   LIG    1       -5.326   7.554 -10.385  0.00  0.00    -0.730 N 
ATOM     12  H   LIG    1       -5.156   8.326  -9.822  0.00  0.00    +0.400 HD
ATOM     13  O   LIG    1       -5.047   5.380 -10.746  0.00  0.00    -0.540 OA
BRANCH  11  14
ATOM     14  C   LIG    1       -6.119   7.700 -11.608  0.00  0.00    +0.230 C 
ATOM     15  C   LIG    1       -5.183   7.906 -12.801  0.00  0.00    +0.030 C 
ATOM     16  C   LIG    1       -7.046   8.909 -11.473  0.00  0.00    +0.030 C 
ENDBRANCH  11  14
ENDBRANCH   6  10
ENDBRANCH   1   9
BRANCH   1  17
ATOM     17  C   LIG    1       -1.524   6.952  -4.486  0.00  0.00    +0.410 C 
BRANCH  17  18
ATOM     18  C   LIG    1       -0.691   6.535  -3.301  0.00  0.00    +0.150 A 
ATOM     19  N   LIG    1        0.607   6.526  -3.238  0.00  0.00    -0.360 NA
ATOM     20  O   LIG    1        0.972   6.139  -2.148  0.00  0.00    +0.090 OA
ATOM     21  C   LIG    1       -0.091   5.856  -1.389  0.00  0.00    +0.190 A 
ATOM     22  N   LIG    1       -1.155   6.101  -2.115  0.00  0.00    -0.470 NA
BRANCH  21  23
ATOM     23  C   LIG    1       -0.070   5.347   0.030  0.00  0.00    +0.250 C 
BRANCH  23  24
ATOM     24  C   LIG    1       -0.050   3.840   0.022  0.00  0.00    -0.100 A 
ATOM     25  C   LIG    1        1.156   3.165   0.008  0.00  0.00    +0.030 A 
ATOM     26  C   LIG    1        1.175   1.783   0.000  0.00  0.00    +0.010 A 
ATOM     27  C   LIG    1       -0.013   1.076   0.008  0.00  0.00    +0.010 A 
ATOM     28  C   LIG    1       -1.219   1.751   0.017  0.00  0.00    +0.010 A 
ATOM     29  C   LIG    1       -1.238   3.133   0.030  0.00  0.00    +0.030 A 
ENDBRANCH  23  24
ENDBRANCH  21  23
ENDBRANCH  17  18
ENDBRANCH   1  17
TORSDOF 7
