REMARK  Name = ZINCqH0000007akP.0
REMARK                            x       y       z     vdW  Elec       q    Type
REMARK                         _______ _______ _______ _____ _____    ______ ____
ROOT
ATOM      1  N   LIG    1       -0.015   3.275  -2.650  0.00  0.00    -0.630 N 
ATOM      2  C   LIG    1       -1.259   3.031  -2.191  0.00  0.00    +0.700 C 
ATOM      3  N   LIG    1       -2.231   3.950  -2.357  0.00  0.00    -0.740 N 
ATOM      4  H   LIG    1       -2.035   4.787  -2.807  0.00  0.00    +0.390 HD
ATOM      5  O   LIG    1       -1.504   1.982  -1.627  0.00  0.00    -0.550 OA
ATOM      6  C   LIG    1        0.280   4.539  -3.329  0.00  0.00    +0.270 C 
ENDROOT
BRANCH   1   7
ATOM      7  C   LIG    1        1.041   2.276  -2.470  0.00  0.00    +0.360 C 
BRANCH   7  11
ATOM      8  C   LIG    1        3.052   2.981   1.241  0.00  0.00    +0.120 A 
ATOM      9  C   LIG    1        3.613   3.414   0.050  0.00  0.00    -0.070 A 
ATOM     10  C   LIG    1        2.961   3.185  -1.147  0.00  0.00    +0.070 A 
ATOM     11  C   LIG    1        1.748   2.523  -1.162  0.00  0.00    -0.160 A 
ATOM     12  C   LIG    1        1.180   2.086   0.025  0.00  0.00    +0.140 A 
ATOM     13  C   LIG    1        1.830   2.320   1.232  0.00  0.00    +0.040 A 
BRANCH   8  15
ATOM     14  C   LIG    1        4.944   3.897   2.354  0.00  0.00    +0.240 C 
ATOM     15  O   LIG    1        3.695   3.207   2.419  0.00  0.00    -0.310 OA
ENDBRANCH   8  15
BRANCH  12  16
ATOM     16  O   LIG    1       -0.014   1.436   0.010  0.00  0.00    -0.290 OA
ATOM     17  C   LIG    1        0.022   0.017  -0.157  0.00  0.00    +0.210 C 
ENDBRANCH  12  16
BRANCH  13  18
ATOM     18  O   LIG    1        1.273   1.897   2.399  0.00  0.00    -0.310 OA
ATOM     19  C   LIG    1        1.705   0.632   2.904  0.00  0.00    +0.210 C 
ENDBRANCH  13  18
ENDBRANCH   7  11
ENDBRANCH   1   7
BRANCH   3  20
ATOM     20  C   LIG    1       -3.582   3.684  -1.857  0.00  0.00    +0.340 C 
BRANCH  20  21
ATOM     21  C   LIG    1       -4.472   4.860  -2.168  0.00  0.00    -0.100 A 
ATOM     22  C   LIG    1       -5.399   4.775  -3.189  0.00  0.00    +0.040 A 
ATOM     23  C   LIG    1       -6.215   5.854  -3.474  0.00  0.00    +0.010 A 
ATOM     24  C   LIG    1       -6.105   7.018  -2.737  0.00  0.00    +0.030 A 
ATOM     25  C   LIG    1       -5.178   7.105  -1.716  0.00  0.00    +0.030 A 
ATOM     26  C   LIG    1       -4.365   6.024  -1.426  0.00  0.00    -0.020 A 
ATOM     27 CL   LIG    1       -3.207   6.128  -0.138  0.00  0.00    -0.060 Cl
ENDBRANCH  20  21
ENDBRANCH   3  20
TORSDOF 7
