REMARK  Name = ZINCqH00000033QZ.0
REMARK                            x       y       z     vdW  Elec       q    Type
REMARK                         _______ _______ _______ _____ _____    ______ ____
ROOT
ATOM      1  C   LIG    1        0.929   8.059   1.513  0.00  0.00    +0.250 A 
ATOM      2  N   LIG    1        0.439   7.036   2.173  0.00  0.00    -0.280 NA
ATOM      3  N   LIG    1        0.781   5.939   1.598  0.00  0.00    -0.290 NA
ATOM      4  C   LIG    1        1.517   6.193   0.540  0.00  0.00    +0.150 A 
ATOM      5  N   LIG    1        1.635   7.551   0.446  0.00  0.00    -0.460 N 
ATOM      6  C   LIG    1        2.361   8.309  -0.576  0.00  0.00    +0.360 C 
ENDROOT
BRANCH   1  10
ATOM      7  C   LIG    1        0.428  12.166   2.485  0.00  0.00    +0.240 A 
ATOM      8  C   LIG    1        0.778  11.797   1.190  0.00  0.00    -0.070 A 
ATOM      9  C   LIG    1        0.941  10.466   0.872  0.00  0.00    +0.060 A 
ATOM     10  C   LIG    1        0.755   9.488   1.851  0.00  0.00    -0.090 A 
ATOM     11  C   LIG    1        0.399   9.861   3.148  0.00  0.00    +0.110 A 
ATOM     12  C   LIG    1        0.243  11.194   3.462  0.00  0.00    -0.070 A 
BRANCH   7  13
ATOM     13  N   LIG    1        0.264  13.514   2.804  0.00  0.00    -0.620 N 
BRANCH  13  15
ATOM     14  C   LIG    1        1.164  14.127   4.994  0.00  0.00    +0.020 C 
ATOM     15  C   LIG    1       -0.104  13.905   4.167  0.00  0.00    +0.270 C 
ENDBRANCH  13  15
BRANCH  13  16
ATOM     16  C   LIG    1        0.460  14.540   1.776  0.00  0.00    +0.280 C 
ATOM     17  C   LIG    1       -0.868  14.810   1.065  0.00  0.00    +0.020 C 
ENDBRANCH  13  16
ENDBRANCH   7  13
ENDBRANCH   1  10
BRANCH   4  18
ATOM     18  S   LIG    1        2.216   5.005  -0.557  0.00  0.00    +0.020 S 
BRANCH  18  19
ATOM     19  C   LIG    1        1.629   3.478   0.217  0.00  0.00    +0.190 C 
BRANCH  19  20
ATOM     20  C   LIG    1        2.120   2.293  -0.574  0.00  0.00    +0.070 A 
ATOM     21  C   LIG    1        1.354   1.788  -1.610  0.00  0.00    +0.250 A 
ATOM     22  N   LIG    1        1.784   0.749  -2.303  0.00  0.00    -0.440 NA
ATOM     23  C   LIG    1        2.945   0.192  -2.007  0.00  0.00    +0.090 A 
ATOM     24  C   LIG    1        3.711   0.697  -0.971  0.00  0.00    +0.230 A 
ATOM     25  C   LIG    1        3.436  -0.994  -2.799  0.00  0.00    +0.150 C 
ATOM     26  N   LIG    1        3.281   1.736  -0.278  0.00  0.00    -0.420 NA
ENDBRANCH  19  20
ENDBRANCH  18  19
ENDBRANCH   4  18
TORSDOF 7
