REMARK  Name = ZINCrD00000lbpcH.1
REMARK                            x       y       z     vdW  Elec       q    Type
REMARK                         _______ _______ _______ _____ _____    ______ ____
ROOT
ATOM      1  C   LIG    1        1.951   2.832  -3.223  0.00  0.00    -0.070 C 
ATOM      2  C   LIG    1        0.794   2.847  -2.207  0.00  0.00    +0.260 C 
ATOM      3  N   LIG    1        0.783   4.187  -1.580  0.00  0.00    -0.380 N 
ATOM      4  C   LIG    1        2.173   4.699  -1.698  0.00  0.00    +0.260 C 
ATOM      5  H   LIG    1        0.145   4.795  -2.071  0.00  0.00    +0.420 HD
ATOM      6  C   LIG    1        2.607   4.227  -3.108  0.00  0.00    +0.070 C 
ENDROOT
BRANCH   6   7
ATOM      7  C   LIG    1        4.107   4.120  -3.200  0.00  0.00    -0.060 A 
ATOM      8  C   LIG    1        4.786   4.775  -4.210  0.00  0.00    +0.060 A 
ATOM      9  C   LIG    1        6.163   4.678  -4.294  0.00  0.00    +0.030 A 
ATOM     10  C   LIG    1        6.861   3.925  -3.369  0.00  0.00    +0.040 A 
ATOM     11  C   LIG    1        6.181   3.269  -2.358  0.00  0.00    -0.090 A 
ATOM     12 BR   LIG    1        7.136   2.239  -1.091  0.00  0.00    -0.050 Br
ATOM     13  C   LIG    1        4.805   3.371  -2.271  0.00  0.00    +0.040 A 
ENDBRANCH   6   7
BRANCH   1  15
ATOM     14  O   LIG    1        0.224   2.459  -4.796  0.00  0.00    -0.680 OA
ATOM     15  C   LIG    1        1.420   2.617  -4.617  0.00  0.00    +0.500 C 
ATOM     16  O   LIG    1        2.186   2.602  -5.565  0.00  0.00    -0.660 OA
ENDBRANCH   1  15
BRANCH   3  17
ATOM     17  C   LIG    1        0.400   4.082  -0.166  0.00  0.00    +0.330 C 
BRANCH  17  18
ATOM     18  C   LIG    1       -1.025   3.600  -0.067  0.00  0.00    -0.140 A 
ATOM     19  C   LIG    1       -1.289   2.296   0.304  0.00  0.00    +0.070 A 
ATOM     20  C   LIG    1       -2.596   1.852   0.390  0.00  0.00    +0.030 A 
ATOM     21  C   LIG    1       -3.642   2.712   0.110  0.00  0.00    +0.090 A 
ATOM     22  C   LIG    1       -3.384   4.019  -0.256  0.00  0.00    +0.010 A 
ATOM     23  C   LIG    1       -2.073   4.468  -0.343  0.00  0.00    +0.170 A 
BRANCH  23  24
ATOM     24  N   LIG    1       -1.808   5.793  -0.716  0.00  0.00    -0.340 N 
ATOM     25  C   LIG    1       -2.706   6.715  -1.113  0.00  0.00    +0.520 A 
ATOM     26  N   LIG    1       -2.062   7.826  -1.365  0.00  0.00    -0.530 NA
ATOM     27  C   LIG    1       -0.759   7.654  -1.141  0.00  0.00    +0.470 A 
ATOM     28  N   LIG    1       -0.554   6.426  -0.742  0.00  0.00    -0.370 NA
ENDBRANCH  23  24
ENDBRANCH  17  18
ENDBRANCH   3  17
TORSDOF 5
