REMARK  Name = ZINCrD00000lbpcH.0
REMARK                            x       y       z     vdW  Elec       q    Type
REMARK                         _______ _______ _______ _____ _____    ______ ____
ROOT
ATOM      1  C   LIG    1       -3.979   3.759  -3.347  0.00  0.00    -0.080 C 
ATOM      2  C   LIG    1       -3.136   3.154  -2.196  0.00  0.00    +0.280 C 
ATOM      3  N   LIG    1       -2.882   4.320  -1.311  0.00  0.00    -0.380 N 
ATOM      4  C   LIG    1       -4.139   5.100  -1.302  0.00  0.00    +0.260 C 
ATOM      5  H   LIG    1       -2.127   4.879  -1.680  0.00  0.00    +0.410 HD
ATOM      6  C   LIG    1       -4.877   4.784  -2.616  0.00  0.00    +0.080 C 
ENDROOT
BRANCH   6   7
ATOM      7  C   LIG    1       -5.029   6.032  -3.446  0.00  0.00    -0.070 A 
ATOM      8  C   LIG    1       -3.914   6.775  -3.788  0.00  0.00    +0.000 A 
ATOM      9  C   LIG    1       -4.053   7.918  -4.553  0.00  0.00    +0.020 A 
ATOM     10  C   LIG    1       -5.307   8.324  -4.968  0.00  0.00    +0.040 A 
ATOM     11  C   LIG    1       -6.423   7.584  -4.622  0.00  0.00    -0.080 A 
ATOM     12 BR   LIG    1       -8.140   8.138  -5.190  0.00  0.00    -0.040 Br
ATOM     13  C   LIG    1       -6.284   6.438  -3.861  0.00  0.00    +0.080 A 
ENDBRANCH   6   7
BRANCH   1  15
ATOM     14  O   LIG    1       -4.735   1.538  -3.640  0.00  0.00    -0.680 OA
ATOM     15  C   LIG    1       -4.812   2.696  -4.014  0.00  0.00    +0.510 C 
ATOM     16  O   LIG    1       -5.562   2.993  -4.928  0.00  0.00    -0.660 OA
ENDBRANCH   1  15
BRANCH   3  17
ATOM     17  C   LIG    1       -2.559   3.864   0.047  0.00  0.00    +0.330 C 
BRANCH  17  18
ATOM     18  C   LIG    1       -1.242   3.130   0.031  0.00  0.00    -0.140 A 
ATOM     19  C   LIG    1       -1.220   1.750   0.017  0.00  0.00    +0.090 A 
ATOM     20  C   LIG    1       -0.013   1.076   0.008  0.00  0.00    +0.030 A 
ATOM     21  C   LIG    1        1.176   1.782   0.000  0.00  0.00    +0.090 A 
ATOM     22  C   LIG    1        1.161   3.163   0.008  0.00  0.00    +0.010 A 
ATOM     23  C   LIG    1       -0.050   3.842   0.024  0.00  0.00    +0.160 A 
BRANCH  23  24
ATOM     24  N   LIG    1       -0.069   5.244   0.032  0.00  0.00    -0.340 N 
ATOM     25  C   LIG    1        0.998   6.066   0.033  0.00  0.00    +0.520 A 
ATOM     26  N   LIG    1        0.559   7.299   0.040  0.00  0.00    -0.530 NA
ATOM     27  C   LIG    1       -0.773   7.305   0.052  0.00  0.00    +0.470 A 
ATOM     28  N   LIG    1       -1.204   6.071   0.048  0.00  0.00    -0.370 NA
ENDBRANCH  23  24
ENDBRANCH  17  18
ENDBRANCH   3  17
TORSDOF 5
