REMARK  Name = ZINCrH00000tj1eP.0
REMARK                            x       y       z     vdW  Elec       q    Type
REMARK                         _______ _______ _______ _____ _____    ______ ____
ROOT
ATOM      1  C   LIG    1       -1.208  -0.902   0.009  0.00  0.00    +0.190 C 
ATOM      2  C   LIG    1        0.002  -0.004   0.002  0.00  0.00    +0.160 A 
ATOM      3  N   LIG    1       -0.016   1.303   0.009  0.00  0.00    -0.270 NA
ATOM      4  N   LIG    1        1.307   1.763  -0.001  0.00  0.00    -0.380 N 
ATOM      5  C   LIG    1        2.129   0.673  -0.015  0.00  0.00    +0.190 A 
ATOM      6  C   LIG    1        3.636   0.694  -0.029  0.00  0.00    +0.180 C 
ATOM      7  C   LIG    1        1.698   3.053   0.001  0.00  0.00    +0.650 C 
ATOM      8  O   LIG    1        2.883   3.329  -0.009  0.00  0.00    -0.430 OA
ATOM      9  C   LIG    1        1.342  -0.430  -0.013  0.00  0.00    -0.320 A 
ENDROOT
BRANCH   7  10
ATOM     10  C   LIG    1        0.698   4.122   0.016  0.00  0.00    -0.010 A 
ATOM     11  C   LIG    1        0.956   5.464   0.025  0.00  0.00    +0.080 A 
ATOM     12  C   LIG    1       -0.287   6.114   0.035  0.00  0.00    +0.090 A 
ATOM     13  C   LIG    1       -1.238   5.153   0.040  0.00  0.00    +0.050 A 
ATOM     14  O   LIG    1       -0.641   3.954   0.029  0.00  0.00    -0.100 OA
BRANCH  13  15
ATOM     15  N   LIG    1       -2.700   5.387   0.055  0.00  0.00    +0.060 N 
ATOM     16  O   LIG    1       -3.468   4.442   0.059  0.00  0.00    -0.110 OA
ATOM     17  O   LIG    1       -3.134   6.525   0.064  0.00  0.00    -0.110 OA
ENDBRANCH  13  15
ENDBRANCH   7  10
BRANCH   9  18
ATOM     18  S   LIG    1        1.899  -2.102  -0.027  0.00  0.00    +0.190 S 
BRANCH  18  19
ATOM     19  C   LIG    1        2.008  -2.469  -1.747  0.00  0.00    -0.060 A 
ATOM     20  C   LIG    1        1.673  -1.503  -2.688  0.00  0.00    +0.010 A 
ATOM     21  C   LIG    1        1.764  -1.793  -4.035  0.00  0.00    +0.090 A 
ATOM     22  C   LIG    1        2.179  -3.046  -4.448  0.00  0.00    +0.020 A 
ATOM     23  C   LIG    1        2.508  -4.012  -3.514  0.00  0.00    +0.130 A 
ATOM     24  C   LIG    1        2.424  -3.728  -2.165  0.00  0.00    -0.040 A 
BRANCH  24  25
ATOM     25  N   LIG    1        2.777  -4.762  -1.167  0.00  0.00    +0.030 N 
ATOM     26  O   LIG    1        2.703  -4.510   0.023  0.00  0.00    -0.150 OA
ATOM     27  O   LIG    1        3.142  -5.865  -1.534  0.00  0.00    -0.160 OA
ENDBRANCH  24  25
ENDBRANCH  18  19
ENDBRANCH   9  18
TORSDOF 5
