REMARK  Name = ZINCAx0000000c1a.0
REMARK                            x       y       z     vdW  Elec       q    Type
REMARK                         _______ _______ _______ _____ _____    ______ ____
ROOT
ATOM      1  C   LIG    1       -0.522   0.280  -2.690  0.00  0.00    +0.110 A 
ATOM      2  C   LIG    1       -1.187   1.387  -2.201  0.00  0.00    +0.020 A 
ATOM      3  C   LIG    1       -2.360   1.223  -1.460  0.00  0.00    -0.120 A 
ATOM      4  C   LIG    1       -2.858  -0.060  -1.221  0.00  0.00    +0.050 A 
ATOM      5  C   LIG    1       -2.186  -1.161  -1.706  0.00  0.00    -0.040 A 
ATOM      6  C   LIG    1       -1.021  -0.998  -2.443  0.00  0.00    +0.120 A 
ENDROOT
BRANCH   3   7
ATOM      7  C   LIG    1       -3.075   2.403  -0.935  0.00  0.00    +0.580 C 
ATOM      8  N   LIG    1       -4.413   2.495  -1.069  0.00  0.00    -0.590 N 
ATOM      9  O   LIG    1       -2.457   3.292  -0.382  0.00  0.00    -0.530 OA
BRANCH   8  10
ATOM     10  C   LIG    1       -5.176   1.361  -1.596  0.00  0.00    +0.270 C 
ATOM     11  C   LIG    1       -5.797   0.581  -0.436  0.00  0.00    +0.030 C 
ENDBRANCH   8  10
BRANCH   8  12
ATOM     12  C   LIG    1       -5.104   3.729  -0.687  0.00  0.00    +0.340 C 
BRANCH  12  13
ATOM     13  C   LIG    1       -5.174   4.653  -1.875  0.00  0.00    +0.490 C 
ATOM     14  N   LIG    1       -5.771   5.856  -1.759  0.00  0.00    -0.670 N 
ATOM     15  H   LIG    1       -6.090   6.158  -0.894  0.00  0.00    +0.420 HD
ATOM     16  O   LIG    1       -4.694   4.315  -2.937  0.00  0.00    -0.490 OA
BRANCH  14  17
ATOM     17  C   LIG    1       -5.929   6.673  -2.887  0.00  0.00    +0.070 A 
ATOM     18  C   LIG    1       -4.901   6.785  -3.816  0.00  0.00    +0.130 A 
ATOM     19  C   LIG    1       -5.063   7.587  -4.931  0.00  0.00    +0.000 A 
ATOM     20  C   LIG    1       -6.242   8.285  -5.117  0.00  0.00    +0.080 A 
ATOM     21  C   LIG    1       -7.265   8.181  -4.193  0.00  0.00    +0.000 A 
ATOM     22  F   LIG    1       -3.747   6.107  -3.632  0.00  0.00    -0.110 F 
ATOM     23  C   LIG    1       -7.112   7.376  -3.078  0.00  0.00    +0.110 A 
ATOM     24  F   LIG    1       -8.113   7.274  -2.175  0.00  0.00    -0.130 F 
ENDBRANCH  14  17
ENDBRANCH  12  13
ENDBRANCH   8  12
ENDBRANCH   3   7
BRANCH   1  25
ATOM     25  O   LIG    1        0.620   0.436  -3.412  0.00  0.00    -0.300 OA
BRANCH  25  27
ATOM     26  C   LIG    1        2.361   1.750  -4.453  0.00  0.00    +0.070 C 
ATOM     27  C   LIG    1        1.074   1.774  -3.627  0.00  0.00    +0.170 C 
ENDBRANCH  25  27
ENDBRANCH   1  25
BRANCH   6  28
ATOM     28  O   LIG    1       -0.365  -2.086  -2.923  0.00  0.00    -0.270 OA
BRANCH  28  29
ATOM     29  C   LIG    1       -0.931  -3.366  -2.633  0.00  0.00    +0.240 C 
BRANCH  29  30
ATOM     30  C   LIG    1       -0.074  -4.445  -3.242  0.00  0.00    +0.520 C 
ATOM     31  N   LIG    1       -0.416  -5.740  -3.096  0.00  0.00    -0.620 N 
ATOM     32  C   LIG    1       -1.618  -6.126  -2.341  0.00  0.00    +0.250 C 
ATOM     33  C   LIG    1       -2.441  -7.091  -3.209  0.00  0.00    +0.220 C 
ATOM     34  O   LIG    1       -1.599  -8.159  -3.650  0.00  0.00    -0.380 OA
ATOM     35  C   LIG    1       -0.513  -7.743  -4.481  0.00  0.00    +0.220 C 
ATOM     36  C   LIG    1        0.406  -6.811  -3.682  0.00  0.00    +0.270 C 
ATOM     37  O   LIG    1        0.924  -4.147  -3.864  0.00  0.00    -0.510 OA
ENDBRANCH  29  30
ENDBRANCH  28  29
ENDBRANCH   6  28
TORSDOF 10
