REMARK  Name = ZINCrD00000dVyBi.0
REMARK                            x       y       z     vdW  Elec       q    Type
REMARK                         _______ _______ _______ _____ _____    ______ ____
ROOT
ATOM      1  C   LIG    1       -6.998   4.094   0.616  0.00  0.00    +0.240 C 
ATOM      2  C   LIG    1       -6.134   3.520  -0.519  0.00  0.00    +0.020 C 
ATOM      3  C   LIG    1       -4.965   4.328   0.070  0.00  0.00    +0.240 C 
ATOM      4  C   LIG    1       -5.697   4.255   1.420  0.00  0.00    +0.020 C 
ENDROOT
BRANCH   1   6
ATOM      5  C   LIG    1       -6.823   6.529  -0.075  0.00  0.00    +0.290 C 
ATOM      6  N   LIG    1       -7.641   5.367   0.279  0.00  0.00    -0.600 N 
ATOM      7  C   LIG    1       -8.985   5.468   0.294  0.00  0.00    +0.520 C 
ATOM      8  O   LIG    1       -9.662   4.505   0.588  0.00  0.00    -0.520 OA
BRANCH   7   9
ATOM      9  C   LIG    1       -9.646   6.777  -0.052  0.00  0.00    +0.180 C 
BRANCH   9  10
ATOM     10  C   LIG    1      -11.142   6.624   0.040  0.00  0.00    -0.000 A 
ATOM     11  C   LIG    1      -11.889   6.840   1.137  0.00  0.00    -0.040 A 
ATOM     12  C   LIG    1      -13.231   6.580   0.777  0.00  0.00    -0.060 A 
ATOM     13  C   LIG    1      -13.224   6.220  -0.519  0.00  0.00    +0.170 A 
ATOM     14  O   LIG    1      -11.957   6.255  -0.962  0.00  0.00    -0.170 OA
ENDBRANCH   9  10
ENDBRANCH   7   9
ENDBRANCH   1   6
BRANCH   3  15
ATOM     15  N   LIG    1       -3.688   3.609   0.055  0.00  0.00    -0.710 N 
ATOM     16  H   LIG    1       -3.678   2.639   0.050  0.00  0.00    +0.400 HD
ATOM     17  C   LIG    1       -2.528   4.295   0.047  0.00  0.00    +0.560 C 
ATOM     18  O   LIG    1       -2.541   5.510   0.053  0.00  0.00    -0.520 OA
BRANCH  17  19
ATOM     19  C   LIG    1       -1.242   3.570   0.032  0.00  0.00    -0.180 A 
ATOM     20  C   LIG    1       -1.223   2.174   0.020  0.00  0.00    +0.120 A 
ATOM     21  C   LIG    1       -0.018   1.503   0.010  0.00  0.00    -0.190 A 
ATOM     22  C   LIG    1        1.172   2.209   0.003  0.00  0.00    +0.120 A 
ATOM     23  C   LIG    1        1.164   3.591   0.010  0.00  0.00    -0.010 A 
ATOM     24  C   LIG    1       -0.036   4.278   0.025  0.00  0.00    +0.180 A 
ATOM     25  F   LIG    1       -0.043   5.629   0.032  0.00  0.00    -0.110 F 
BRANCH  21  26
ATOM     26  C   LIG    1        0.002  -0.004   0.002  0.00  0.00    +0.450 C 
ATOM     27  F   LIG    1       -1.127  -0.489   0.670  0.00  0.00    -0.200 F 
ATOM     28  F   LIG    1        1.157  -0.458   0.648  0.00  0.00    -0.190 F 
ENDBRANCH  21  26
ENDBRANCH  17  19
ENDBRANCH   3  15
TORSDOF 6
