REMARK  Name = ZINCvU00000004hS.0
REMARK                            x       y       z     vdW  Elec       q    Type
REMARK                         _______ _______ _______ _____ _____    ______ ____
ROOT
ATOM      1  C   LIG    1       -3.248  -2.912   0.239  0.00  0.00    +0.290 C 
ATOM      2  C   LIG    1       -3.409  -3.387  -1.219  0.00  0.00    +0.110 C 
ATOM      3  C   LIG    1       -2.944  -4.829  -1.182  0.00  0.00    +0.190 C 
ATOM      4  N   LIG    1       -2.593  -5.138   0.018  0.00  0.00    -0.290 NA
ATOM      5  N   LIG    1       -2.726  -4.098   0.936  0.00  0.00    -0.430 N 
ENDROOT
BRANCH   1  10
ATOM      6  C   LIG    1       -1.813   0.572   0.529  0.00  0.00    +0.130 A 
ATOM      7  C   LIG    1       -0.452   0.314   0.464  0.00  0.00    -0.070 A 
ATOM      8  C   LIG    1       -0.001  -0.986   0.336  0.00  0.00    +0.050 A 
ATOM      9  C   LIG    1       -0.906  -2.028   0.261  0.00  0.00    -0.030 A 
ATOM     10  C   LIG    1       -2.264  -1.773   0.321  0.00  0.00    -0.040 A 
ATOM     11  C   LIG    1       -2.720  -0.476   0.454  0.00  0.00    +0.010 A 
BRANCH   6  13
ATOM     12  C   LIG    1       -1.269   2.877   0.732  0.00  0.00    +0.240 C 
ATOM     13  O   LIG    1       -2.259   1.849   0.661  0.00  0.00    -0.320 OA
ENDBRANCH   6  13
ENDBRANCH   1  10
BRANCH   3  14
ATOM     14  C   LIG    1       -2.903  -5.738  -2.341  0.00  0.00    -0.110 A 
ATOM     15  C   LIG    1       -3.317  -5.290  -3.599  0.00  0.00    +0.100 A 
ATOM     16  C   LIG    1       -3.271  -6.141  -4.681  0.00  0.00    -0.070 A 
ATOM     17  C   LIG    1       -2.825  -7.448  -4.521  0.00  0.00    +0.240 A 
ATOM     18  C   LIG    1       -2.417  -7.899  -3.271  0.00  0.00    -0.080 A 
ATOM     19  C   LIG    1       -2.454  -7.053  -2.185  0.00  0.00    +0.110 A 
BRANCH  17  20
ATOM     20  N   LIG    1       -2.785  -8.308  -5.619  0.00  0.00    -0.630 N 
ATOM     21  C   LIG    1       -3.214  -7.835  -6.937  0.00  0.00    +0.280 C 
ATOM     22  C   LIG    1       -2.314  -9.686  -5.453  0.00  0.00    +0.280 C 
ENDBRANCH  17  20
ENDBRANCH   3  14
BRANCH   5  23
ATOM     23  C   LIG    1       -2.426  -4.168   2.248  0.00  0.00    +0.590 C 
ATOM     24  S   LIG    1       -2.646  -2.797   3.250  0.00  0.00    -0.580 S 
BRANCH  23  25
ATOM     25  N   LIG    1       -1.953  -5.316   2.772  0.00  0.00    -0.620 N 
ATOM     26  H   LIG    1       -1.887  -6.110   2.219  0.00  0.00    +0.410 HD
BRANCH  25  27
ATOM     27  C   LIG    1       -1.559  -5.363   4.113  0.00  0.00    +0.120 A 
ATOM     28  C   LIG    1       -0.365  -5.980   4.466  0.00  0.00    +0.000 A 
ATOM     29  C   LIG    1        0.024  -6.020   5.790  0.00  0.00    +0.010 A 
ATOM     30  C   LIG    1       -0.778  -5.456   6.766  0.00  0.00    +0.010 A 
ATOM     31  C   LIG    1       -1.969  -4.846   6.418  0.00  0.00    +0.020 A 
ATOM     32  C   LIG    1       -2.362  -4.798   5.095  0.00  0.00    +0.080 A 
ENDBRANCH  25  27
ENDBRANCH  23  25
ENDBRANCH   5  23
TORSDOF 7
