REMARK  Name = ZINCpe000000XAZo.0
REMARK                            x       y       z     vdW  Elec       q    Type
REMARK                         _______ _______ _______ _____ _____    ______ ____
ROOT
ATOM      1  N   LIG    1        2.029   2.470   1.992  0.00  0.00    -0.680 N 
ATOM      2  H   LIG    1        2.571   2.135   1.260  0.00  0.00    +0.400 HD
ATOM      3  C   LIG    1        2.523   2.479   3.246  0.00  0.00    +0.700 C 
ATOM      4  N   LIG    1        3.777   2.045   3.480  0.00  0.00    -0.630 N 
ATOM      5  C   LIG    1        4.656   1.635   2.373  0.00  0.00    +0.250 C 
ATOM      6  C   LIG    1        5.999   2.365   2.532  0.00  0.00    +0.220 C 
ATOM      7  O   LIG    1        6.499   2.146   3.853  0.00  0.00    -0.370 OA
ATOM      8  C   LIG    1        5.664   2.670   4.889  0.00  0.00    +0.230 C 
ATOM      9  C   LIG    1        4.306   1.961   4.851  0.00  0.00    +0.220 C 
ATOM     10  O   LIG    1        1.837   2.880   4.167  0.00  0.00    -0.550 OA
ENDROOT
BRANCH   1  13
ATOM     11  C   LIG    1        1.436   3.468  -0.604  0.00  0.00    +0.100 C 
ATOM     12  C   LIG    1        0.404   3.438   0.493  0.00  0.00    -0.100 A 
ATOM     13  C   LIG    1        0.735   2.942   1.746  0.00  0.00    +0.170 A 
ATOM     14  C   LIG    1       -0.219   2.915   2.756  0.00  0.00    +0.020 A 
ATOM     15  C   LIG    1       -1.496   3.382   2.513  0.00  0.00    +0.030 A 
ATOM     16  C   LIG    1       -1.830   3.876   1.267  0.00  0.00    -0.040 A 
ATOM     17  C   LIG    1       -0.879   3.910   0.255  0.00  0.00    +0.100 A 
BRANCH  17  18
ATOM     18  N   LIG    1       -1.215   4.415  -1.004  0.00  0.00    -0.510 N 
ATOM     19  C   LIG    1       -1.553   5.843  -0.925  0.00  0.00    +0.200 C 
ATOM     20  C   LIG    1       -2.314   3.647  -1.603  0.00  0.00    +0.200 C 
ENDBRANCH  17  18
ENDBRANCH   1  13
BRANCH   9  21
ATOM     21  C   LIG    1        3.339   2.645   5.819  0.00  0.00    +0.300 C 
BRANCH  21  22
ATOM     22  N   LIG    1        2.129   1.831   5.958  0.00  0.00    -1.090 NA
ATOM     23  H   LIG    1        1.933   1.139   5.307  0.00  0.00    +0.410 HD
BRANCH  22  24
ATOM     24  S   LIG    1        1.095   2.092   7.225  0.00  0.00    +2.620 S 
ATOM     25  O   LIG    1        1.934   2.073   8.371  0.00  0.00    -0.970 OA
ATOM     26  O   LIG    1        0.072   1.122   7.049  0.00  0.00    -0.970 OA
ATOM     27  C   LIG    1        0.444   3.761   6.941  0.00  0.00    -0.290 C 
ENDBRANCH  22  24
ENDBRANCH  21  22
ENDBRANCH   9  21
TORSDOF 5
