REMARK  Name = ZINCqH0000005pjg.0
REMARK                            x       y       z     vdW  Elec       q    Type
REMARK                         _______ _______ _______ _____ _____    ______ ____
ROOT
ATOM      1  C   LIG    1        0.002  -0.004   0.002  0.00  0.00    +0.480 C 
ATOM      2  O   LIG    1       -0.598  -0.612  -0.853  0.00  0.00    -0.490 OA
ENDROOT
BRANCH   1   6
ATOM      3  C   LIG    1        0.509   4.287  -2.409  0.00  0.00    +0.310 C 
ATOM      4  N   LIG    1       -0.249   3.458  -1.469  0.00  0.00    -0.610 N 
ATOM      5  C   LIG    1       -0.013   2.017  -1.427  0.00  0.00    +0.320 C 
ATOM      6  C   LIG    1       -0.018   1.503   0.010  0.00  0.00    +0.070 C 
ATOM      7  C   LIG    1       -1.255   1.982   0.725  0.00  0.00    -0.050 A 
ATOM      8  C   LIG    1       -1.858   1.201   1.687  0.00  0.00    +0.010 A 
ATOM      9  C   LIG    1       -2.986   1.662   2.345  0.00  0.00    +0.050 A 
ATOM     10  C   LIG    1       -3.513   2.905   2.043  0.00  0.00    +0.020 A 
ATOM     11  C   LIG    1       -2.921   3.694   1.077  0.00  0.00    +0.090 A 
ATOM     12  C   LIG    1       -1.791   3.231   0.408  0.00  0.00    -0.130 A 
ATOM     13  C   LIG    1       -1.156   4.036  -0.658  0.00  0.00    +0.560 C 
ATOM     14  O   LIG    1       -1.449   5.207  -0.800  0.00  0.00    -0.520 OA
ENDBRANCH   1   6
BRANCH   1  15
ATOM     15  O   LIG    1        0.687  -0.671   0.944  0.00  0.00    -0.350 OA
BRANCH  15  16
ATOM     16  C   LIG    1        0.662  -2.121   0.874  0.00  0.00    +0.210 C 
BRANCH  16  17
ATOM     17  C   LIG    1        1.492  -2.701   2.022  0.00  0.00    +0.090 C 
BRANCH  17  18
ATOM     18  C   LIG    1        1.467  -4.206   1.949  0.00  0.00    -0.110 C 
ATOM     19  C   LIG    1        2.422  -4.876   1.346  0.00  0.00    -0.030 C 
ATOM     20  C   LIG    1        2.363  -6.384   1.303  0.00  0.00    +0.080 C 
ATOM     21  C   LIG    1        1.063  -6.870   1.959  0.00  0.00    -0.030 C 
ATOM     22  C   LIG    1        0.874  -6.224   3.346  0.00  0.00    +0.030 C 
ATOM     23  C   LIG    1       -0.164  -6.044   1.535  0.00  0.00    -0.080 C 
ATOM     24  C   LIG    1       -1.502  -6.690   1.901  0.00  0.00    +0.050 C 
ATOM     25  C   LIG    1       -0.110  -5.551   0.088  0.00  0.00    +0.020 C 
ATOM     26  C   LIG    1        0.339  -5.007   2.576  0.00  0.00    +0.020 C 
ENDBRANCH  17  18
ENDBRANCH  16  17
ENDBRANCH  15  16
ENDBRANCH   1  15
TORSDOF 5
