REMARK  Name = ZINCtV000002FLGb.0
REMARK                            x       y       z     vdW  Elec       q    Type
REMARK                         _______ _______ _______ _____ _____    ______ ____
ROOT
ATOM      1  C   LIG    1       -3.166   5.515   0.840  0.00  0.00    +0.140 C 
ATOM      2  C   LIG    1       -2.393   5.907   2.073  0.00  0.00    +0.020 A 
ATOM      3  C   LIG    1       -2.320   7.148   2.584  0.00  0.00    +0.000 A 
ATOM      4  C   LIG    1       -1.460   7.057   3.772  0.00  0.00    -0.250 A 
ATOM      5  C   LIG    1       -1.090   5.729   3.872  0.00  0.00    +0.120 A 
ATOM      6  C   LIG    1       -0.205   5.135   4.937  0.00  0.00    +0.150 C 
ATOM      7  N   LIG    1       -1.659   5.057   2.852  0.00  0.00    -0.400 N 
ENDROOT
BRANCH   7   8
ATOM      8  C   LIG    1       -1.514   3.683   2.619  0.00  0.00    +0.110 A 
ATOM      9  C   LIG    1       -2.018   2.766   3.531  0.00  0.00    +0.060 A 
ATOM     10  C   LIG    1       -1.874   1.412   3.299  0.00  0.00    +0.050 A 
ATOM     11  C   LIG    1       -1.227   0.970   2.159  0.00  0.00    +0.090 A 
ATOM     12  C   LIG    1       -0.722   1.881   1.250  0.00  0.00    -0.170 A 
ATOM     13  C   LIG    1       -0.859   3.236   1.479  0.00  0.00    +0.080 A 
BRANCH  12  14
ATOM     14  C   LIG    1       -0.017   1.395   0.010  0.00  0.00    +0.510 C 
ATOM     15  F   LIG    1       -0.694   1.858  -1.124  0.00  0.00    -0.170 F 
ATOM     16  F   LIG    1        1.296   1.879  -0.000  0.00  0.00    -0.170 F 
ATOM     17  F   LIG    1        0.002  -0.004   0.002  0.00  0.00    -0.170 F 
ENDBRANCH  12  14
ENDBRANCH   7   8
BRANCH   4  18
ATOM     18  C   LIG    1       -1.074   8.150   4.667  0.00  0.00    +0.440 C 
ATOM     19  O   LIG    1       -0.352   7.929   5.617  0.00  0.00    -0.450 OA
BRANCH  18  20
ATOM     20  C   LIG    1       -1.573   9.548   4.407  0.00  0.00    +0.070 C 
BRANCH  20  21
ATOM     21  S   LIG    1       -0.925  10.667   5.680  0.00  0.00    -0.190 S 
BRANCH  21  22
ATOM     22  C   LIG    1       -1.623  12.272   5.205  0.00  0.00    +0.120 C 
BRANCH  22  23
ATOM     23  C   LIG    1       -1.169  13.326   6.183  0.00  0.00    -0.070 A 
ATOM     24  C   LIG    1       -1.926  13.596   7.308  0.00  0.00    +0.040 A 
ATOM     25  C   LIG    1       -1.508  14.559   8.207  0.00  0.00    +0.030 A 
ATOM     26  C   LIG    1       -0.339  15.260   7.977  0.00  0.00    +0.040 A 
ATOM     27  C   LIG    1        0.416  14.993   6.848  0.00  0.00    -0.090 A 
ATOM     28 BR   LIG    1        2.016  15.950   6.533  0.00  0.00    -0.050 Br
ATOM     29  C   LIG    1        0.000  14.026   5.952  0.00  0.00    +0.070 A 
ENDBRANCH  22  23
ENDBRANCH  21  22
ENDBRANCH  20  21
ENDBRANCH  18  20
ENDBRANCH   4  18
TORSDOF 7
