REMARK  Name = ZINCpk00000xIkgw.0
REMARK                            x       y       z     vdW  Elec       q    Type
REMARK                         _______ _______ _______ _____ _____    ______ ____
ROOT
ATOM      1  O   LIG    1       -0.850  -0.625   0.601  0.00  0.00    -0.520 OA
ATOM      2  C   LIG    1        0.002  -0.004   0.002  0.00  0.00    +0.550 C 
ATOM      3  N   LIG    1        0.968  -0.661  -0.670  0.00  0.00    -0.600 N 
ATOM      4  C   LIG    1        2.003   0.079  -1.405  0.00  0.00    +0.270 C 
ATOM      5  C   LIG    1        3.381  -0.387  -0.903  0.00  0.00    +0.300 C 
ATOM      6  N   LIG    1        3.413  -1.856  -0.920  0.00  0.00    -0.990 NA
ATOM      7  C   LIG    1        2.374  -2.596  -0.190  0.00  0.00    +0.300 C 
ATOM      8  C   LIG    1        1.000  -2.130  -0.687  0.00  0.00    +0.280 C 
ENDROOT
BRANCH   6   9
ATOM      9  S   LIG    1        4.599  -2.664  -1.747  0.00  0.00    +2.690 S 
ATOM     10  O   LIG    1        4.701  -3.949  -1.150  0.00  0.00    -0.930 OA
ATOM     11  O   LIG    1        5.696  -1.767  -1.854  0.00  0.00    -0.940 OA
BRANCH   9  12
ATOM     12  C   LIG    1        4.007  -2.923  -3.386  0.00  0.00    -0.670 A 
ATOM     13  C   LIG    1        4.639  -2.313  -4.454  0.00  0.00    +0.150 A 
ATOM     14  C   LIG    1        4.175  -2.516  -5.740  0.00  0.00    +0.030 A 
ATOM     15  C   LIG    1        3.080  -3.330  -5.961  0.00  0.00    +0.110 A 
ATOM     16  C   LIG    1        2.447  -3.941  -4.894  0.00  0.00    -0.050 A 
ATOM     17 CL   LIG    1        1.071  -4.963  -5.170  0.00  0.00    -0.030 Cl
ATOM     18  C   LIG    1        2.914  -3.742  -3.606  0.00  0.00    +0.050 A 
ATOM     19 CL   LIG    1        2.125  -4.514  -2.266  0.00  0.00    -0.020 Cl
ENDBRANCH   9  12
ENDBRANCH   6   9
BRANCH   2  20
ATOM     20  C   LIG    1       -0.018   1.503   0.010  0.00  0.00    +0.000 C 
ATOM     21  C   LIG    1       -1.156   2.198  -0.741  0.00  0.00    +0.180 C 
ATOM     22  C   LIG    1       -1.141   2.190   0.790  0.00  0.00    +0.130 C 
BRANCH  22  23
ATOM     23  N   LIG    1       -0.821   3.447   1.470  0.00  0.00    +0.010 N 
ATOM     24  O   LIG    1       -0.949   3.536   2.678  0.00  0.00    -0.140 OA
ATOM     25  O   LIG    1       -0.428   4.404   0.828  0.00  0.00    -0.160 OA
ENDBRANCH  22  23
ENDBRANCH   2  20
TORSDOF 4
