REMARK  Name = ZINCqH0000007uvX.0
REMARK                            x       y       z     vdW  Elec       q    Type
REMARK                         _______ _______ _______ _____ _____    ______ ____
ROOT
ATOM      1  C   LIG    1        1.254   2.054  -0.007  0.00  0.00    +0.550 C 
ATOM      2  N   LIG    1       -0.031   1.368   0.168  0.00  0.00    -0.750 N 
ATOM      3  H   LIG    1       -0.859   1.871   0.218  0.00  0.00    +0.420 HD
ATOM      4  C   LIG    1       -0.037  -0.020   0.253  0.00  0.00    +0.240 A 
ATOM      5  C   LIG    1       -1.113  -0.776  -0.177  0.00  0.00    -0.050 A 
ATOM      6  C   LIG    1       -1.065  -2.154  -0.075  0.00  0.00    +0.080 A 
ATOM      7  C   LIG    1        0.051  -2.783   0.454  0.00  0.00    -0.040 A 
ATOM      8  C   LIG    1        1.132  -2.043   0.889  0.00  0.00    +0.110 A 
ATOM      9  C   LIG    1        1.096  -0.654   0.794  0.00  0.00    -0.200 A 
ATOM     10  C   LIG    1        2.219   0.185   1.250  0.00  0.00    +0.580 C 
ATOM     11  O   LIG    1        3.099  -0.289   1.943  0.00  0.00    -0.530 OA
ATOM     12  N   LIG    1        2.259   1.484   0.890  0.00  0.00    -0.620 N 
ENDROOT
BRANCH   1  16
ATOM     13  C   LIG    1        2.564   1.612  -4.054  0.00  0.00    +0.110 A 
ATOM     14  C   LIG    1        3.487   1.622  -3.021  0.00  0.00    -0.050 A 
ATOM     15  C   LIG    1        3.061   1.765  -1.714  0.00  0.00    +0.060 A 
ATOM     16  C   LIG    1        1.714   1.898  -1.434  0.00  0.00    -0.150 A 
ATOM     17  C   LIG    1        0.786   1.883  -2.459  0.00  0.00    +0.060 A 
ATOM     18  C   LIG    1        1.207   1.746  -3.772  0.00  0.00    +0.070 A 
BRANCH  13  20
ATOM     19  C   LIG    1        4.388   1.338  -5.555  0.00  0.00    +0.240 C 
ATOM     20  O   LIG    1        2.982   1.471  -5.340  0.00  0.00    -0.310 OA
ENDBRANCH  13  20
BRANCH  18  21
ATOM     21  O   LIG    1        0.297   1.736  -4.782  0.00  0.00    -0.480 OA
ATOM     22  H   LIG    1       -0.038   0.856  -5.002  0.00  0.00    +0.390 HD
ENDBRANCH  18  21
ENDBRANCH   1  16
BRANCH  12  23
ATOM     23  C   LIG    1        3.329   2.341   1.408  0.00  0.00    +0.420 C 
BRANCH  23  24
ATOM     24  C   LIG    1        2.845   3.060   2.640  0.00  0.00    -0.050 A 
ATOM     25  C   LIG    1        3.033   2.659   3.911  0.00  0.00    -0.030 A 
ATOM     26  C   LIG    1        2.418   3.625   4.740  0.00  0.00    -0.070 A 
ATOM     27  C   LIG    1        1.890   4.558   3.928  0.00  0.00    +0.170 A 
ATOM     28  O   LIG    1        2.157   4.214   2.657  0.00  0.00    -0.180 OA
ENDBRANCH  23  24
ENDBRANCH  12  23
TORSDOF 5
