REMARK  Name = ZINCpe00000FUpgI.0
REMARK                            x       y       z     vdW  Elec       q    Type
REMARK                         _______ _______ _______ _____ _____    ______ ____
ROOT
ATOM      1  O   LIG    1       -7.110   1.176   1.008  0.00  0.00    -0.520 OA
ATOM      2  C   LIG    1       -6.498   1.040  -0.031  0.00  0.00    +0.500 C 
ATOM      3  N   LIG    1       -5.172   0.801  -0.005  0.00  0.00    -0.610 N 
ATOM      4  C   LIG    1       -4.447   0.701   1.271  0.00  0.00    +0.300 C 
ATOM      5  C   LIG    1       -3.230   1.630   1.214  0.00  0.00    +0.190 C 
ATOM      6  N   LIG    1       -2.433   1.314   0.021  0.00  0.00    -0.500 N 
ATOM      7  C   LIG    1       -3.195   1.564  -1.210  0.00  0.00    +0.190 C 
ATOM      8  C   LIG    1       -4.411   0.633  -1.252  0.00  0.00    +0.280 C 
ENDROOT
BRANCH   6   9
ATOM      9  C   LIG    1       -1.230   2.027   0.019  0.00  0.00    +0.050 A 
ATOM     10  C   LIG    1       -1.243   3.415   0.031  0.00  0.00    +0.010 A 
ATOM     11  C   LIG    1       -0.053   4.117   0.024  0.00  0.00    +0.010 A 
ATOM     12  C   LIG    1        1.152   3.438   0.009  0.00  0.00    +0.050 A 
ATOM     13  C   LIG    1        1.171   2.055   0.002  0.00  0.00    -0.010 A 
ATOM     14  C   LIG    1       -0.016   1.347   0.009  0.00  0.00    +0.130 A 
ATOM     15  F   LIG    1        0.002  -0.004   0.002  0.00  0.00    -0.130 F 
ENDBRANCH   6   9
BRANCH   2  16
ATOM     16  C   LIG    1       -7.220   1.139  -1.349  0.00  0.00    +0.320 C 
BRANCH  16  17
ATOM     17  N   LIG    1       -8.641   1.402  -1.109  0.00  0.00    -0.590 N 
ATOM     18  C   LIG    1       -9.123   2.790  -1.019  0.00  0.00    +0.280 C 
ATOM     19  C   LIG    1       -9.473   3.094   0.439  0.00  0.00    +0.020 C 
ATOM     20  C   LIG    1      -10.898   2.675   0.752  0.00  0.00    +0.010 C 
ATOM     21  C   LIG    1      -11.118   1.174   0.708  0.00  0.00    +0.060 C 
ATOM     22  C   LIG    1      -10.960   0.643  -0.719  0.00  0.00    +0.180 C 
ATOM     23  C   LIG    1       -9.491   0.383  -0.979  0.00  0.00    +0.490 C 
ATOM     24  O   LIG    1       -9.085  -0.757  -1.064  0.00  0.00    -0.530 OA
BRANCH  22  25
ATOM     25  O   LIG    1      -11.699  -0.571  -0.864  0.00  0.00    -0.540 OA
ATOM     26  H   LIG    1      -11.642  -0.963  -1.747  0.00  0.00    +0.380 HD
ENDBRANCH  22  25
ENDBRANCH  16  17
ENDBRANCH   2  16
TORSDOF 4
