REMARK  Name = ZINCrg000000q9pw.0
REMARK                            x       y       z     vdW  Elec       q    Type
REMARK                         _______ _______ _______ _____ _____    ______ ____
ROOT
ATOM      1  N   LIG    1        1.010  -0.201   1.184  0.00  0.00    -0.590 N 
ATOM      2  C   LIG    1        0.202  -0.470   2.229  0.00  0.00    +0.520 C 
ATOM      3  O   LIG    1       -0.973  -0.174   2.179  0.00  0.00    -0.530 OA
ENDROOT
BRANCH   1   4
ATOM      4  C   LIG    1        0.448   0.344  -0.055  0.00  0.00    +0.280 C 
ATOM      5  C   LIG    1       -0.195   1.715   0.217  0.00  0.00    +0.070 C 
ATOM      6  C   LIG    1       -1.064   2.102  -0.997  0.00  0.00    -0.310 C 
ATOM      7  S   LIG    1       -1.589   0.512  -1.734  0.00  0.00    +2.390 S 
ATOM      8  O   LIG    1       -2.987   0.342  -1.544  0.00  0.00    -0.930 OA
ATOM      9  O   LIG    1       -1.032   0.389  -3.035  0.00  0.00    -0.930 OA
ATOM     10  C   LIG    1       -0.681  -0.581  -0.578  0.00  0.00    -0.320 C 
ENDBRANCH   1   4
BRANCH   1  11
ATOM     11  C   LIG    1        2.449  -0.452   1.287  0.00  0.00    +0.310 C 
BRANCH  11  12
ATOM     12  C   LIG    1        2.752  -1.879   0.824  0.00  0.00    +0.150 C 
BRANCH  12  14
ATOM     13  C   LIG    1        2.693  -3.305  -1.101  0.00  0.00    +0.200 C 
ATOM     14  O   LIG    1        2.445  -2.004  -0.566  0.00  0.00    -0.390 OA
ENDBRANCH  12  14
ENDBRANCH  11  12
ENDBRANCH   1  11
BRANCH   2  15
ATOM     15  C   LIG    1        0.759  -1.140   3.459  0.00  0.00    +0.030 C 
BRANCH  15  16
ATOM     16  C   LIG    1       -0.380  -1.442   4.434  0.00  0.00    +0.310 C 
BRANCH  16  17
ATOM     17  N   LIG    1        0.161  -2.094   5.630  0.00  0.00    -0.610 N 
ATOM     18  C   LIG    1        0.673  -1.349   6.629  0.00  0.00    +0.510 C 
ATOM     19  O   LIG    1        1.196  -1.889   7.581  0.00  0.00    -0.540 OA
ATOM     20  C   LIG    1        0.597   0.155   6.564  0.00  0.00    +0.090 C 
BRANCH  17  21
ATOM     21  C   LIG    1        0.145  -3.554   5.739  0.00  0.00    +0.330 C 
BRANCH  21  22
ATOM     22  C   LIG    1        1.468  -4.107   5.276  0.00  0.00    -0.110 A 
ATOM     23  C   LIG    1        1.649  -4.445   3.947  0.00  0.00    +0.010 A 
ATOM     24  C   LIG    1        2.865  -4.947   3.521  0.00  0.00    -0.010 A 
ATOM     25  C   LIG    1        3.895  -5.122   4.425  0.00  0.00    +0.010 A 
ATOM     26  C   LIG    1        3.713  -4.789   5.754  0.00  0.00    +0.000 A 
ATOM     27  C   LIG    1        2.499  -4.282   6.180  0.00  0.00    +0.040 A 
ENDBRANCH  21  22
ENDBRANCH  17  21
ENDBRANCH  16  17
ENDBRANCH  15  16
ENDBRANCH   2  15
TORSDOF 9
