REMARK  Name = ZINCrD00000F5LFj.0
REMARK                            x       y       z     vdW  Elec       q    Type
REMARK                         _______ _______ _______ _____ _____    ______ ____
ROOT
ATOM      1  C   LIG    1       -0.694   1.558   3.746  0.00  0.00    +0.540 C 
ATOM      2  N   LIG    1       -0.218   1.232   4.964  0.00  0.00    -0.630 N 
ATOM      3  C   LIG    1        0.971   0.408   5.284  0.00  0.00    +0.270 C 
ATOM      4  C   LIG    1        1.623   1.125   6.492  0.00  0.00    +0.250 C 
ATOM      5  C   LIG    1        0.474   1.915   7.152  0.00  0.00    +0.030 C 
ATOM      6  C   LIG    1       -0.768   1.612   6.286  0.00  0.00    +0.280 C 
ATOM      7  O   LIG    1       -1.691   2.243   3.648  0.00  0.00    -0.530 OA
ENDROOT
BRANCH   5   8
ATOM      8  C   LIG    1        0.256   1.439   8.566  0.00  0.00    -0.050 A 
ATOM      9  C   LIG    1        0.332   2.334   9.616  0.00  0.00    +0.010 A 
ATOM     10  C   LIG    1        0.132   1.899  10.913  0.00  0.00    +0.050 A 
ATOM     11  C   LIG    1       -0.144   0.568  11.161  0.00  0.00    -0.010 A 
ATOM     12  C   LIG    1       -0.221  -0.330  10.109  0.00  0.00    +0.100 A 
ATOM     13  F   LIG    1       -0.491  -1.631  10.350  0.00  0.00    -0.140 F 
ATOM     14  C   LIG    1       -0.025   0.108   8.810  0.00  0.00    -0.010 A 
ENDBRANCH   5   8
BRANCH   4  15
ATOM     15  N   LIG    1        2.676   2.038   6.042  0.00  0.00    -0.720 N 
ATOM     16  H   LIG    1        2.463   2.963   5.839  0.00  0.00    +0.400 HD
ATOM     17  C   LIG    1        3.942   1.595   5.910  0.00  0.00    +0.550 C 
ATOM     18  O   LIG    1        4.210   0.436   6.165  0.00  0.00    -0.540 OA
BRANCH  17  19
ATOM     19  C   LIG    1        5.000   2.512   5.459  0.00  0.00    -0.090 C 
ATOM     20  C   LIG    1        6.249   2.074   5.329  0.00  0.00    +0.150 C 
ENDBRANCH  17  19
ENDBRANCH   4  15
BRANCH   1  21
ATOM     21  C   LIG    1        0.011   1.072   2.506  0.00  0.00    +0.040 C 
BRANCH  21  22
ATOM     22  C   LIG    1       -0.729   1.579   1.267  0.00  0.00    +0.040 C 
BRANCH  22  23
ATOM     23  C   LIG    1       -0.013   1.086   0.008  0.00  0.00    +0.000 C 
BRANCH  23  24
ATOM     24  C   LIG    1       -0.753   1.593  -1.232  0.00  0.00    +0.020 C 
BRANCH  24  25
ATOM     25  C   LIG    1       -0.037   1.099  -2.490  0.00  0.00    +0.030 C 
BRANCH  25  26
ATOM     26  C   LIG    1       -0.777   1.606  -3.730  0.00  0.00    +0.170 C 
BRANCH  26  28
ATOM     27  C   LIG    1        0.462   0.753  -5.907  0.00  0.00    +0.010 C 
ATOM     28  C   LIG    1       -0.088   1.131  -4.941  0.00  0.00    -0.190 C 
ENDBRANCH  26  28
ENDBRANCH  25  26
ENDBRANCH  24  25
ENDBRANCH  23  24
ENDBRANCH  22  23
ENDBRANCH  21  22
ENDBRANCH   1  21
TORSDOF 10
