REMARK  Name = ZINCtV00000tRPBw.0
REMARK                            x       y       z     vdW  Elec       q    Type
REMARK                         _______ _______ _______ _____ _____    ______ ____
ROOT
ATOM      1  P   LIG    1       -1.781   2.470   0.255  0.00  0.00    +0.550 P 
ENDROOT
BRANCH   1   2
ATOM      2  C   LIG    1       -1.415   2.583  -1.527  0.00  0.00    -0.220 C 
ATOM      3  C   LIG    1       -1.839   3.957  -2.049  0.00  0.00    +0.040 C 
ATOM      4  C   LIG    1       -1.532   4.052  -3.545  0.00  0.00    +0.000 C 
ATOM      5  C   LIG    1       -0.031   3.862  -3.770  0.00  0.00    +0.020 C 
ATOM      6  C   LIG    1        0.394   2.487  -3.248  0.00  0.00    +0.000 C 
ATOM      7  C   LIG    1       -0.377   1.398  -3.997  0.00  0.00    +0.020 C 
ATOM      8  C   LIG    1       -1.878   1.588  -3.771  0.00  0.00    +0.000 C 
ATOM      9  C   LIG    1       -2.302   2.962  -4.293  0.00  0.00    +0.030 C 
ATOM     10  C   LIG    1        0.086   2.393  -1.752  0.00  0.00    -0.010 C 
ATOM     11  C   LIG    1       -2.185   1.493  -2.276  0.00  0.00    +0.060 C 
ENDBRANCH   1   2
BRANCH   1  13
ATOM     12  O   LIG    1       -1.148   0.240   1.333  0.00  0.00    -0.460 OA
ATOM     13  C   LIG    1       -0.711   1.222   0.762  0.00  0.00    +0.320 C 
ATOM     14  N   LIG    1        0.611   1.329   0.522  0.00  0.00    -0.690 N 
ATOM     15  H   LIG    1        0.947   2.056  -0.026  0.00  0.00    +0.400 HD
BRANCH  14  16
ATOM     16  C   LIG    1        1.498   0.392   1.062  0.00  0.00    +0.120 A 
ATOM     17  C   LIG    1        1.073  -0.906   1.311  0.00  0.00    +0.020 A 
ATOM     18  C   LIG    1        1.952  -1.830   1.840  0.00  0.00    +0.030 A 
ATOM     19  C   LIG    1        3.252  -1.462   2.131  0.00  0.00    +0.000 A 
ATOM     20  C   LIG    1        3.678  -0.168   1.889  0.00  0.00    +0.030 A 
ATOM     21  C   LIG    1        2.805   0.759   1.355  0.00  0.00    -0.030 A 
ENDBRANCH  14  16
ENDBRANCH   1  13
BRANCH   1  22
ATOM     22  C   LIG    1       -1.005   3.877   0.869  0.00  0.00    +0.320 C 
ATOM     23  N   LIG    1        0.331   4.013   0.757  0.00  0.00    -0.690 N 
ATOM     24  H   LIG    1        0.842   3.375   0.234  0.00  0.00    +0.390 HD
ATOM     25  O   LIG    1       -1.662   4.750   1.405  0.00  0.00    -0.460 OA
BRANCH  23  26
ATOM     26  C   LIG    1        0.983   5.074   1.396  0.00  0.00    +0.130 A 
ATOM     27  C   LIG    1        0.600   5.456   2.675  0.00  0.00    +0.020 A 
ATOM     28  C   LIG    1        1.248   6.501   3.305  0.00  0.00    +0.030 A 
ATOM     29  C   LIG    1        2.269   7.173   2.659  0.00  0.00    +0.000 A 
ATOM     30  C   LIG    1        2.650   6.798   1.383  0.00  0.00    +0.030 A 
ATOM     31  C   LIG    1        2.009   5.751   0.750  0.00  0.00    -0.020 A 
ENDBRANCH  23  26
ENDBRANCH   1  22
TORSDOF 5
