REMARK  Name = ZINCtj00000042XP.0
REMARK                            x       y       z     vdW  Elec       q    Type
REMARK                         _______ _______ _______ _____ _____    ______ ____
ROOT
ATOM      1  O   LIG    1        5.557  -2.869  -0.215  0.00  0.00    -0.500 OA
ATOM      2  C   LIG    1        4.890  -2.627  -1.199  0.00  0.00    +0.510 C 
ATOM      3  N   LIG    1        3.815  -1.820  -1.103  0.00  0.00    -0.740 N 
ATOM      4  H   LIG    1        3.282  -1.627  -1.891  0.00  0.00    +0.400 HD
ENDROOT
BRANCH   3   5
ATOM      5  C   LIG    1        3.451  -1.236   0.189  0.00  0.00    +0.330 C 
BRANCH   5   6
ATOM      6  C   LIG    1        2.251  -0.341   0.016  0.00  0.00    -0.090 A 
ATOM      7  C   LIG    1        2.419   1.025  -0.111  0.00  0.00    +0.050 A 
ATOM      8  C   LIG    1        1.318   1.845  -0.270  0.00  0.00    +0.060 A 
ATOM      9  C   LIG    1        0.048   1.299  -0.303  0.00  0.00    +0.040 A 
ATOM     10  C   LIG    1       -0.120  -0.067  -0.176  0.00  0.00    +0.050 A 
ATOM     11  C   LIG    1        0.981  -0.887  -0.017  0.00  0.00    -0.140 A 
BRANCH  11  12
ATOM     12  C   LIG    1        0.797  -2.377   0.121  0.00  0.00    +0.320 C 
BRANCH  12  13
ATOM     13  N   LIG    1        1.019  -3.020  -1.181  0.00  0.00    -0.390 N 
ATOM     14  C   LIG    1       -0.023  -2.591  -2.121  0.00  0.00    +0.260 C 
ATOM     15  C   LIG    1        0.249  -3.194  -3.500  0.00  0.00    +0.030 C 
ATOM     16  C   LIG    1        0.245  -4.721  -3.393  0.00  0.00    +0.180 C 
ATOM     17  C   LIG    1        1.285  -5.154  -2.356  0.00  0.00    +0.060 C 
ATOM     18  C   LIG    1        0.974  -4.478  -1.018  0.00  0.00    +0.270 C 
ATOM     19  H   LIG    1        1.923  -2.750  -1.538  0.00  0.00    +0.410 HD
BRANCH  16  20
ATOM     20  O   LIG    1        0.573  -5.290  -4.663  0.00  0.00    -0.550 OA
ATOM     21  H   LIG    1       -0.046  -5.058  -5.369  0.00  0.00    +0.390 HD
ENDBRANCH  16  20
ENDBRANCH  12  13
ENDBRANCH  11  12
ENDBRANCH   5   6
ENDBRANCH   3   5
BRANCH   2  22
ATOM     22  C   LIG    1        5.265  -3.229  -2.529  0.00  0.00    +0.310 C 
BRANCH  22  23
ATOM     23  N   LIG    1        6.460  -4.061  -2.370  0.00  0.00    -0.720 N 
ATOM     24  H   LIG    1        6.877  -4.149  -1.499  0.00  0.00    +0.410 HD
ATOM     25  C   LIG    1        6.981  -4.703  -3.434  0.00  0.00    +0.570 C 
ATOM     26  O   LIG    1        6.458  -4.593  -4.527  0.00  0.00    -0.530 OA
BRANCH  25  27
ATOM     27  C   LIG    1        8.186  -5.541  -3.274  0.00  0.00    -0.160 A 
ATOM     28  C   LIG    1        8.791  -5.664  -2.020  0.00  0.00    +0.060 A 
ATOM     29  C   LIG    1        9.912  -6.451  -1.874  0.00  0.00    -0.010 A 
ATOM     30  C   LIG    1       10.447  -7.113  -2.973  0.00  0.00    +0.140 A 
ATOM     31  C   LIG    1        9.851  -6.988  -4.222  0.00  0.00    -0.010 A 
ATOM     32  C   LIG    1        8.727  -6.208  -4.376  0.00  0.00    +0.100 A 
BRANCH  30  33
ATOM     33  O   LIG    1       11.555  -7.883  -2.825  0.00  0.00    -0.500 OA
ATOM     34  H   LIG    1       12.386  -7.405  -2.956  0.00  0.00    +0.400 HD
ENDBRANCH  30  33
ENDBRANCH  25  27
ENDBRANCH  22  23
ENDBRANCH   2  22
TORSDOF 9
