REMARK  Name = ZINCtV000002IdJ0.1
REMARK                            x       y       z     vdW  Elec       q    Type
REMARK                         _______ _______ _______ _____ _____    ______ ____
ROOT
ATOM      1  N   LIG    1       -0.955  -4.775  -0.523  0.00  0.00    -0.680 N 
ATOM      2  H   LIG    1       -1.451  -5.389  -1.087  0.00  0.00    +0.410 HD
ATOM      3  C   LIG    1        0.137  -5.203   0.141  0.00  0.00    +0.510 C 
ATOM      4  O   LIG    1        0.807  -4.417   0.777  0.00  0.00    -0.500 OA
ENDROOT
BRANCH   1   8
ATOM      5  C   LIG    1       -2.198  -0.811  -0.157  0.00  0.00    -0.110 A 
ATOM      6  C   LIG    1       -0.843  -1.117  -0.154  0.00  0.00    +0.030 A 
ATOM      7  C   LIG    1       -0.432  -2.429  -0.271  0.00  0.00    +0.040 A 
ATOM      8  C   LIG    1       -1.372  -3.443  -0.400  0.00  0.00    +0.140 A 
ATOM      9  C   LIG    1       -2.727  -3.137  -0.407  0.00  0.00    +0.000 A 
ATOM     10  C   LIG    1       -3.139  -1.825  -0.286  0.00  0.00    +0.050 A 
BRANCH   5  11
ATOM     11  S   LIG    1       -2.724   0.864  -0.003  0.00  0.00    -0.000 S 
BRANCH  11  16
ATOM     12  C   LIG    1        2.478   3.924  -0.124  0.00  0.00    +0.100 C 
ATOM     13  C   LIG    1        1.178   3.163  -0.095  0.00  0.00    -0.050 A 
ATOM     14  C   LIG    1        0.519   2.970   1.106  0.00  0.00    -0.010 A 
ATOM     15  C   LIG    1       -0.673   2.272   1.137  0.00  0.00    +0.070 A 
ATOM     16  C   LIG    1       -1.207   1.760  -0.039  0.00  0.00    -0.150 A 
ATOM     17  C   LIG    1       -0.545   1.961  -1.244  0.00  0.00    -0.030 A 
ATOM     18  C   LIG    1       -1.123   1.412  -2.523  0.00  0.00    +0.090 C 
ATOM     19  C   LIG    1        0.646   2.659  -1.268  0.00  0.00    +0.000 A 
ENDBRANCH  11  16
ENDBRANCH   5  11
ENDBRANCH   1   8
BRANCH   3  20
ATOM     20  C   LIG    1        0.526  -6.658   0.093  0.00  0.00    +0.220 C 
BRANCH  20  21
ATOM     21  N   LIG    1        1.742  -6.867   0.891  0.00  0.00    -0.670 NA
ATOM     22  H   LIG    1        1.612  -6.544   1.838  0.00  0.00    +0.360 HD
BRANCH  21  23
ATOM     23  C   LIG    1        2.151  -8.277   0.867  0.00  0.00    +0.190 C 
ATOM     24  C   LIG    1        3.002  -8.540  -0.377  0.00  0.00    +0.050 C 
BRANCH  23  25
ATOM     25  C   LIG    1        2.958  -8.587   2.102  0.00  0.00    -0.080 A 
ATOM     26  C   LIG    1        2.781  -9.790   2.759  0.00  0.00    +0.020 A 
ATOM     27  C   LIG    1        3.521 -10.075   3.892  0.00  0.00    +0.020 A 
ATOM     28  C   LIG    1        4.439  -9.157   4.367  0.00  0.00    +0.020 A 
ATOM     29  C   LIG    1        4.616  -7.953   3.709  0.00  0.00    -0.040 A 
ATOM     30 CL   LIG    1        5.769  -6.800   4.306  0.00  0.00    -0.070 Cl
ATOM     31  C   LIG    1        3.879  -7.670   2.574  0.00  0.00    +0.050 A 
ENDBRANCH  23  25
ENDBRANCH  21  23
ENDBRANCH  20  21
ENDBRANCH   3  20
TORSDOF 7
