REMARK  Name = ZINCqH0000000qEo.0
REMARK                            x       y       z     vdW  Elec       q    Type
REMARK                         _______ _______ _______ _____ _____    ______ ____
ROOT
ATOM      1  C   LIG    1       -2.618  -2.539   0.039  0.00  0.00    +0.270 A 
ATOM      2  N   LIG    1       -1.498  -1.895  -0.067  0.00  0.00    -0.490 NA
ATOM      3  C   LIG    1       -1.563  -0.571  -0.084  0.00  0.00    +0.130 A 
ATOM      4  C   LIG    1       -2.800  -0.054   0.017  0.00  0.00    -0.110 A 
ATOM      5  S   LIG    1       -3.947  -1.387   0.131  0.00  0.00    +0.200 S 
ENDROOT
BRANCH   3   6
ATOM      6  C   LIG    1       -0.354   0.280  -0.200  0.00  0.00    -0.030 A 
ATOM      7  C   LIG    1       -0.461   1.667  -0.108  0.00  0.00    +0.020 A 
ATOM      8  C   LIG    1        0.669   2.446  -0.221  0.00  0.00    +0.010 A 
ATOM      9  C   LIG    1        1.915   1.865  -0.425  0.00  0.00    -0.070 A 
ATOM     10  C   LIG    1        3.102   2.784  -0.551  0.00  0.00    +0.080 C 
ATOM     11  C   LIG    1        4.403   2.014  -0.328  0.00  0.00    +0.020 C 
ATOM     12  C   LIG    1        4.396   0.780  -1.237  0.00  0.00    +0.020 C 
ATOM     13  C   LIG    1        3.349  -0.200  -0.711  0.00  0.00    +0.070 C 
ATOM     14  C   LIG    1        2.027   0.494  -0.510  0.00  0.00    -0.080 A 
ATOM     15  C   LIG    1        0.895  -0.299  -0.401  0.00  0.00    +0.040 A 
ENDBRANCH   3   6
BRANCH   1  17
ATOM     16  C   LIG    1       -3.972  -4.479   0.185  0.00  0.00    +0.520 C 
ATOM     17  N   LIG    1       -2.750  -3.921   0.073  0.00  0.00    -0.620 N 
ATOM     18  H   LIG    1       -1.963  -4.486   0.015  0.00  0.00    +0.430 HD
ATOM     19  O   LIG    1       -4.947  -3.776   0.345  0.00  0.00    -0.490 OA
BRANCH  16  20
ATOM     20  C   LIG    1       -4.126  -5.977   0.112  0.00  0.00    +0.260 C 
BRANCH  20  23
ATOM     21  C   LIG    1       -7.275  -7.823  -1.041  0.00  0.00    +0.110 C 
ATOM     22  C   LIG    1       -5.836  -7.479  -0.758  0.00  0.00    +0.520 C 
ATOM     23  N   LIG    1       -5.526  -6.310  -0.163  0.00  0.00    -0.710 N 
ATOM     24  H   LIG    1       -6.230  -5.690   0.083  0.00  0.00    +0.410 HD
ATOM     25  O   LIG    1       -4.955  -8.255  -1.066  0.00  0.00    -0.540 OA
ENDBRANCH  20  23
BRANCH  20  26
ATOM     26  C   LIG    1       -3.707  -6.598   1.446  0.00  0.00    -0.020 C 
ATOM     27  C   LIG    1       -3.729  -8.123   1.327  0.00  0.00    +0.050 C 
ATOM     28  C   LIG    1       -4.678  -6.157   2.542  0.00  0.00    +0.020 C 
ENDBRANCH  20  26
ENDBRANCH  16  20
ENDBRANCH   1  17
TORSDOF 5
