REMARK  Name = ZINCrD00000463DM.0
REMARK                            x       y       z     vdW  Elec       q    Type
REMARK                         _______ _______ _______ _____ _____    ______ ____
ROOT
ATOM      1  C   LIG    1       -0.733   1.888   1.268  0.00  0.00    -0.020 C 
ATOM      2  C   LIG    1        0.070   1.481   2.507  0.00  0.00    +0.050 C 
ATOM      3  C   LIG    1       -0.681   1.924   3.764  0.00  0.00    +0.210 C 
ATOM      4  N   LIG    1       -2.008   1.294   3.791  0.00  0.00    -0.460 N 
ATOM      5  C   LIG    1       -2.815   1.708   2.635  0.00  0.00    +0.220 C 
ATOM      6  C   LIG    1       -2.127   1.259   1.344  0.00  0.00    +0.030 C 
ENDROOT
BRANCH   4   7
ATOM      7  C   LIG    1       -2.664   1.569   4.978  0.00  0.00    +0.520 A 
ATOM      8  N   LIG    1       -3.859   2.140   4.938  0.00  0.00    -0.570 NA
ATOM      9  C   LIG    1       -4.521   2.413   6.053  0.00  0.00    +0.360 A 
ATOM     10  C   LIG    1       -3.947   2.108   7.271  0.00  0.00    -0.120 A 
ATOM     11  C   LIG    1       -2.683   1.512   7.282  0.00  0.00    +0.380 A 
ATOM     12  N   LIG    1       -2.079   1.260   6.125  0.00  0.00    -0.570 NA
BRANCH  11  13
ATOM     13  N   LIG    1       -2.069   1.188   8.481  0.00  0.00    -0.470 N 
ATOM     14  C   LIG    1       -1.948   2.370   9.347  0.00  0.00    +0.180 C 
ATOM     15  C   LIG    1       -1.320   1.956  10.681  0.00  0.00    +0.240 C 
ATOM     16  O   LIG    1       -0.056   1.334  10.434  0.00  0.00    -0.380 OA
ATOM     17  C   LIG    1       -0.137   0.179   9.594  0.00  0.00    +0.230 C 
ATOM     18  C   LIG    1       -0.753   0.575   8.250  0.00  0.00    +0.190 C 
ENDBRANCH  11  13
ENDBRANCH   4   7
BRANCH   1  19
ATOM     19  C   LIG    1       -0.017   1.395   0.010  0.00  0.00    +0.250 C 
ATOM     20  F   LIG    1        0.002  -0.004   0.002  0.00  0.00    -0.200 F 
BRANCH  19  27
ATOM     21  F   LIG    1       -2.222   0.043  -1.109  0.00  0.00    -0.130 F 
ATOM     22  C   LIG    1       -1.823   1.184  -1.713  0.00  0.00    +0.120 A 
ATOM     23  C   LIG    1       -2.496   1.647  -2.831  0.00  0.00    -0.020 A 
ATOM     24  C   LIG    1       -2.084   2.811  -3.452  0.00  0.00    +0.060 A 
ATOM     25  C   LIG    1       -1.004   3.516  -2.953  0.00  0.00    +0.000 A 
ATOM     26  C   LIG    1       -0.336   3.058  -1.833  0.00  0.00    +0.060 A 
ATOM     27  C   LIG    1       -0.746   1.894  -1.211  0.00  0.00    -0.160 A 
ENDBRANCH  19  27
ENDBRANCH   1  19
TORSDOF 4
