REMARK  Name = ZINCrD00000fDnWW.0
REMARK                            x       y       z     vdW  Elec       q    Type
REMARK                         _______ _______ _______ _____ _____    ______ ____
ROOT
ATOM      1  O   LIG    1        1.030   1.967   0.003  0.00  0.00    -0.620 OA
ATOM      2  C   LIG    1       -0.016   1.344   0.009  0.00  0.00    +0.690 C 
ATOM      3  N   LIG    1        0.002  -0.004   0.002  0.00  0.00    -0.720 N 
ATOM      4  H   LIG    1       -0.831  -0.500   0.007  0.00  0.00    +0.400 HD
ENDROOT
BRANCH   2   5
ATOM      5  N   LIG    1       -1.184   1.997   0.018  0.00  0.00    -0.680 NA
ATOM      6  C   LIG    1       -1.202   3.326   0.026  0.00  0.00    +0.500 A 
ATOM      7  C   LIG    1       -0.077   4.179   0.031  0.00  0.00    -0.100 A 
ATOM      8  C   LIG    1       -0.514   5.456   0.034  0.00  0.00    +0.340 A 
ATOM      9  N   LIG    1       -1.879   5.457   0.041  0.00  0.00    -0.390 N 
ATOM     10  N   LIG    1       -2.320   4.126   0.035  0.00  0.00    -0.480 N 
ATOM     11  H   LIG    1       -3.242   3.826   0.039  0.00  0.00    +0.450 HD
BRANCH   9  12
ATOM     12  C   LIG    1       -2.736   6.644   0.051  0.00  0.00    +0.250 C 
ATOM     13  C   LIG    1       -4.018   6.479   0.888  0.00  0.00    +0.230 C 
ATOM     14  O   LIG    1       -4.684   7.134  -0.210  0.00  0.00    -0.360 OA
ATOM     15  C   LIG    1       -3.677   6.743  -1.164  0.00  0.00    +0.220 C 
ENDBRANCH   9  12
ENDBRANCH   2   5
BRANCH   3  16
ATOM     16  C   LIG    1        1.281  -0.719  -0.014  0.00  0.00    +0.300 C 
BRANCH  16  17
ATOM     17  C   LIG    1        1.021  -2.227  -0.020  0.00  0.00    +0.200 C 
BRANCH  17  18
ATOM     18  C   LIG    1        2.337  -2.963  -0.036  0.00  0.00    -0.110 A 
ATOM     19  C   LIG    1        3.005  -3.210   1.149  0.00  0.00    +0.060 A 
ATOM     20  C   LIG    1        4.208  -3.889   1.134  0.00  0.00    +0.030 A 
ATOM     21  C   LIG    1        4.750  -4.312  -0.067  0.00  0.00    -0.030 A 
ATOM     22  C   LIG    1        4.083  -4.059  -1.252  0.00  0.00    +0.030 A 
ATOM     23 CL   LIG    1        6.265  -5.159  -0.086  0.00  0.00    -0.070 Cl
ATOM     24  C   LIG    1        2.877  -3.385  -1.236  0.00  0.00    +0.030 A 
ENDBRANCH  17  18
BRANCH  17  25
ATOM     25  O   LIG    1        0.288  -2.589   1.152  0.00  0.00    -0.370 OA
BRANCH  25  26
ATOM     26  C   LIG    1       -0.568  -3.719   0.976  0.00  0.00    +0.200 C 
BRANCH  26  27
ATOM     27  C   LIG    1       -1.300  -4.014   2.287  0.00  0.00    -0.040 C 
ATOM     28  C   LIG    1       -1.012  -5.352   2.971  0.00  0.00    +0.010 C 
ATOM     29  C   LIG    1       -2.355  -5.122   2.274  0.00  0.00    +0.030 C 
ENDBRANCH  26  27
ENDBRANCH  25  26
ENDBRANCH  17  25
ENDBRANCH  16  17
ENDBRANCH   3  16
TORSDOF 8
