REMARK  Name = ZINCvU0000000Htf.0
REMARK                            x       y       z     vdW  Elec       q    Type
REMARK                         _______ _______ _______ _____ _____    ______ ____
ROOT
ATOM      1  C   LIG    1        3.108   1.835   5.135  0.00  0.00    -0.020 A 
ATOM      2  C   LIG    1        3.135   2.074   6.445  0.00  0.00    -0.020 A 
ATOM      3  S   LIG    1        3.048   0.586   7.367  0.00  0.00    +0.180 S 
ATOM      4  C   LIG    1        2.973  -0.397   5.912  0.00  0.00    +0.120 A 
ATOM      5  N   LIG    1        2.887  -1.724   5.749  0.00  0.00    -0.530 NA
ATOM      6  C   LIG    1        2.842  -2.258   4.551  0.00  0.00    +0.560 A 
ATOM      7  N   LIG    1        2.874  -1.524   3.453  0.00  0.00    -0.580 NA
ATOM      8  C   LIG    1        2.964  -0.204   3.514  0.00  0.00    +0.500 A 
ATOM      9  C   LIG    1        3.015   0.423   4.783  0.00  0.00    -0.230 A 
ENDROOT
BRANCH   1  13
ATOM     10  C   LIG    1        3.280   4.929   2.223  0.00  0.00    +0.140 A 
ATOM     11  C   LIG    1        2.261   4.921   3.166  0.00  0.00    +0.000 A 
ATOM     12  C   LIG    1        2.203   3.919   4.112  0.00  0.00    +0.080 A 
ATOM     13  C   LIG    1        3.168   2.913   4.120  0.00  0.00    -0.080 A 
ATOM     14  C   LIG    1        4.193   2.927   3.175  0.00  0.00    +0.050 A 
ATOM     15  C   LIG    1        4.243   3.929   2.228  0.00  0.00    -0.080 A 
BRANCH  10  17
ATOM     16  C   LIG    1        4.409   5.865   0.351  0.00  0.00    +0.240 C 
ATOM     17  O   LIG    1        3.334   5.918   1.292  0.00  0.00    -0.310 OA
ENDBRANCH  10  17
ENDBRANCH   1  13
BRANCH   8  18
ATOM     18  N   LIG    1        3.003   0.552   2.355  0.00  0.00    -0.690 N 
ATOM     19  H   LIG    1        2.984   1.520   2.407  0.00  0.00    +0.410 HD
BRANCH  18  20
ATOM     20  C   LIG    1        3.072  -0.111   1.050  0.00  0.00    +0.300 C 
BRANCH  20  21
ATOM     21  C   LIG    1        4.509  -0.424   0.722  0.00  0.00    -0.100 A 
ATOM     22  C   LIG    1        5.501   0.492   1.018  0.00  0.00    +0.010 A 
ATOM     23  C   LIG    1        6.820   0.203   0.720  0.00  0.00    +0.000 A 
ATOM     24  C   LIG    1        7.146  -0.999   0.119  0.00  0.00    +0.010 A 
ATOM     25  C   LIG    1        6.153  -1.913  -0.181  0.00  0.00    +0.010 A 
ATOM     26  C   LIG    1        4.835  -1.625   0.120  0.00  0.00    +0.040 A 
ENDBRANCH  20  21
BRANCH  20  27
ATOM     27  C   LIG    1        2.494   0.813  -0.023  0.00  0.00    +0.340 C 
BRANCH  27  28
ATOM     28  N   LIG    1        1.066   1.022   0.231  0.00  0.00    -0.370 N 
ATOM     29  C   LIG    1        0.450   2.215   0.371  0.00  0.00    +0.220 A 
ATOM     30  C   LIG    1       -0.863   1.977   0.593  0.00  0.00    -0.120 A 
ATOM     31  C   LIG    1       -1.057   0.592   0.587  0.00  0.00    +0.230 A 
ATOM     32  N   LIG    1        0.098   0.018   0.370  0.00  0.00    -0.290 NA
ENDBRANCH  27  28
ENDBRANCH  20  27
ENDBRANCH  18  20
ENDBRANCH   8  18
TORSDOF 7
