REMARK  Name = ZINCqH0000002pJE.0
REMARK                            x       y       z     vdW  Elec       q    Type
REMARK                         _______ _______ _______ _____ _____    ______ ____
ROOT
ATOM      1  C   LIG    1        4.857   0.025   3.933  0.00  0.00    -0.150 A 
ATOM      2  C   LIG    1        4.218   0.752   4.939  0.00  0.00    +0.110 A 
ATOM      3  C   LIG    1        3.425   1.831   4.608  0.00  0.00    +0.000 A 
ATOM      4  C   LIG    1        3.267   2.197   3.283  0.00  0.00    +0.160 A 
ATOM      5  C   LIG    1        3.893   1.478   2.281  0.00  0.00    -0.680 A 
ATOM      6  C   LIG    1        4.689   0.397   2.598  0.00  0.00    +0.180 A 
ENDROOT
BRANCH   1   8
ATOM      7  N   LIG    1        6.376  -1.152   5.451  0.00  0.00    -0.610 N 
ATOM      8  C   LIG    1        5.709  -1.132   4.280  0.00  0.00    +0.560 C 
ATOM      9  O   LIG    1        5.807  -2.067   3.509  0.00  0.00    -0.520 OA
ATOM     10  C   LIG    1        6.350   0.021   6.328  0.00  0.00    +0.290 C 
BRANCH   7  11
ATOM     11  C   LIG    1        7.126  -2.346   5.847  0.00  0.00    +0.290 C 
BRANCH  11  12
ATOM     12  C   LIG    1        8.561  -2.242   5.325  0.00  0.00    -0.010 C 
BRANCH  12  14
ATOM     13  C   LIG    1       10.780  -3.386   5.216  0.00  0.00    +0.010 C 
ATOM     14  C   LIG    1        9.345  -3.490   5.738  0.00  0.00    +0.000 C 
ENDBRANCH  12  14
ENDBRANCH  11  12
ENDBRANCH   7  11
ENDBRANCH   1   8
BRANCH   5  15
ATOM     15  S   LIG    1        3.680   1.949   0.596  0.00  0.00    +2.680 S 
ATOM     16  O   LIG    1        3.319   3.323   0.606  0.00  0.00    -0.940 OA
ATOM     17  O   LIG    1        4.808   1.447  -0.107  0.00  0.00    -0.940 OA
BRANCH  15  18
ATOM     18  N   LIG    1        2.365   1.123   0.020  0.00  0.00    -0.950 N 
BRANCH  18  19
ATOM     19  C   LIG    1        1.106   1.729   0.018  0.00  0.00    +0.130 A 
ATOM     20  C   LIG    1        0.899   2.901  -0.699  0.00  0.00    +0.030 A 
ATOM     21  C   LIG    1       -0.345   3.500  -0.694  0.00  0.00    +0.020 A 
ATOM     22  C   LIG    1       -1.387   2.929   0.014  0.00  0.00    +0.010 A 
ATOM     23  C   LIG    1       -1.184   1.762   0.728  0.00  0.00    +0.020 A 
ATOM     24  C   LIG    1        0.059   1.161   0.732  0.00  0.00    +0.010 A 
ENDBRANCH  18  19
BRANCH  18  25
ATOM     25  C   LIG    1        2.522  -0.242  -0.488  0.00  0.00    +0.300 C 
ATOM     26  C   LIG    1        2.705  -0.203  -2.007  0.00  0.00    +0.030 C 
ENDBRANCH  18  25
ENDBRANCH  15  18
ENDBRANCH   5  15
TORSDOF 8
