REMARK  Name = ZINCqH0000007l6B.0
REMARK                            x       y       z     vdW  Elec       q    Type
REMARK                         _______ _______ _______ _____ _____    ______ ____
ROOT
ATOM      1  N   LIG    1       -1.191   1.869   0.018  0.00  0.00    -0.710 N 
ATOM      2  H   LIG    1       -1.204   2.839   0.023  0.00  0.00    +0.400 HD
ATOM      3  C   LIG    1       -0.014   1.211   0.009  0.00  0.00    +0.570 C 
ATOM      4  O   LIG    1        0.002  -0.004   0.002  0.00  0.00    -0.520 OA
ENDROOT
BRANCH   3   5
ATOM      5  C   LIG    1        1.256   1.968   0.001  0.00  0.00    -0.070 A 
ATOM      6  C   LIG    1        1.861   2.342  -1.192  0.00  0.00    -0.100 A 
ATOM      7  C   LIG    1        3.058   3.054  -1.163  0.00  0.00    +0.160 A 
ATOM      8  N   LIG    1        3.638   3.386  -0.036  0.00  0.00    -0.460 NA
ATOM      9  C   LIG    1        3.114   3.061   1.149  0.00  0.00    +0.130 A 
ATOM     10  C   LIG    1        3.752   3.428   2.348  0.00  0.00    +0.050 A 
ATOM     11  C   LIG    1        3.186   3.099   3.541  0.00  0.00    +0.030 A 
ATOM     12  C   LIG    1        1.990   2.387   3.598  0.00  0.00    +0.020 A 
ATOM     13  C   LIG    1        1.347   2.010   2.457  0.00  0.00    +0.030 A 
ATOM     14  C   LIG    1        3.705   3.453  -2.464  0.00  0.00    +0.130 C 
ATOM     15  C   LIG    1        1.227   1.979  -2.510  0.00  0.00    +0.110 C 
ATOM     16  C   LIG    1        1.895   2.342   1.211  0.00  0.00    -0.070 A 
ENDBRANCH   3   5
BRANCH   1  17
ATOM     17  C   LIG    1       -2.449   1.119   0.020  0.00  0.00    +0.340 C 
BRANCH  17  22
ATOM     18  C   LIG    1       -5.333   3.245   1.223  0.00  0.00    +0.090 A 
ATOM     19  C   LIG    1       -5.739   3.855   0.045  0.00  0.00    -0.030 A 
ATOM     20  C   LIG    1       -5.080   3.579  -1.138  0.00  0.00    -0.040 A 
ATOM     21  C   LIG    1       -4.013   2.693  -1.147  0.00  0.00    +0.110 A 
ATOM     22  C   LIG    1       -3.608   2.083   0.030  0.00  0.00    -0.110 A 
ATOM     23  C   LIG    1       -4.270   2.354   1.212  0.00  0.00    +0.050 A 
BRANCH  18  25
ATOM     24  C   LIG    1       -7.071   4.438   2.323  0.00  0.00    +0.250 C 
ATOM     25  O   LIG    1       -5.981   3.516   2.387  0.00  0.00    -0.320 OA
ENDBRANCH  18  25
BRANCH  21  26
ATOM     26  O   LIG    1       -3.365   2.423  -2.312  0.00  0.00    -0.310 OA
ATOM     27  C   LIG    1       -3.836   3.087  -3.486  0.00  0.00    +0.250 C 
ENDBRANCH  21  26
ENDBRANCH  17  22
ENDBRANCH   1  17
TORSDOF 5
