REMARK  Name = ZINCrg000000oTOq.0
REMARK                            x       y       z     vdW  Elec       q    Type
REMARK                         _______ _______ _______ _____ _____    ______ ____
ROOT
ATOM      1  C   LIG    1       -1.444   5.112  -2.593  0.00  0.00    +0.330 A 
ATOM      2  N   LIG    1       -0.250   4.641  -2.440  0.00  0.00    -0.550 NA
ATOM      3  C   LIG    1       -0.091   3.619  -1.605  0.00  0.00    +0.130 A 
ATOM      4  C   LIG    1       -1.239   3.225  -1.030  0.00  0.00    -0.310 A 
ATOM      5  C   LIG    1       -1.366   2.095  -0.039  0.00  0.00    +0.370 C 
ATOM      6  N   LIG    1       -0.082   1.374  -0.017  0.00  0.00    -0.610 N 
ATOM      7  C   LIG    1        1.153   2.172  -0.011  0.00  0.00    +0.290 C 
ATOM      8  C   LIG    1       -0.041   0.026  -0.007  0.00  0.00    +0.530 C 
ATOM      9  O   LIG    1        1.024  -0.548  -0.095  0.00  0.00    -0.530 OA
ATOM     10  C   LIG    1        1.248   2.955  -1.323  0.00  0.00    +0.130 C 
ATOM     11  S   LIG    1       -2.547   4.239  -1.623  0.00  0.00    +0.110 S 
ENDROOT
BRANCH   8  12
ATOM     12  C   LIG    1       -1.317  -0.766   0.113  0.00  0.00    -0.020 C 
ATOM     13  C   LIG    1       -1.811  -1.153  -1.282  0.00  0.00    +0.040 C 
ATOM     14  C   LIG    1       -3.125  -1.929  -1.163  0.00  0.00    +0.020 C 
ATOM     15  C   LIG    1       -2.883  -3.213  -0.363  0.00  0.00    +0.280 C 
ATOM     16  N   LIG    1       -2.272  -2.859   0.926  0.00  0.00    -0.600 N 
ATOM     17  C   LIG    1       -1.055  -2.037   0.928  0.00  0.00    +0.320 C 
BRANCH  16  18
ATOM     18  C   LIG    1       -2.831  -3.292   2.111  0.00  0.00    +0.440 A 
ATOM     19  C   LIG    1       -3.458  -4.524   2.177  0.00  0.00    -0.220 A 
ATOM     20  C   LIG    1       -4.013  -4.926   3.400  0.00  0.00    +0.530 A 
ATOM     21  N   LIG    1       -3.912  -4.098   4.461  0.00  0.00    -0.640 N 
ATOM     22  H   LIG    1       -4.290  -4.361   5.316  0.00  0.00    +0.420 HD
ATOM     23  C   LIG    1       -3.290  -2.909   4.339  0.00  0.00    +0.620 A 
ATOM     24  O   LIG    1       -4.575  -6.005   3.504  0.00  0.00    -0.550 OA
ATOM     25  N   LIG    1       -2.765  -2.523   3.209  0.00  0.00    -0.570 NA
ENDBRANCH  16  18
ENDBRANCH   8  12
BRANCH   1  27
ATOM     26  C   LIG    1       -0.745   6.842  -4.210  0.00  0.00    +0.310 C 
ATOM     27  N   LIG    1       -1.781   6.170  -3.423  0.00  0.00    -0.590 N 
ATOM     28  C   LIG    1       -3.174   6.615  -3.514  0.00  0.00    +0.300 C 
ENDBRANCH   1  27
TORSDOF 3
