REMARK  Name = ZINCzw000000042o.0
REMARK                            x       y       z     vdW  Elec       q    Type
REMARK                         _______ _______ _______ _____ _____    ______ ____
ROOT
ATOM      1  N   LIG    1       -0.314  10.499   0.672  0.00  0.00    -0.370 N 
ATOM      2  C   LIG    1       -0.892  10.331  -0.666  0.00  0.00    +0.270 C 
ATOM      3  C   LIG    1       -1.187   8.850  -0.917  0.00  0.00    +0.100 C 
ATOM      4  C   LIG    1        0.116   8.053  -0.818  0.00  0.00    +0.000 C 
ATOM      5  C   LIG    1        0.749   8.294   0.556  0.00  0.00    +0.080 C 
ATOM      6  C   LIG    1        0.972   9.795   0.752  0.00  0.00    +0.280 C 
ATOM      7  H   LIG    1       -0.946  10.118   1.361  0.00  0.00    +0.430 HD
ENDROOT
BRANCH   4   8
ATOM      8  C   LIG    1       -0.178   6.584  -0.986  0.00  0.00    +0.510 C 
ATOM      9  N   LIG    1        0.826   5.686  -0.935  0.00  0.00    -0.660 N 
ATOM     10  H   LIG    1        1.725   5.975  -0.717  0.00  0.00    +0.410 HD
ATOM     11  O   LIG    1       -1.318   6.211  -1.167  0.00  0.00    -0.500 OA
BRANCH   9  12
ATOM     12  C   LIG    1        0.569   4.334  -1.198  0.00  0.00    +0.140 A 
ATOM     13  C   LIG    1        1.295   3.349  -0.541  0.00  0.00    +0.010 A 
ATOM     14  C   LIG    1        1.040   2.015  -0.797  0.00  0.00    +0.070 A 
ATOM     15  C   LIG    1        0.067   1.656  -1.715  0.00  0.00    +0.030 A 
ATOM     16  O   LIG    1       -0.367   0.433  -2.141  0.00  0.00    -0.300 OA
ATOM     17  C   LIG    1       -1.083   0.685  -3.365  0.00  0.00    +0.440 C 
ATOM     18  O   LIG    1       -1.554   2.037  -3.215  0.00  0.00    -0.300 OA
ATOM     19  C   LIG    1       -0.663   2.642  -2.376  0.00  0.00    +0.060 A 
ATOM     20  C   LIG    1       -0.410   3.978  -2.116  0.00  0.00    +0.050 A 
ENDBRANCH   9  12
ENDBRANCH   4   8
BRANCH   1  21
ATOM     21  C   LIG    1       -0.106  11.928   0.938  0.00  0.00    +0.290 C 
BRANCH  21  29
ATOM     22  C   LIG    1       -0.518  17.759   4.255  0.00  0.00    +0.120 A 
ATOM     23  C   LIG    1       -1.650  17.051   3.901  0.00  0.00    -0.030 A 
ATOM     24  C   LIG    1       -1.594  16.073   2.914  0.00  0.00    -0.060 A 
ATOM     25  C   LIG    1       -0.400  15.813   2.280  0.00  0.00    -0.110 A 
ATOM     26  C   LIG    1       -0.273  14.777   1.196  0.00  0.00    +0.340 C 
ATOM     27  N   LIG    1       -1.494  13.966   1.136  0.00  0.00    -0.590 N 
ATOM     28  C   LIG    1       -2.781  14.677   1.216  0.00  0.00    +0.310 C 
ATOM     29  C   LIG    1       -1.440  12.625   1.018  0.00  0.00    +0.510 C 
ATOM     30  O   LIG    1       -2.465  11.978   0.975  0.00  0.00    -0.530 OA
ATOM     31  C   LIG    1        0.742  16.519   2.636  0.00  0.00    -0.030 A 
ATOM     32  C   LIG    1       -2.868  15.337   2.591  0.00  0.00    +0.080 C 
ATOM     33  C   LIG    1        0.691  17.490   3.618  0.00  0.00    +0.110 A 
BRANCH  22  35
ATOM     34  C   LIG    1       -1.857  18.936   5.829  0.00  0.00    +0.250 C 
ATOM     35  O   LIG    1       -0.584  18.715   5.220  0.00  0.00    -0.300 OA
ENDBRANCH  22  35
BRANCH  33  36
ATOM     36  O   LIG    1        1.813  18.178   3.961  0.00  0.00    -0.300 OA
ATOM     37  C   LIG    1        3.015  17.846   3.264  0.00  0.00    +0.240 C 
ENDBRANCH  33  36
ENDBRANCH  21  29
ENDBRANCH   1  21
TORSDOF 6
