REMARK  Name = ZINCpe00000VVGx0.0
REMARK                            x       y       z     vdW  Elec       q    Type
REMARK                         _______ _______ _______ _____ _____    ______ ____
ROOT
ATOM      1  C   LIG    1       -0.757   1.586   1.265  0.00  0.00    +0.110 C 
ATOM      2  C   LIG    1       -1.586   2.798   0.760  0.00  0.00    +0.040 C 
ATOM      3  C   LIG    1       -1.965   2.346  -0.672  0.00  0.00    +0.190 C 
ATOM      4  N   LIG    1       -0.776   1.621  -1.166  0.00  0.00    -0.510 NA
ATOM      5  C   LIG    1       -0.015   1.122  -0.006  0.00  0.00    +0.210 C 
ENDROOT
BRANCH   1   6
ATOM      6  N   LIG    1        0.198   2.001   2.302  0.00  0.00    -0.520 NA
ATOM      7  C   LIG    1       -0.498   2.595   3.451  0.00  0.00    +0.200 C 
BRANCH   6   8
ATOM      8  C   LIG    1        1.041   0.874   2.723  0.00  0.00    +0.300 C 
BRANCH   8  11
ATOM      9  C   LIG    1        1.013   1.194   5.836  0.00  0.00    +0.320 C 
ATOM     10  N   LIG    1        2.130   1.514   4.944  0.00  0.00    -0.470 N 
ATOM     11  C   LIG    1        2.160   1.382   3.595  0.00  0.00    +0.180 A 
ATOM     12  N   LIG    1        3.339   1.771   3.193  0.00  0.00    -0.270 NA
ATOM     13  N   LIG    1        4.040   2.144   4.205  0.00  0.00    -0.290 NA
ATOM     14  C   LIG    1        3.343   2.002   5.299  0.00  0.00    +0.210 A 
BRANCH  14  15
ATOM     15  C   LIG    1        3.802   2.321   6.699  0.00  0.00    +0.030 C 
ATOM     16  C   LIG    1        5.136   3.054   6.855  0.00  0.00    +0.070 C 
ATOM     17  C   LIG    1        5.027   1.573   7.228  0.00  0.00    +0.050 C 
ENDBRANCH  14  15
ENDBRANCH   8  11
ENDBRANCH   6   8
ENDBRANCH   1   6
BRANCH   4  18
ATOM     18  C   LIG    1       -1.164   0.517  -2.055  0.00  0.00    +0.200 C 
BRANCH  18  19
ATOM     19  C   LIG    1       -2.139   1.022  -3.087  0.00  0.00    +0.520 C 
ATOM     20  N   LIG    1       -2.635   0.179  -4.014  0.00  0.00    -0.590 N 
ATOM     21  C   LIG    1       -2.227  -1.228  -4.019  0.00  0.00    +0.290 C 
ATOM     22  O   LIG    1       -2.477   2.187  -3.083  0.00  0.00    -0.520 OA
BRANCH  20  23
ATOM     23  C   LIG    1       -3.583   0.670  -5.018  0.00  0.00    +0.210 C 
ATOM     24  C   LIG    1       -4.266  -0.367  -5.911  0.00  0.00    +0.020 C 
ATOM     25  C   LIG    1       -3.182   0.546  -6.489  0.00  0.00    +0.010 C 
ENDBRANCH  20  23
ENDBRANCH  18  19
ENDBRANCH   4  18
TORSDOF 7
