REMARK  Name = ZINCpk00000y6uTd.0
REMARK                            x       y       z     vdW  Elec       q    Type
REMARK                         _______ _______ _______ _____ _____    ______ ____
ROOT
ATOM      1  C   LIG    1        7.641   1.084   3.381  0.00  0.00    +0.280 C 
ATOM      2  O   LIG    1        7.256   0.894   4.743  0.00  0.00    -0.350 OA
ATOM      3  C   LIG    1        6.971   2.107   5.443  0.00  0.00    +0.210 C 
ATOM      4  C   LIG    1        5.802   2.825   4.763  0.00  0.00    +0.000 C 
ATOM      5  C   LIG    1        6.159   3.090   3.297  0.00  0.00    +0.050 C 
ATOM      6  C   LIG    1        6.499   1.760   2.618  0.00  0.00    -0.020 C 
ENDROOT
BRANCH   1  11
ATOM      7  N   LIG    1        9.039  -0.550   2.023  0.00  0.00    -0.440 N 
ATOM      8  C   LIG    1        8.928  -1.860   1.642  0.00  0.00    +0.120 A 
ATOM      9  C   LIG    1        7.769  -2.318   2.152  0.00  0.00    +0.140 A 
ATOM     10  N   LIG    1        7.190  -1.316   2.830  0.00  0.00    -0.460 NA
ATOM     11  C   LIG    1        7.943  -0.253   2.753  0.00  0.00    +0.200 A 
BRANCH   7  13
ATOM     12  C   LIG    1       11.079   0.472   2.903  0.00  0.00    +0.040 C 
ATOM     13  C   LIG    1       10.141   0.359   1.700  0.00  0.00    +0.280 C 
ENDBRANCH   7  13
ENDBRANCH   1  11
BRANCH   6  14
ATOM     14  C   LIG    1        6.926   2.016   1.195  0.00  0.00    +0.520 C 
ATOM     15  N   LIG    1        6.598   1.140   0.225  0.00  0.00    -0.710 N 
ATOM     16  H   LIG    1        6.088   0.344   0.443  0.00  0.00    +0.400 HD
ATOM     17  O   LIG    1        7.564   3.011   0.923  0.00  0.00    -0.540 OA
BRANCH  15  18
ATOM     18  C   LIG    1        7.013   1.389  -1.158  0.00  0.00    +0.360 C 
BRANCH  18  19
ATOM     19  C   LIG    1        6.525   0.268  -2.038  0.00  0.00    -0.270 A 
ATOM     20  C   LIG    1        7.261  -0.779  -2.477  0.00  0.00    +0.290 A 
ATOM     21  N   LIG    1        6.461  -1.558  -3.236  0.00  0.00    -0.360 N 
ATOM     22  N   LIG    1        5.189  -0.972  -3.267  0.00  0.00    -0.340 NA
ATOM     23  C   LIG    1        6.855  -2.797  -3.909  0.00  0.00    +0.360 C 
ATOM     24  C   LIG    1        5.226   0.124  -2.549  0.00  0.00    +0.280 A 
BRANCH  24  25
ATOM     25  O   LIG    1        4.186   0.975  -2.336  0.00  0.00    -0.290 OA
ATOM     26  C   LIG    1        2.940   0.642  -2.951  0.00  0.00    +0.250 C 
ENDBRANCH  24  25
ENDBRANCH  18  19
ENDBRANCH  15  18
ENDBRANCH   6  14
TORSDOF 6
