REMARK  Name = ZINCpk000000oPGn.0
REMARK                            x       y       z     vdW  Elec       q    Type
REMARK                         _______ _______ _______ _____ _____    ______ ____
ROOT
ATOM      1  C   LIG    1       -0.013   1.086   0.008  0.00  0.00    -0.470 C 
ATOM      2  C   LIG    1        1.428   1.662  -0.003  0.00  0.00    +0.090 C 
ATOM      3  C   LIG    1        1.807   1.617  -1.498  0.00  0.00    +0.260 C 
ATOM      4  N   LIG    1        0.553   1.590  -2.265  0.00  0.00    -0.630 N 
ATOM      5  C   LIG    1        0.455   1.528  -3.608  0.00  0.00    +0.730 C 
ATOM      6  N   LIG    1        1.570   1.485  -4.364  0.00  0.00    -0.710 N 
ATOM      7  H   LIG    1        2.443   1.499  -3.941  0.00  0.00    +0.400 HD
ATOM      8  O   LIG    1       -0.639   1.510  -4.138  0.00  0.00    -0.580 OA
ATOM      9  C   LIG    1       -0.579   1.641  -1.323  0.00  0.00    +0.340 C 
ENDROOT
BRANCH   6  10
ATOM     10  C   LIG    1        1.464   1.417  -5.823  0.00  0.00    +0.260 C 
ATOM     11  C   LIG    1        2.636   0.799  -6.589  0.00  0.00    -0.040 C 
ATOM     12  C   LIG    1        3.848   0.346  -5.760  0.00  0.00    +0.050 C 
ATOM     13  C   LIG    1        5.016   1.296  -6.063  0.00  0.00    +0.080 C 
ATOM     14  C   LIG    1        4.640   2.683  -5.605  0.00  0.00    -0.080 A 
ATOM     15  C   LIG    1        5.547   3.461  -4.914  0.00  0.00    +0.000 A 
ATOM     16  C   LIG    1        5.191   4.732  -4.500  0.00  0.00    +0.000 A 
ATOM     17  C   LIG    1        3.929   5.223  -4.777  0.00  0.00    +0.000 A 
ATOM     18  C   LIG    1        3.020   4.443  -5.470  0.00  0.00    +0.020 A 
ATOM     19  C   LIG    1        3.375   3.175  -5.884  0.00  0.00    -0.050 A 
ATOM     20  C   LIG    1        2.393   2.316  -6.641  0.00  0.00    +0.000 C 
ENDBRANCH   6  10
BRANCH   1  21
ATOM     21  S   LIG    1       -0.953   1.712   1.427  0.00  0.00    +2.630 S 
ATOM     22  O   LIG    1       -1.146   3.116   1.318  0.00  0.00    -0.950 OA
ATOM     23  O   LIG    1       -0.480   1.130   2.635  0.00  0.00    -0.950 OA
BRANCH  21  24
ATOM     24  N   LIG    1       -2.469   1.075   1.233  0.00  0.00    -1.120 NA
ATOM     25  H   LIG    1       -3.224   1.661   1.068  0.00  0.00    +0.420 HD
BRANCH  24  27
ATOM     26  C   LIG    1       -4.161  -0.674   1.472  0.00  0.00    +0.040 C 
ATOM     27  C   LIG    1       -2.670  -0.374   1.309  0.00  0.00    +0.250 C 
ENDBRANCH  24  27
ENDBRANCH  21  24
ENDBRANCH   1  21
TORSDOF 4
