REMARK  Name = ZINCrD00000725de.0
REMARK                            x       y       z     vdW  Elec       q    Type
REMARK                         _______ _______ _______ _____ _____    ______ ____
ROOT
ATOM      1  C   LIG    1        8.488   3.182  -0.072  0.00  0.00    +0.520 C 
ATOM      2  N   LIG    1        9.713   3.744  -0.078  0.00  0.00    -0.660 N 
ATOM      3  H   LIG    1        9.805   4.707  -0.149  0.00  0.00    +0.430 HD
ATOM      4  O   LIG    1        8.375   1.975  -0.065  0.00  0.00    -0.520 OA
ENDROOT
BRANCH   2   5
ATOM      5  C   LIG    1       10.848   2.942   0.018  0.00  0.00    +0.210 A 
ATOM      6  C   LIG    1       10.869   1.689  -0.579  0.00  0.00    +0.020 A 
ATOM      7  C   LIG    1       11.994   0.895  -0.483  0.00  0.00    +0.060 A 
ATOM      8  C   LIG    1       13.109   1.340   0.209  0.00  0.00    -0.010 A 
ATOM      9  C   LIG    1       13.106   2.581   0.809  0.00  0.00    +0.060 A 
ATOM     10  C   LIG    1       11.977   3.398   0.715  0.00  0.00    -0.170 A 
BRANCH  10  11
ATOM     11  C   LIG    1       11.970   4.730   1.349  0.00  0.00    +0.570 C 
ATOM     12  N   LIG    1       13.091   5.208   1.924  0.00  0.00    -0.700 N 
ATOM     13  H   LIG    1       13.902   4.677   1.921  0.00  0.00    +0.400 HD
ATOM     14  O   LIG    1       10.953   5.396   1.353  0.00  0.00    -0.540 OA
BRANCH  12  15
ATOM     15  C   LIG    1       13.084   6.531   2.554  0.00  0.00    +0.220 C 
ATOM     16  C   LIG    1       14.277   7.450   2.282  0.00  0.00    +0.010 C 
ATOM     17  C   LIG    1       14.112   6.795   3.655  0.00  0.00    +0.020 C 
ENDBRANCH  12  15
ENDBRANCH  10  11
ENDBRANCH   2   5
BRANCH   1  18
ATOM     18  C   LIG    1        7.259   4.055  -0.073  0.00  0.00    +0.080 C 
BRANCH  18  19
ATOM     19  C   LIG    1        6.008   3.174  -0.065  0.00  0.00    +0.220 C 
BRANCH  19  20
ATOM     20  O   LIG    1        4.843   4.001  -0.067  0.00  0.00    -0.320 OA
BRANCH  20  24
ATOM     21  C   LIG    1        1.186   2.087  -0.046  0.00  0.00    +0.090 A 
ATOM     22  C   LIG    1        2.357   1.344  -0.041  0.00  0.00    -0.040 A 
ATOM     23  C   LIG    1        3.581   1.985  -0.053  0.00  0.00    -0.040 A 
ATOM     24  C   LIG    1        3.639   3.370  -0.060  0.00  0.00    +0.090 A 
ATOM     25  C   LIG    1        2.467   4.113  -0.061  0.00  0.00    +0.030 A 
ATOM     26  C   LIG    1        1.243   3.473  -0.054  0.00  0.00    +0.030 A 
BRANCH  21  27
ATOM     27  O   LIG    1       -0.019   1.456  -0.039  0.00  0.00    -0.320 OA
BRANCH  27  29
ATOM     28  C   LIG    1       -1.440  -0.498  -0.024  0.00  0.00    +0.070 C 
ATOM     29  C   LIG    1       -0.003   0.028  -0.032  0.00  0.00    +0.170 C 
ENDBRANCH  27  29
ENDBRANCH  21  27
ENDBRANCH  20  24
ENDBRANCH  19  20
ENDBRANCH  18  19
ENDBRANCH   1  18
TORSDOF 9
