REMARK  Name = ZINCnE000001Ptm8.1
REMARK                            x       y       z     vdW  Elec       q    Type
REMARK                         _______ _______ _______ _____ _____    ______ ____
ROOT
ATOM      1  S   LIG    1        1.231  -2.441  -0.024  0.00  0.00    +2.600 S 
ATOM      2  O   LIG    1        2.599  -2.825  -0.005  0.00  0.00    -1.020 OA
ATOM      3  O   LIG    1        0.323  -2.848  -1.039  0.00  0.00    -1.010 OA
ENDROOT
BRANCH   1   4
ATOM      4  C   LIG    1        1.208  -0.680  -0.014  0.00  0.00    -0.640 A 
ATOM      5  C   LIG    1        2.397   0.026  -0.021  0.00  0.00    +0.250 A 
ATOM      6  C   LIG    1        2.381   1.408  -0.013  0.00  0.00    -0.120 A 
ATOM      7  C   LIG    1        1.173   2.086   0.002  0.00  0.00    +0.210 A 
ATOM      8  C   LIG    1       -0.017   1.377   0.010  0.00  0.00    -0.030 A 
ATOM      9  F   LIG    1        1.156   3.437   0.009  0.00  0.00    -0.100 F 
ATOM     10  C   LIG    1        0.002  -0.004   0.002  0.00  0.00    +0.100 A 
ATOM     11  C   LIG    1       -1.293  -0.775   0.010  0.00  0.00    +0.130 C 
BRANCH   6  12
ATOM     12  N   LIG    1        3.653   2.164  -0.020  0.00  0.00    +0.040 N 
ATOM     13  O   LIG    1        3.639   3.381  -0.013  0.00  0.00    -0.160 OA
ATOM     14  O   LIG    1        4.715   1.567  -0.033  0.00  0.00    -0.150 OA
ENDBRANCH   6  12
ENDBRANCH   1   4
BRANCH   1  15
ATOM     15  N   LIG    1        0.583  -2.948   1.413  0.00  0.00    -1.080 NA
BRANCH  15  21
ATOM     16  C   LIG    1        1.262  -7.611   0.016  0.00  0.00    +0.070 C 
ATOM     17  C   LIG    1        0.793  -6.597   1.027  0.00  0.00    -0.040 A 
ATOM     18  C   LIG    1        0.252  -7.018   2.228  0.00  0.00    -0.120 A 
ATOM     19  C   LIG    1       -0.180  -6.091   3.159  0.00  0.00    +0.020 A 
ATOM     20  C   LIG    1       -0.072  -4.740   2.892  0.00  0.00    -0.150 A 
ATOM     21  C   LIG    1        0.472  -4.314   1.687  0.00  0.00    +0.280 A 
ATOM     22  C   LIG    1       -0.543  -3.731   3.906  0.00  0.00    +0.080 C 
ATOM     23  C   LIG    1        0.900  -5.247   0.752  0.00  0.00    -0.160 A 
ENDBRANCH  15  21
ENDBRANCH   1  15
TORSDOF 4
