REMARK  Name = ZINCvU0000000ALV.0
REMARK                            x       y       z     vdW  Elec       q    Type
REMARK                         _______ _______ _______ _____ _____    ______ ____
ROOT
ATOM      1  C   LIG    1        1.157   3.176   0.008  0.00  0.00    -0.750 A 
ATOM      2  C   LIG    1       -0.051   3.845   0.022  0.00  0.00    +0.230 A 
ATOM      3  C   LIG    1       -1.237   3.133   0.030  0.00  0.00    -0.260 A 
ATOM      4  C   LIG    1       -1.218   1.751   0.017  0.00  0.00    +0.170 A 
ATOM      5  C   LIG    1       -0.013   1.076   0.008  0.00  0.00    -0.080 A 
ATOM      6  C   LIG    1        1.180   1.787   0.000  0.00  0.00    +0.340 A 
ENDROOT
BRANCH   3   7
ATOM      7  C   LIG    1       -2.554   3.866   0.045  0.00  0.00    +0.510 C 
ATOM      8  F   LIG    1       -2.400   5.088   0.709  0.00  0.00    -0.180 F 
ATOM      9  F   LIG    1       -3.511   3.092   0.710  0.00  0.00    -0.180 F 
ATOM     10  F   LIG    1       -2.973   4.099  -1.269  0.00  0.00    -0.180 F 
ENDBRANCH   3   7
BRANCH   1  11
ATOM     11  S   LIG    1        2.667   4.084  -0.001  0.00  0.00    +2.710 S 
ATOM     12  O   LIG    1        2.309   5.459   0.043  0.00  0.00    -0.950 OA
ATOM     13  O   LIG    1        3.467   3.522  -1.033  0.00  0.00    -0.950 OA
BRANCH  11  16
ATOM     14  C   LIG    1        3.843   2.948   3.307  0.00  0.00    -0.090 C 
ATOM     15  C   LIG    1        4.414   2.756   1.895  0.00  0.00    +0.300 C 
ATOM     16  N   LIG    1        3.444   3.756   1.424  0.00  0.00    -1.050 NA
ATOM     17  C   LIG    1        2.642   2.054   3.625  0.00  0.00    +0.070 C 
ATOM     18  C   LIG    1        3.474   4.341   2.773  0.00  0.00    +0.310 C 
BRANCH  14  19
ATOM     19  C   LIG    1        4.898   2.958   4.415  0.00  0.00    +0.070 C 
BRANCH  19  21
ATOM     20  C   LIG    1        4.425   2.290   6.715  0.00  0.00    +0.000 C 
ATOM     21  C   LIG    1        4.224   3.152   5.749  0.00  0.00    -0.040 C 
ENDBRANCH  19  21
ENDBRANCH  14  19
ENDBRANCH  11  16
ENDBRANCH   1  11
BRANCH   6  22
ATOM     22  N   LIG    1        2.401   1.108  -0.015  0.00  0.00    -0.720 N 
ATOM     23  H   LIG    1        3.233   1.606  -0.020  0.00  0.00    +0.420 HD
BRANCH  22  24
ATOM     24  C   LIG    1        2.423  -0.357  -0.023  0.00  0.00    +0.300 C 
ATOM     25  C   LIG    1        2.292  -0.861  -1.462  0.00  0.00    +0.060 C 
BRANCH  24  26
ATOM     26  C   LIG    1        3.724  -0.842   0.562  0.00  0.00    +0.130 A 
ATOM     27  C   LIG    1        3.788  -2.097   1.139  0.00  0.00    +0.000 A 
ATOM     28  C   LIG    1        4.990  -2.536   1.670  0.00  0.00    +0.110 A 
ATOM     29  C   LIG    1        6.087  -1.689   1.611  0.00  0.00    -0.150 A 
ATOM     30  C   LIG    1        5.946  -0.445   1.023  0.00  0.00    +0.310 A 
ATOM     31 BR   LIG    1        7.754  -2.228   2.324  0.00  0.00    -0.020 Br
ATOM     32  N   LIG    1        4.787  -0.063   0.523  0.00  0.00    -0.470 NA
ENDBRANCH  24  26
ENDBRANCH  22  24
ENDBRANCH   6  22
TORSDOF 8
