REMARK  Name = ZINCpe00000MJMyb.1
REMARK                            x       y       z     vdW  Elec       q    Type
REMARK                         _______ _______ _______ _____ _____    ______ ____
ROOT
ATOM      1  C   LIG    1        0.002  -0.004   0.002  0.00  0.00    +0.170 C 
ATOM      2  C   LIG    1       -1.289  -0.574  -0.642  0.00  0.00    +0.080 C 
ATOM      3  C   LIG    1       -2.302  -0.537   0.522  0.00  0.00    +0.350 C 
ATOM      4  N   LIG    1       -1.529  -0.518   1.772  0.00  0.00    -0.600 N 
ATOM      5  C   LIG    1       -2.047  -0.466   3.015  0.00  0.00    +0.540 C 
ATOM      6  O   LIG    1       -3.250  -0.428   3.170  0.00  0.00    -0.500 OA
ATOM      7  C   LIG    1       -0.092  -0.569   1.442  0.00  0.00    +0.250 C 
ENDROOT
BRANCH   3   8
ATOM      8  C   LIG    1       -3.178  -1.762   0.478  0.00  0.00    +0.230 A 
ATOM      9  N   LIG    1       -2.816  -2.967   0.832  0.00  0.00    -0.300 NA
ATOM     10  N   LIG    1       -3.930  -3.800   0.635  0.00  0.00    -0.480 N 
ATOM     11  H   LIG    1       -3.981  -4.753   0.805  0.00  0.00    +0.440 HD
ATOM     12  C   LIG    1       -4.912  -3.012   0.163  0.00  0.00    +0.290 A 
ATOM     13  C   LIG    1       -6.305  -3.457  -0.201  0.00  0.00    +0.190 C 
ATOM     14  N   LIG    1       -4.449  -1.792   0.079  0.00  0.00    -0.530 NA
ENDBRANCH   3   8
BRANCH   1  16
ATOM     15  C   LIG    1        1.280   2.024   0.001  0.00  0.00    +0.210 C 
ATOM     16  O   LIG    1       -0.017   1.425   0.010  0.00  0.00    -0.370 OA
ENDBRANCH   1  16
BRANCH   5  17
ATOM     17  C   LIG    1       -1.133  -0.453   4.213  0.00  0.00    +0.210 C 
BRANCH  17  18
ATOM     18  O   LIG    1       -1.914  -0.394   5.408  0.00  0.00    -0.270 OA
BRANCH  18  19
ATOM     19  C   LIG    1       -1.236  -0.376   6.590  0.00  0.00    -0.060 A 
ATOM     20  C   LIG    1       -0.810   0.731   7.247  0.00  0.00    +0.080 A 
ATOM     21  N   LIG    1       -0.180   0.318   8.379  0.00  0.00    -0.370 N 
ATOM     22  N   LIG    1       -0.226  -1.082   8.409  0.00  0.00    -0.280 NA
ATOM     23  C   LIG    1        0.435   1.183   9.388  0.00  0.00    +0.360 C 
ATOM     24  C   LIG    1       -0.999   2.158   6.804  0.00  0.00    +0.160 C 
ATOM     25  C   LIG    1       -0.862  -1.496   7.343  0.00  0.00    +0.070 A 
ATOM     26  C   LIG    1       -1.141  -2.933   6.985  0.00  0.00    +0.170 C 
ENDBRANCH  18  19
ENDBRANCH  17  18
ENDBRANCH   5  17
TORSDOF 5
