REMARK  Name = ZINCpe00000MJMyb.0
REMARK                            x       y       z     vdW  Elec       q    Type
REMARK                         _______ _______ _______ _____ _____    ______ ____
ROOT
ATOM      1  C   LIG    1       -2.691   3.192  -1.632  0.00  0.00    +0.170 C 
ATOM      2  C   LIG    1       -2.159   1.812  -1.166  0.00  0.00    +0.100 C 
ATOM      3  C   LIG    1       -1.241   2.178   0.020  0.00  0.00    +0.340 C 
ATOM      4  N   LIG    1       -0.851   3.585  -0.148  0.00  0.00    -0.620 N 
ATOM      5  C   LIG    1       -0.068   4.289   0.693  0.00  0.00    +0.520 C 
ATOM      6  O   LIG    1        0.379   3.761   1.690  0.00  0.00    -0.500 OA
ATOM      7  C   LIG    1       -1.459   4.099  -1.389  0.00  0.00    +0.250 C 
ENDROOT
BRANCH   3   8
ATOM      8  C   LIG    1       -0.016   1.301   0.009  0.00  0.00    +0.170 A 
ATOM      9  N   LIG    1        0.002  -0.004   0.002  0.00  0.00    -0.280 NA
ATOM     10  N   LIG    1        1.219  -0.420  -0.012  0.00  0.00    -0.290 NA
ATOM     11  C   LIG    1        2.032   0.600  -0.014  0.00  0.00    +0.180 A 
ATOM     12  C   LIG    1        3.538   0.542  -0.029  0.00  0.00    +0.200 C 
ATOM     13  N   LIG    1        1.272   1.722  -0.001  0.00  0.00    -0.560 N 
ATOM     14  H   LIG    1        1.586   2.639   0.001  0.00  0.00    +0.420 HD
ENDBRANCH   3   8
BRANCH   1  16
ATOM     15  C   LIG    1       -4.739   4.434  -1.528  0.00  0.00    +0.210 C 
ATOM     16  O   LIG    1       -3.800   3.610  -0.834  0.00  0.00    -0.370 OA
ENDBRANCH   1  16
BRANCH   5  17
ATOM     17  C   LIG    1        0.252   5.731   0.396  0.00  0.00    +0.210 C 
BRANCH  17  18
ATOM     18  O   LIG    1        1.092   6.255   1.427  0.00  0.00    -0.270 OA
BRANCH  18  19
ATOM     19  C   LIG    1        1.477   7.556   1.309  0.00  0.00    -0.060 A 
ATOM     20  C   LIG    1        2.592   8.005   0.681  0.00  0.00    +0.080 A 
ATOM     21  N   LIG    1        2.606   9.360   0.788  0.00  0.00    -0.370 N 
ATOM     22  N   LIG    1        1.468   9.745   1.509  0.00  0.00    -0.280 NA
ATOM     23  C   LIG    1        3.631  10.257   0.249  0.00  0.00    +0.360 C 
ATOM     24  C   LIG    1        3.627   7.156  -0.011  0.00  0.00    +0.160 C 
ATOM     25  C   LIG    1        0.794   8.668   1.821  0.00  0.00    +0.070 A 
ATOM     26  C   LIG    1       -0.497   8.629   2.596  0.00  0.00    +0.170 C 
ENDBRANCH  18  19
ENDBRANCH  17  18
ENDBRANCH   5  17
TORSDOF 5
