REMARK  Name = ZINCnE000001xz76.0
REMARK                            x       y       z     vdW  Elec       q    Type
REMARK                         _______ _______ _______ _____ _____    ______ ____
ROOT
ATOM      1  N   LIG    1        3.453   2.246  -0.019  0.00  0.00    -0.350 N 
ATOM      2  N   LIG    1        4.712   1.846   0.445  0.00  0.00    -0.350 NA
ATOM      3  C   LIG    1        5.550   2.836   0.274  0.00  0.00    +0.270 A 
ATOM      4  C   LIG    1        4.860   3.906  -0.304  0.00  0.00    -0.310 A 
ATOM      5  C   LIG    1        3.567   3.522  -0.483  0.00  0.00    +0.460 A 
ENDROOT
BRANCH   1  11
ATOM      6  C   LIG    1        1.280  -2.172  -0.021  0.00  0.00    +0.100 C 
ATOM      7  C   LIG    1        1.221  -0.667  -0.013  0.00  0.00    -0.030 A 
ATOM      8  C   LIG    1        0.002  -0.004   0.002  0.00  0.00    -0.080 A 
ATOM      9  C   LIG    1       -0.017   1.377   0.010  0.00  0.00    +0.280 A 
ATOM     10  N   LIG    1        1.106   2.069   0.003  0.00  0.00    -0.470 NA
ATOM     11  C   LIG    1        2.288   1.473  -0.012  0.00  0.00    +0.410 A 
ATOM     12  C   LIG    1        2.382   0.087  -0.020  0.00  0.00    -0.040 A 
ENDBRANCH   1  11
BRANCH   5  13
ATOM     13  N   LIG    1        2.548   4.291  -1.036  0.00  0.00    -1.060 NA
BRANCH  13  14
ATOM     14  S   LIG    1        2.862   5.832  -1.553  0.00  0.00    +2.650 S 
ATOM     15  O   LIG    1        3.743   5.712  -2.662  0.00  0.00    -1.020 OA
ATOM     16  O   LIG    1        3.173   6.590  -0.392  0.00  0.00    -1.010 OA
BRANCH  14  17
ATOM     17  C   LIG    1        1.353   6.488  -2.185  0.00  0.00    -0.700 A 
ATOM     18  C   LIG    1        0.445   7.152  -1.469  0.00  0.00    +0.150 A 
ATOM     19  C   LIG    1       -0.663   7.577  -2.183  0.00  0.00    -0.110 A 
ATOM     20  C   LIG    1       -0.658   7.249  -3.477  0.00  0.00    -0.140 A 
ATOM     21 CL   LIG    1       -1.910   7.639  -4.614  0.00  0.00    -0.020 Cl
ATOM     22  C   LIG    1       -1.792   8.347  -1.547  0.00  0.00    +0.120 C 
ATOM     23  S   LIG    1        0.813   6.360  -3.854  0.00  0.00    +0.250 S 
ENDBRANCH  14  17
ENDBRANCH  13  14
ENDBRANCH   5  13
TORSDOF 4
