REMARK  Name = ZINCah0000006ltn.0
REMARK                            x       y       z     vdW  Elec       q    Type
REMARK                         _______ _______ _______ _____ _____    ______ ____
ROOT
ATOM      1  F   LIG    1        4.818  -1.235   2.215  0.00  0.00    -0.130 F 
ATOM      2  C   LIG    1        3.613  -0.946   1.675  0.00  0.00    +0.020 A 
ATOM      3  C   LIG    1        2.616  -1.902   1.626  0.00  0.00    +0.300 A 
ATOM      4  N   LIG    1        1.439  -1.635   1.098  0.00  0.00    -0.470 NA
ATOM      5  C   LIG    1        1.149  -0.442   0.588  0.00  0.00    +0.310 A 
ATOM      6  O   LIG    1        0.002  -0.004   0.002  0.00  0.00    -0.290 OA
ATOM      7  C   LIG    1       -0.017   1.433   0.010  0.00  0.00    +0.260 C 
ATOM      8  C   LIG    1        1.487   1.797  -0.003  0.00  0.00    +0.090 C 
ATOM      9  C   LIG    1        2.110   0.563   0.617  0.00  0.00    -0.190 A 
ATOM     10  C   LIG    1        3.354   0.320   1.158  0.00  0.00    +0.090 A 
ENDROOT
TORSDOF 0
