REMARK  Name = ZINCpk000004Fcht.0
REMARK                            x       y       z     vdW  Elec       q    Type
REMARK                         _______ _______ _______ _____ _____    ______ ____
ROOT
ATOM      1  C   LIG    1        0.288   1.371  -0.320  0.00  0.00    +0.090 C 
ATOM      2  C   LIG    1       -0.474   1.647   0.951  0.00  0.00    +0.510 C 
ATOM      3  N   LIG    1       -0.732   2.917   1.320  0.00  0.00    -0.620 N 
ATOM      4  C   LIG    1       -0.273   4.044   0.495  0.00  0.00    +0.270 C 
ATOM      5  C   LIG    1        0.565   4.983   1.363  0.00  0.00    +0.270 C 
ATOM      6  N   LIG    1       -0.176   5.267   2.600  0.00  0.00    -0.620 N 
ATOM      7  C   LIG    1       -0.631   4.141   3.428  0.00  0.00    +0.220 C 
ATOM      8  C   LIG    1       -0.434   6.538   2.969  0.00  0.00    +0.510 C 
ATOM      9  O   LIG    1       -0.958   6.764   4.039  0.00  0.00    -0.500 OA
ATOM     10  C   LIG    1       -1.474   3.201   2.556  0.00  0.00    +0.280 C 
ATOM     11  O   LIG    1       -0.854   0.726   1.643  0.00  0.00    -0.540 OA
ENDROOT
BRANCH   7  12
ATOM     12  C   LIG    1       -1.481   4.666   4.587  0.00  0.00    +0.070 C 
BRANCH  12  13
ATOM     13  C   LIG    1       -1.982   3.489   5.426  0.00  0.00    +0.150 C 
BRANCH  13  14
ATOM     14  O   LIG    1       -2.867   3.969   6.440  0.00  0.00    -0.570 OA
ATOM     15  H   LIG    1       -3.224   3.276   7.011  0.00  0.00    +0.380 HD
ENDBRANCH  13  14
ENDBRANCH  12  13
ENDBRANCH   7  12
BRANCH   8  16
ATOM     16  C   LIG    1       -0.072   7.677   2.051  0.00  0.00    +0.130 C 
BRANCH  16  17
ATOM     17  C   LIG    1       -0.462   8.983   2.694  0.00  0.00    -0.160 A 
ATOM     18  C   LIG    1       -1.603   9.662   2.494  0.00  0.00    +0.240 A 
ATOM     19  N   LIG    1       -1.606  10.802   3.251  0.00  0.00    -0.590 N 
ATOM     20  H   LIG    1       -2.326  11.452   3.276  0.00  0.00    +0.420 HD
ATOM     21  C   LIG    1       -0.434  10.891   3.968  0.00  0.00    +0.100 A 
ATOM     22  C   LIG    1        0.070  11.825   4.867  0.00  0.00    -0.020 A 
ATOM     23  C   LIG    1        1.311  11.630   5.433  0.00  0.00    +0.020 A 
ATOM     24  C   LIG    1        2.065  10.509   5.116  0.00  0.00    -0.030 A 
ATOM     25  C   LIG    1        1.589   9.578   4.236  0.00  0.00    -0.040 A 
ATOM     26  C   LIG    1        2.416   8.364   3.898  0.00  0.00    +0.080 C 
ATOM     27  C   LIG    1        0.334   9.756   3.650  0.00  0.00    -0.090 A 
ENDBRANCH  16  17
ENDBRANCH   8  16
TORSDOF 5
