REMARK  Name = ZINCpe00000VVGKN.0
REMARK                            x       y       z     vdW  Elec       q    Type
REMARK                         _______ _______ _______ _____ _____    ______ ____
ROOT
ATOM      1  C   LIG    1       -6.026  -1.433  -1.642  0.00  0.00    +0.510 C 
ATOM      2  N   LIG    1       -5.119  -1.616  -0.661  0.00  0.00    -0.700 N 
ATOM      3  H   LIG    1       -5.401  -1.955   0.203  0.00  0.00    +0.410 HD
ATOM      4  O   LIG    1       -5.673  -1.008  -2.723  0.00  0.00    -0.510 OA
ENDROOT
BRANCH   1   6
ATOM      5  N   LIG    1       -8.387  -1.466  -2.338  0.00  0.00    -0.520 N 
ATOM      6  C   LIG    1       -7.464  -1.752  -1.398  0.00  0.00    +0.510 C 
ATOM      7  O   LIG    1       -7.802  -2.270  -0.354  0.00  0.00    -0.500 OA
ATOM      8  C   LIG    1       -7.976  -0.862  -3.608  0.00  0.00    +0.310 C 
BRANCH   5  13
ATOM      9  C   LIG    1      -12.046  -1.581  -2.749  0.00  0.00    +0.030 A 
ATOM     10  C   LIG    1      -12.410  -2.310  -1.616  0.00  0.00    +0.020 A 
ATOM     11  C   LIG    1      -11.440  -2.750  -0.737  0.00  0.00    +0.030 A 
ATOM     12  C   LIG    1      -10.107  -2.475  -0.978  0.00  0.00    +0.030 A 
ATOM     13  C   LIG    1       -9.735  -1.745  -2.101  0.00  0.00    +0.140 A 
ATOM     14  C   LIG    1      -10.702  -1.299  -2.990  0.00  0.00    +0.000 A 
BRANCH   9  16
ATOM     15  C   LIG    1      -13.874  -0.750  -4.410  0.00  0.00    +0.060 C 
ATOM     16  C   LIG    1      -13.051  -1.124  -3.662  0.00  0.00    -0.150 C 
ENDBRANCH   9  16
ENDBRANCH   5  13
ENDBRANCH   1   6
BRANCH   2  17
ATOM     17  C   LIG    1       -3.708  -1.302  -0.900  0.00  0.00    +0.290 C 
BRANCH  17  18
ATOM     18  C   LIG    1       -2.899  -1.598   0.364  0.00  0.00    +0.180 C 
BRANCH  18  19
ATOM     19  N   LIG    1       -1.484  -1.283   0.124  0.00  0.00    -0.530 NA
ATOM     20  C   LIG    1       -1.292   0.161  -0.078  0.00  0.00    +0.160 C 
ATOM     21  C   LIG    1        0.183   0.435  -0.382  0.00  0.00    +0.200 C 
ATOM     22  O   LIG    1        0.988  -0.075   0.684  0.00  0.00    -0.380 OA
ATOM     23  C   LIG    1        0.827  -1.478   0.907  0.00  0.00    +0.160 C 
ATOM     24  C   LIG    1        1.702  -1.912   2.085  0.00  0.00    +0.050 C 
ATOM     25  C   LIG    1        0.572  -0.255  -1.691  0.00  0.00    +0.020 C 
ATOM     26  C   LIG    1       -0.642  -1.773   1.225  0.00  0.00    +0.170 C 
ENDBRANCH  18  19
ENDBRANCH  17  18
ENDBRANCH   2  17
TORSDOF 6
