REMARK  Name = ZINCrD00000hQ50c.0
REMARK                            x       y       z     vdW  Elec       q    Type
REMARK                         _______ _______ _______ _____ _____    ______ ____
ROOT
ATOM      1  C   LIG    1       -0.703   1.429   1.078  0.00  0.00    +0.290 C 
ENDROOT
BRANCH   1   2
ATOM      2  C   LIG    1       -0.151   0.630  -0.104  0.00  0.00    +0.020 C 
ATOM      3  C   LIG    1        1.354   0.882  -0.238  0.00  0.00    +0.000 C 
ATOM      4  C   LIG    1        1.909   0.019  -1.374  0.00  0.00    +0.200 C 
ATOM      5  O   LIG    1        1.628  -1.356  -1.106  0.00  0.00    -0.380 OA
ATOM      6  C   LIG    1        0.234  -1.660  -1.017  0.00  0.00    +0.200 C 
ATOM      7  C   LIG    1       -0.388  -0.865   0.133  0.00  0.00    +0.020 C 
ENDBRANCH   1   2
BRANCH   1  11
ATOM      8  C   LIG    1        1.257   0.925   4.044  0.00  0.00    +0.180 A 
ATOM      9  N   LIG    1        0.535  -0.154   3.992  0.00  0.00    -0.370 NA
ATOM     10  O   LIG    1       -0.197  -0.123   3.025  0.00  0.00    +0.100 OA
ATOM     11  C   LIG    1        0.002   1.008   2.342  0.00  0.00    +0.170 A 
ATOM     12  N   LIG    1        0.924   1.684   2.985  0.00  0.00    -0.470 NA
BRANCH   8  14
ATOM     13  C   LIG    1        1.604   1.314   6.468  0.00  0.00    +0.040 C 
ATOM     14  C   LIG    1        2.281   1.263   5.097  0.00  0.00    +0.100 C 
ATOM     15  C   LIG    1        3.375   0.194   5.107  0.00  0.00    +0.040 C 
ENDBRANCH   8  14
ENDBRANCH   1  11
BRANCH   1  16
ATOM     16  N   LIG    1       -2.143   1.174   1.213  0.00  0.00    -0.670 NA
ATOM     17  H   LIG    1       -2.436   1.252   2.175  0.00  0.00    +0.350 HD
BRANCH  16  18
ATOM     18  C   LIG    1       -2.920   2.076   0.352  0.00  0.00    +0.320 C 
BRANCH  18  19
ATOM     19  C   LIG    1       -4.378   1.704   0.420  0.00  0.00    +0.280 A 
ATOM     20  N   LIG    1       -4.969   0.855  -0.369  0.00  0.00    -0.470 NA
ATOM     21  C   LIG    1       -6.280   0.751  -0.031  0.00  0.00    +0.040 A 
ATOM     22  C   LIG    1       -7.348   0.003  -0.531  0.00  0.00    +0.070 A 
ATOM     23  C   LIG    1       -8.586   0.123   0.033  0.00  0.00    +0.000 A 
ATOM     24  C   LIG    1       -8.797   0.983   1.101  0.00  0.00    +0.030 A 
ATOM     25  C   LIG    1       -7.758   1.731   1.612  0.00  0.00    +0.010 A 
ATOM     26  C   LIG    1       -6.492   1.622   1.052  0.00  0.00    +0.050 A 
ATOM     27  N   LIG    1       -5.271   2.210   1.314  0.00  0.00    -0.490 N 
ATOM     28  C   LIG    1       -4.989   3.196   2.359  0.00  0.00    +0.330 C 
ENDBRANCH  18  19
ENDBRANCH  16  18
ENDBRANCH   1  16
TORSDOF 6
