REMARK  Name = ZINCrH000004mRkT.0
REMARK                            x       y       z     vdW  Elec       q    Type
REMARK                         _______ _______ _______ _____ _____    ______ ____
ROOT
ATOM      1  C   LIG    1       -4.732   1.077   0.738  0.00  0.00    -0.040 A 
ATOM      2  C   LIG    1       -4.629  -0.258   1.129  0.00  0.00    +0.040 A 
ATOM      3  C   LIG    1       -5.770  -0.984   1.402  0.00  0.00    +0.070 A 
ATOM      4  C   LIG    1       -7.014  -0.391   1.288  0.00  0.00    +0.030 A 
ATOM      5  C   LIG    1       -7.124   0.933   0.900  0.00  0.00    +0.110 A 
ATOM      6  C   LIG    1       -5.991   1.671   0.630  0.00  0.00    -0.620 A 
ENDROOT
BRANCH   1   9
ATOM      7  N   LIG    1       -2.298   1.329   0.677  0.00  0.00    -0.650 N 
ATOM      8  H   LIG    1       -2.220   0.410   0.979  0.00  0.00    +0.410 HD
ATOM      9  C   LIG    1       -3.514   1.861   0.444  0.00  0.00    +0.550 C 
ATOM     10  O   LIG    1       -3.609   2.986  -0.007  0.00  0.00    -0.500 OA
BRANCH   7  14
ATOM     11  C   LIG    1        1.128   3.637   0.104  0.00  0.00    +0.130 A 
ATOM     12  C   LIG    1        0.040   3.790  -0.742  0.00  0.00    -0.040 A 
ATOM     13  C   LIG    1       -1.094   3.022  -0.555  0.00  0.00    +0.080 A 
ATOM     14  C   LIG    1       -1.146   2.102   0.484  0.00  0.00    +0.110 A 
ATOM     15  C   LIG    1       -0.054   1.945   1.327  0.00  0.00    +0.060 A 
ATOM     16  C   LIG    1        1.079   2.713   1.139  0.00  0.00    -0.050 A 
ATOM     17 CL   LIG    1        2.442   2.522   2.197  0.00  0.00    -0.050 Cl
BRANCH  11  19
ATOM     18  C   LIG    1        2.225   5.322  -1.166  0.00  0.00    +0.240 C 
ATOM     19  O   LIG    1        2.244   4.392  -0.081  0.00  0.00    -0.300 OA
ENDBRANCH  11  19
ENDBRANCH   7  14
ENDBRANCH   1   9
BRANCH   6  20
ATOM     20  S   LIG    1       -6.132   3.359   0.143  0.00  0.00    +2.700 S 
ATOM     21  O   LIG    1       -5.983   3.382  -1.270  0.00  0.00    -0.940 OA
ATOM     22  O   LIG    1       -5.302   4.102   1.025  0.00  0.00    -0.930 OA
BRANCH  20  23
ATOM     23  N   LIG    1       -7.688   3.831   0.457  0.00  0.00    -1.010 NA
ATOM     24  C   LIG    1       -8.693   3.858  -0.614  0.00  0.00    +0.290 C 
ATOM     25  C   LIG    1       -9.909   3.033  -0.165  0.00  0.00    -0.000 C 
ATOM     26  C   LIG    1      -10.410   3.565   1.180  0.00  0.00    +0.020 C 
ATOM     27  C   LIG    1       -9.309   3.413   2.232  0.00  0.00    +0.010 C 
ATOM     28  C   LIG    1       -8.088   4.237   1.811  0.00  0.00    +0.290 C 
ENDBRANCH  20  23
ENDBRANCH   6  20
TORSDOF 5
