REMARK  Name = ZINCkj000005hz33.0
REMARK                            x       y       z     vdW  Elec       q    Type
REMARK                         _______ _______ _______ _____ _____    ______ ____
ROOT
ATOM      1  S   LIG    1       -2.881   0.350  -2.378  0.00  0.00    +2.690 S 
ATOM      2  O   LIG    1       -2.135   0.649  -3.550  0.00  0.00    -0.940 OA
ATOM      3  O   LIG    1       -4.277   0.586  -2.265  0.00  0.00    -0.950 OA
ENDROOT
BRANCH   1   4
ATOM      4  C   LIG    1       -2.638  -1.366  -2.060  0.00  0.00    -0.720 A 
ATOM      5  C   LIG    1       -1.520  -2.009  -2.556  0.00  0.00    +0.160 A 
ATOM      6  C   LIG    1       -1.325  -3.353  -2.302  0.00  0.00    -0.080 A 
ATOM      7  C   LIG    1       -2.258  -4.060  -1.559  0.00  0.00    +0.190 A 
ATOM      8  C   LIG    1       -3.383  -3.414  -1.067  0.00  0.00    -0.130 A 
ATOM      9  C   LIG    1       -4.400  -4.179  -0.260  0.00  0.00    +0.120 C 
ATOM     10  C   LIG    1       -3.571  -2.069  -1.318  0.00  0.00    +0.150 A 
BRANCH   7  11
ATOM     11  O   LIG    1       -2.072  -5.384  -1.314  0.00  0.00    -0.300 OA
ATOM     12  C   LIG    1       -0.891  -5.983  -1.851  0.00  0.00    +0.250 C 
ENDBRANCH   7  11
ENDBRANCH   1   4
BRANCH   1  17
ATOM     13  C   LIG    1       -2.156   1.023   1.294  0.00  0.00    +0.140 C 
ATOM     14  C   LIG    1       -0.730   1.580   1.266  0.00  0.00    +0.040 C 
ATOM     15  C   LIG    1       -0.013   1.086   0.008  0.00  0.00    +0.050 C 
ATOM     16  C   LIG    1       -0.755   1.594  -1.232  0.00  0.00    +0.310 C 
ATOM     17  N   LIG    1       -2.163   1.185  -1.141  0.00  0.00    -0.990 NA
ATOM     18  C   LIG    1       -2.923   1.530   0.068  0.00  0.00    +0.310 C 
BRANCH  13  20
ATOM     19  C   LIG    1       -2.169   0.887   3.689  0.00  0.00    +0.330 C 
ATOM     20  N   LIG    1       -2.834   1.472   2.517  0.00  0.00    -0.510 N 
ATOM     21  H   LIG    1       -3.799   1.176   2.495  0.00  0.00    +0.430 HD
ATOM     22  H   LIG    1       -2.793   2.478   2.574  0.00  0.00    +0.430 HD
ENDBRANCH  13  20
ENDBRANCH   1  17
TORSDOF 4
