REMARK  Name = ZINCtj00001UqOot.0
REMARK                            x       y       z     vdW  Elec       q    Type
REMARK                         _______ _______ _______ _____ _____    ______ ____
ROOT
ATOM      1  C   LIG    1       -1.122  -2.014   0.003  0.00  0.00    +0.690 C 
ATOM      2  N   LIG    1       -1.140  -0.684   0.015  0.00  0.00    -0.610 NA
ATOM      3  C   LIG    1        0.002  -0.004   0.002  0.00  0.00    +0.630 C 
ATOM      4  N   LIG    1        1.162  -0.653  -0.013  0.00  0.00    -0.570 NA
ATOM      5  C   LIG    1        1.180  -1.982  -0.019  0.00  0.00    +0.630 C 
ATOM      6  H   LIG    1       -1.986  -0.211   0.029  0.00  0.00    +0.440 HD
ATOM      7  N   LIG    1        0.038  -2.663  -0.011  0.00  0.00    -0.600 NA
ENDROOT
BRANCH   5   8
ATOM      8  N   LIG    1        2.385  -2.656  -0.035  0.00  0.00    -0.430 NA
ATOM      9  C   LIG    1        3.204  -2.244  -1.183  0.00  0.00    +0.220 C 
ATOM     10  C   LIG    1        4.551  -2.969  -1.128  0.00  0.00    +0.250 C 
ATOM     11  O   LIG    1        4.326  -4.381  -1.102  0.00  0.00    -0.370 OA
ATOM     12  C   LIG    1        3.532  -4.817   0.004  0.00  0.00    +0.250 C 
ATOM     13  C   LIG    1        2.174  -4.111  -0.040  0.00  0.00    +0.210 C 
ENDBRANCH   5   8
BRANCH   3  14
ATOM     14  N   LIG    1       -0.017   1.376   0.010  0.00  0.00    -0.460 NA
ATOM     15  C   LIG    1       -0.795   1.899  -1.123  0.00  0.00    +0.200 C 
ATOM     16  C   LIG    1       -0.840   3.427  -1.042  0.00  0.00    +0.260 C 
ATOM     17  O   LIG    1        0.496   3.937  -1.022  0.00  0.00    -0.370 OA
ATOM     18  C   LIG    1        1.282   3.449   0.069  0.00  0.00    +0.260 C 
ATOM     19  C   LIG    1        1.349   1.921  -0.001  0.00  0.00    +0.240 C 
ENDBRANCH   3  14
BRANCH   1  20
ATOM     20  N   LIG    1       -2.308  -2.720   0.012  0.00  0.00    -0.640 NA
ATOM     21  H   LIG    1       -2.295  -3.690   0.008  0.00  0.00    +0.450 HD
BRANCH  20  23
ATOM     22  C   LIG    1       -3.985  -1.640  -1.403  0.00  0.00    +0.090 C 
ATOM     23  C   LIG    1       -3.586  -2.005   0.028  0.00  0.00    +0.290 C 
BRANCH  23  24
ATOM     24  C   LIG    1       -4.647  -2.886   0.636  0.00  0.00    +0.050 A 
ATOM     25  N   LIG    1       -4.735  -4.148   0.266  0.00  0.00    -0.420 NA
ATOM     26  C   LIG    1       -5.643  -4.958   0.774  0.00  0.00    +0.270 A 
ATOM     27  C   LIG    1       -6.552  -4.504   1.714  0.00  0.00    +0.110 A 
ATOM     28  C   LIG    1       -6.495  -3.179   2.124  0.00  0.00    +0.030 A 
ATOM     29  F   LIG    1       -7.483  -5.339   2.225  0.00  0.00    -0.100 F 
ATOM     30  C   LIG    1       -5.521  -2.358   1.571  0.00  0.00    +0.110 A 
ATOM     31  F   LIG    1       -5.428  -1.062   1.940  0.00  0.00    -0.110 F 
ENDBRANCH  23  24
ENDBRANCH  20  23
ENDBRANCH   1  20
TORSDOF 5
