REMARK  Name = ZINCtj00001UqOot.2
REMARK                            x       y       z     vdW  Elec       q    Type
REMARK                         _______ _______ _______ _____ _____    ______ ____
ROOT
ATOM      1  C   LIG    1       -3.066   4.779   3.388  0.00  0.00    +0.670 C 
ATOM      2  N   LIG    1       -2.489   4.311   2.285  0.00  0.00    -0.590 NA
ATOM      3  C   LIG    1       -1.413   3.536   2.375  0.00  0.00    +0.640 C 
ATOM      4  N   LIG    1       -0.908   3.236   3.568  0.00  0.00    -0.600 NA
ATOM      5  C   LIG    1       -1.482   3.707   4.670  0.00  0.00    +0.640 C 
ATOM      6  H   LIG    1       -0.120   2.674   3.633  0.00  0.00    +0.450 HD
ATOM      7  N   LIG    1       -2.561   4.478   4.581  0.00  0.00    -0.590 NA
ENDROOT
BRANCH   5   8
ATOM      8  N   LIG    1       -0.958   3.395   5.908  0.00  0.00    -0.460 NA
ATOM      9  C   LIG    1       -0.878   1.939   6.095  0.00  0.00    +0.200 C 
ATOM     10  C   LIG    1       -0.238   1.638   7.453  0.00  0.00    +0.260 C 
ATOM     11  O   LIG    1       -0.997   2.275   8.484  0.00  0.00    -0.370 OA
ATOM     12  C   LIG    1       -1.094   3.694   8.334  0.00  0.00    +0.250 C 
ATOM     13  C   LIG    1       -1.743   4.016   6.985  0.00  0.00    +0.240 C 
ENDBRANCH   5   8
BRANCH   3  14
ATOM     14  N   LIG    1       -0.817   3.048   1.230  0.00  0.00    -0.460 NA
ATOM     15  C   LIG    1       -0.731   1.580   1.266  0.00  0.00    +0.200 C 
ATOM     16  C   LIG    1       -0.013   1.086   0.008  0.00  0.00    +0.260 C 
ATOM     17  O   LIG    1       -0.706   1.560  -1.149  0.00  0.00    -0.370 OA
ATOM     18  C   LIG    1       -0.807   2.985  -1.216  0.00  0.00    +0.250 C 
ATOM     19  C   LIG    1       -1.534   3.499   0.029  0.00  0.00    +0.240 C 
ENDBRANCH   3  14
BRANCH   1  20
ATOM     20  N   LIG    1       -4.187   5.579   3.295  0.00  0.00    -0.610 NA
ATOM     21  H   LIG    1       -4.606   5.921   4.100  0.00  0.00    +0.440 HD
BRANCH  20  23
ATOM     22  C   LIG    1       -5.684   4.791   1.529  0.00  0.00    +0.080 C 
ATOM     23  C   LIG    1       -4.743   5.910   1.981  0.00  0.00    +0.330 C 
BRANCH  23  24
ATOM     24  C   LIG    1       -5.509   7.205   2.072  0.00  0.00    +0.050 A 
ATOM     25  N   LIG    1       -6.338   7.402   3.078  0.00  0.00    -0.420 NA
ATOM     26  C   LIG    1       -7.025   8.521   3.202  0.00  0.00    +0.270 A 
ATOM     27  C   LIG    1       -6.907   9.532   2.264  0.00  0.00    +0.100 A 
ATOM     28  C   LIG    1       -6.049   9.359   1.187  0.00  0.00    +0.030 A 
ATOM     29  F   LIG    1       -7.619  10.673   2.396  0.00  0.00    -0.110 F 
ATOM     30  C   LIG    1       -5.339   8.170   1.094  0.00  0.00    +0.110 A 
ATOM     31  F   LIG    1       -4.492   7.958   0.063  0.00  0.00    -0.110 F 
ENDBRANCH  23  24
ENDBRANCH  20  23
ENDBRANCH   1  20
TORSDOF 5
