REMARK  Name = ZINCqH0000007LB0.0
REMARK                            x       y       z     vdW  Elec       q    Type
REMARK                         _______ _______ _______ _____ _____    ______ ____
ROOT
ATOM      1  N   LIG    1       -1.553  -1.637  -0.942  0.00  0.00    -0.740 N 
ATOM      2  H   LIG    1       -1.858  -1.461  -1.846  0.00  0.00    +0.400 HD
ATOM      3  C   LIG    1       -1.255  -2.897  -0.565  0.00  0.00    +0.700 C 
ATOM      4  N   LIG    1       -1.382  -3.911  -1.444  0.00  0.00    -0.740 N 
ATOM      5  H   LIG    1       -1.687  -3.734  -2.348  0.00  0.00    +0.400 HD
ATOM      6  O   LIG    1       -0.873  -3.118   0.567  0.00  0.00    -0.580 OA
ENDROOT
BRANCH   1  12
ATOM      7  C   LIG    1        1.180   2.084   0.002  0.00  0.00    +0.140 A 
ATOM      8  C   LIG    1        2.388   1.406  -0.013  0.00  0.00    -0.070 A 
ATOM      9  C   LIG    1        2.402   0.024  -0.020  0.00  0.00    +0.050 A 
ATOM     10  C   LIG    1        1.212  -0.678  -0.013  0.00  0.00    +0.000 A 
ATOM     11  C   LIG    1        0.002  -0.004   0.002  0.00  0.00    -0.070 A 
ATOM     12  C   LIG    1       -1.415  -0.535   0.013  0.00  0.00    +0.310 C 
ATOM     13  C   LIG    1       -2.297   0.658  -0.412  0.00  0.00    +0.050 C 
ATOM     14  C   LIG    1       -1.448   1.870   0.020  0.00  0.00    +0.090 C 
ATOM     15  C   LIG    1       -0.017   1.377   0.010  0.00  0.00    -0.130 A 
BRANCH   7  17
ATOM     16  C   LIG    1        2.430   4.106   0.001  0.00  0.00    +0.240 C 
ATOM     17  O   LIG    1        1.165   3.443   0.010  0.00  0.00    -0.320 OA
ENDBRANCH   7  17
ENDBRANCH   1  12
BRANCH   4  18
ATOM     18  C   LIG    1       -1.058  -5.280  -1.035  0.00  0.00    +0.340 C 
BRANCH  18  19
ATOM     19  C   LIG    1       -1.282  -6.217  -2.193  0.00  0.00    -0.110 A 
ATOM     20  C   LIG    1       -0.262  -6.474  -3.057  0.00  0.00    +0.060 A 
ATOM     21  C   LIG    1       -0.469  -7.347  -4.136  0.00  0.00    -0.110 A 
ATOM     22  C   LIG    1        0.560  -7.639  -5.051  0.00  0.00    +0.090 A 
ATOM     23  C   LIG    1        0.286  -8.498  -6.077  0.00  0.00    -0.040 A 
ATOM     24  C   LIG    1       -0.984  -9.058  -6.195  0.00  0.00    +0.300 A 
ATOM     25  N   LIG    1       -1.940  -8.784  -5.341  0.00  0.00    -0.480 NA
ATOM     26  C   LIG    1       -1.738  -7.951  -4.315  0.00  0.00    +0.130 A 
ATOM     27  C   LIG    1       -2.768  -7.660  -3.402  0.00  0.00    +0.050 A 
ATOM     28  C   LIG    1       -2.530  -6.814  -2.364  0.00  0.00    +0.050 A 
ENDBRANCH  18  19
ENDBRANCH   4  18
TORSDOF 4
