REMARK  Name = ZINCAx0000000cpu.1
REMARK                            x       y       z     vdW  Elec       q    Type
REMARK                         _______ _______ _______ _____ _____    ______ ____
ROOT
ATOM      1  C   LIG    1       -0.597   1.984  -3.034  0.00  0.00    +0.040 C 
ATOM      2  C   LIG    1       -2.050   1.596  -3.135  0.00  0.00    +0.250 C 
ATOM      3  N   LIG    1       -2.434   0.692  -3.972  0.00  0.00    -0.470 NA
ATOM      4  C   LIG    1       -1.563   0.044  -4.763  0.00  0.00    +0.670 C 
ATOM      5  N   LIG    1       -0.240   0.081  -4.523  0.00  0.00    -0.740 N 
ATOM      6  H   LIG    1        0.376  -0.339  -5.143  0.00  0.00    +0.420 HD
ATOM      7  O   LIG    1       -1.979  -0.588  -5.714  0.00  0.00    -0.500 OA
ATOM      8  C   LIG    1        0.272   0.753  -3.325  0.00  0.00    +0.310 C 
ENDROOT
BRANCH   8   9
ATOM      9  C   LIG    1        1.696   1.187  -3.561  0.00  0.00    -0.120 A 
ATOM     10  C   LIG    1        2.083   1.639  -4.808  0.00  0.00    +0.010 A 
ATOM     11  C   LIG    1        3.388   2.041  -5.023  0.00  0.00    +0.020 A 
ATOM     12  C   LIG    1        4.308   1.982  -3.993  0.00  0.00    +0.030 A 
ATOM     13  C   LIG    1        3.922   1.525  -2.747  0.00  0.00    +0.020 A 
ATOM     14  C   LIG    1        2.616   1.127  -2.531  0.00  0.00    +0.040 A 
ENDBRANCH   8   9
BRANCH   1  15
ATOM     15  C   LIG    1       -0.295   3.068  -4.036  0.00  0.00    +0.480 C 
ATOM     16  O   LIG    1       -0.814   3.044  -5.127  0.00  0.00    -0.490 OA
BRANCH  15  17
ATOM     17  O   LIG    1        0.549   4.061  -3.716  0.00  0.00    -0.340 OA
BRANCH  17  19
ATOM     18  C   LIG    1        1.774   6.112  -4.188  0.00  0.00    +0.070 C 
ATOM     19  C   LIG    1        0.793   5.071  -4.731  0.00  0.00    +0.200 C 
ENDBRANCH  17  19
ENDBRANCH  15  17
ENDBRANCH   1  15
BRANCH   2  20
ATOM     20  C   LIG    1       -3.066   2.275  -2.252  0.00  0.00    +0.330 C 
BRANCH  20  21
ATOM     21  O   LIG    1       -4.386   1.741  -2.535  0.00  0.00    -0.320 OA
BRANCH  21  22
ATOM     22  C   LIG    1       -5.411   2.244  -1.829  0.00  0.00    +0.480 C 
ATOM     23  O   LIG    1       -5.212   3.102  -1.002  0.00  0.00    -0.500 OA
BRANCH  22  24
ATOM     24  C   LIG    1       -6.811   1.738  -2.067  0.00  0.00    +0.040 C 
ATOM     25  C   LIG    1       -6.915   0.228  -1.753  0.00  0.00    +0.090 C 
ATOM     26  C   LIG    1       -8.284   0.072  -1.129  0.00  0.00    +0.520 C 
ATOM     27  N   LIG    1       -8.757   1.271  -0.747  0.00  0.00    -0.610 N 
ATOM     28  O   LIG    1       -8.870  -0.981  -0.994  0.00  0.00    -0.520 OA
ATOM     29  C   LIG    1       -7.798   2.342  -1.044  0.00  0.00    +0.300 C 
BRANCH  27  30
ATOM     30  C   LIG    1      -10.062   1.481  -0.115  0.00  0.00    +0.350 C 
BRANCH  30  31
ATOM     31  C   LIG    1       -9.918   1.378   1.382  0.00  0.00    -0.120 A 
ATOM     32  C   LIG    1      -10.076   0.157   2.009  0.00  0.00    +0.040 A 
ATOM     33  C   LIG    1       -9.940   0.061   3.381  0.00  0.00    +0.000 A 
ATOM     34  C   LIG    1       -9.654   1.189   4.127  0.00  0.00    -0.080 A 
ATOM     35  C   LIG    1       -9.501   2.412   3.501  0.00  0.00    +0.000 A 
ATOM     36  C   LIG    1       -9.510   1.086   5.624  0.00  0.00    +0.090 C 
ATOM     37  C   LIG    1       -9.633   2.506   2.128  0.00  0.00    +0.020 A 
ENDBRANCH  30  31
ENDBRANCH  27  30
ENDBRANCH  22  24
ENDBRANCH  21  22
ENDBRANCH  20  21
ENDBRANCH   2  20
TORSDOF 10
