REMARK  Name = ZINCAx0000000cpu.0
REMARK                            x       y       z     vdW  Elec       q    Type
REMARK                         _______ _______ _______ _____ _____    ______ ____
ROOT
ATOM      1  C   LIG    1        1.361  -0.667  -0.128  0.00  0.00    -0.220 C 
ATOM      2  C   LIG    1        2.453   0.124  -0.051  0.00  0.00    +0.200 C 
ATOM      3  N   LIG    1        2.334   1.479   0.072  0.00  0.00    -0.640 N 
ATOM      4  H   LIG    1        3.146   2.007   0.124  0.00  0.00    +0.430 HD
ATOM      5  C   LIG    1        1.160   2.120   0.126  0.00  0.00    +0.710 C 
ATOM      6  N   LIG    1       -0.017   1.467   0.061  0.00  0.00    -0.710 N 
ATOM      7  H   LIG    1       -0.857   1.951   0.097  0.00  0.00    +0.440 HD
ATOM      8  O   LIG    1        1.155   3.330   0.236  0.00  0.00    -0.560 OA
ATOM      9  C   LIG    1        0.001   0.000  -0.073  0.00  0.00    +0.340 C 
ENDROOT
BRANCH   9  10
ATOM     10  C   LIG    1       -0.744  -0.361  -1.332  0.00  0.00    -0.120 A 
ATOM     11  C   LIG    1       -0.595   0.411  -2.469  0.00  0.00    +0.030 A 
ATOM     12  C   LIG    1       -1.276   0.077  -3.625  0.00  0.00    +0.000 A 
ATOM     13  C   LIG    1       -2.113  -1.022  -3.641  0.00  0.00    +0.010 A 
ATOM     14  C   LIG    1       -2.266  -1.791  -2.502  0.00  0.00    +0.000 A 
ATOM     15  C   LIG    1       -1.582  -1.460  -1.348  0.00  0.00    +0.020 A 
ENDBRANCH   9  10
BRANCH   1  16
ATOM     16  C   LIG    1        1.482  -2.070  -0.257  0.00  0.00    +0.540 C 
ATOM     17  O   LIG    1        1.321  -2.786   0.714  0.00  0.00    -0.490 OA
BRANCH  16  18
ATOM     18  O   LIG    1        1.777  -2.615  -1.455  0.00  0.00    -0.340 OA
BRANCH  18  20
ATOM     19  C   LIG    1        2.220  -4.469  -2.941  0.00  0.00    +0.070 C 
ATOM     20  C   LIG    1        1.884  -4.039  -1.512  0.00  0.00    +0.200 C 
ENDBRANCH  18  20
ENDBRANCH  16  18
ENDBRANCH   1  16
BRANCH   2  21
ATOM     21  C   LIG    1        3.824  -0.498  -0.101  0.00  0.00    +0.300 C 
BRANCH  21  22
ATOM     22  O   LIG    1        4.505  -0.071  -1.310  0.00  0.00    -0.340 OA
BRANCH  22  23
ATOM     23  C   LIG    1        5.747  -0.540  -1.508  0.00  0.00    +0.480 C 
ATOM     24  O   LIG    1        6.249  -1.283  -0.698  0.00  0.00    -0.490 OA
BRANCH  23  25
ATOM     25  C   LIG    1        6.517  -0.141  -2.741  0.00  0.00    +0.040 C 
ATOM     26  C   LIG    1        6.741   1.389  -2.781  0.00  0.00    +0.090 C 
ATOM     27  C   LIG    1        8.129   1.544  -3.363  0.00  0.00    +0.520 C 
ATOM     28  N   LIG    1        8.790   0.376  -3.300  0.00  0.00    -0.610 N 
ATOM     29  O   LIG    1        8.580   2.574  -3.818  0.00  0.00    -0.520 OA
ATOM     30  C   LIG    1        7.967  -0.671  -2.684  0.00  0.00    +0.290 C 
BRANCH  28  31
ATOM     31  C   LIG    1       10.158   0.173  -3.785  0.00  0.00    +0.350 C 
BRANCH  31  32
ATOM     32  C   LIG    1       11.133   0.459  -2.673  0.00  0.00    -0.120 A 
ATOM     33  C   LIG    1       11.635   1.736  -2.505  0.00  0.00    +0.040 A 
ATOM     34  C   LIG    1       12.527   2.000  -1.482  0.00  0.00    +0.000 A 
ATOM     35  C   LIG    1       12.924   0.984  -0.633  0.00  0.00    -0.080 A 
ATOM     36  C   LIG    1       12.425  -0.294  -0.803  0.00  0.00    +0.000 A 
ATOM     37  C   LIG    1       13.899   1.270   0.479  0.00  0.00    +0.090 C 
ATOM     38  C   LIG    1       11.531  -0.557  -1.824  0.00  0.00    +0.020 A 
ENDBRANCH  31  32
ENDBRANCH  28  31
ENDBRANCH  23  25
ENDBRANCH  22  23
ENDBRANCH  21  22
ENDBRANCH   2  21
TORSDOF 10
