REMARK  Name = ZINCrH000004s3P1.0
REMARK                            x       y       z     vdW  Elec       q    Type
REMARK                         _______ _______ _______ _____ _____    ______ ____
ROOT
ATOM      1  C   LIG    1       -4.714  -3.319  -0.424  0.00  0.00    -0.030 A 
ATOM      2  C   LIG    1       -5.351  -3.770   0.717  0.00  0.00    -0.010 A 
ATOM      3  C   LIG    1       -6.544  -4.462   0.615  0.00  0.00    +0.120 A 
ATOM      4  C   LIG    1       -7.093  -4.713  -0.628  0.00  0.00    -0.680 A 
ATOM      5  C   LIG    1       -6.453  -4.267  -1.770  0.00  0.00    +0.120 A 
ATOM      6  C   LIG    1       -5.263  -3.570  -1.667  0.00  0.00    -0.010 A 
ENDROOT
BRANCH   4   7
ATOM      7  S   LIG    1       -8.610  -5.601  -0.759  0.00  0.00    +2.690 S 
ATOM      8  O   LIG    1       -9.184  -5.233  -2.006  0.00  0.00    -0.950 OA
ATOM      9  O   LIG    1       -9.279  -5.436   0.484  0.00  0.00    -0.950 OA
BRANCH   7  10
ATOM     10  N   LIG    1       -8.228  -7.208  -0.876  0.00  0.00    -1.000 NA
ATOM     11  C   LIG    1       -8.014  -7.833  -2.188  0.00  0.00    +0.290 C 
ATOM     12  C   LIG    1       -6.646  -8.531  -2.179  0.00  0.00    +0.010 C 
ATOM     13  C   LIG    1       -6.585  -9.507  -1.001  0.00  0.00    +0.020 C 
ATOM     14  C   LIG    1       -6.740  -8.735   0.311  0.00  0.00    +0.010 C 
ATOM     15  C   LIG    1       -8.104  -8.037   0.331  0.00  0.00    +0.290 C 
ENDBRANCH   7  10
ENDBRANCH   4   7
BRANCH   1  16
ATOM     16  C   LIG    1       -3.417  -2.560  -0.312  0.00  0.00    +0.110 C 
BRANCH  16  17
ATOM     17  C   LIG    1       -3.711  -1.062  -0.201  0.00  0.00    +0.060 C 
BRANCH  17  20
ATOM     18  N   LIG    1       -2.427   1.041   0.019  0.00  0.00    -0.670 N 
ATOM     19  H   LIG    1       -3.271   1.512   0.107  0.00  0.00    +0.410 HD
ATOM     20  C   LIG    1       -2.414  -0.303  -0.090  0.00  0.00    +0.510 C 
ATOM     21  O   LIG    1       -1.359  -0.900  -0.098  0.00  0.00    -0.510 OA
BRANCH  18  28
ATOM     22  C   LIG    1       -2.363   3.586   1.291  0.00  0.00    +0.080 C 
ATOM     23  C   LIG    1       -1.149   3.001   0.615  0.00  0.00    -0.120 A 
ATOM     24  C   LIG    1        0.038   3.707   0.596  0.00  0.00    +0.030 A 
ATOM     25  C   LIG    1        1.153   3.171  -0.024  0.00  0.00    -0.010 A 
ATOM     26  C   LIG    1        1.082   1.928  -0.626  0.00  0.00    +0.030 A 
ATOM     27  C   LIG    1       -0.102   1.218  -0.610  0.00  0.00    +0.010 A 
ATOM     28  C   LIG    1       -1.224   1.755   0.006  0.00  0.00    +0.140 A 
ENDBRANCH  18  28
ENDBRANCH  17  20
ENDBRANCH  16  17
ENDBRANCH   1  16
TORSDOF 6
