REMARK  Name = ZINCrD00000F5LEQ.0
REMARK                            x       y       z     vdW  Elec       q    Type
REMARK                         _______ _______ _______ _____ _____    ______ ____
ROOT
ATOM      1  N   LIG    1        7.875  -1.913   0.808  0.00  0.00    -0.710 N 
ATOM      2  H   LIG    1        7.412  -2.745   0.994  0.00  0.00    +0.410 HD
ATOM      3  C   LIG    1        9.083  -1.678   1.358  0.00  0.00    +0.570 C 
ATOM      4  O   LIG    1        9.665  -0.636   1.125  0.00  0.00    -0.520 OA
ENDROOT
BRANCH   3   5
ATOM      5  C   LIG    1        9.701  -2.686   2.242  0.00  0.00    -0.100 A 
ATOM      6  C   LIG    1        9.027  -3.886   2.507  0.00  0.00    +0.010 A 
ATOM      7  C   LIG    1        9.598  -4.831   3.331  0.00  0.00    +0.150 A 
ATOM      8  C   LIG    1       10.854  -4.586   3.902  0.00  0.00    -0.130 A 
ATOM      9  C   LIG    1       11.733  -5.344   4.797  0.00  0.00    -0.050 A 
ATOM     10  C   LIG    1       12.817  -4.579   4.993  0.00  0.00    +0.240 A 
ATOM     11  O   LIG    1       12.700  -3.426   4.312  0.00  0.00    -0.190 OA
ATOM     12  C   LIG    1       11.532  -3.384   3.638  0.00  0.00    +0.060 A 
ATOM     13  C   LIG    1       10.952  -2.442   2.803  0.00  0.00    +0.110 A 
BRANCH   7  14
ATOM     14  O   LIG    1        8.947  -5.995   3.589  0.00  0.00    -0.490 OA
ATOM     15  H   LIG    1        9.149  -6.706   2.965  0.00  0.00    +0.400 HD
ENDBRANCH   7  14
ENDBRANCH   3   5
BRANCH   1  16
ATOM     16  C   LIG    1        7.263  -0.913  -0.070  0.00  0.00    +0.480 C 
BRANCH  16  17
ATOM     17  C   LIG    1        5.765  -1.083  -0.057  0.00  0.00    -0.250 A 
ATOM     18  C   LIG    1        4.851  -0.085  -0.043  0.00  0.00    +0.290 A 
ATOM     19  N   LIG    1        3.624  -0.652  -0.035  0.00  0.00    -0.310 N 
ATOM     20  N   LIG    1        3.792  -2.043  -0.037  0.00  0.00    -0.280 NA
ATOM     21  C   LIG    1        5.075  -2.300  -0.056  0.00  0.00    +0.260 A 
BRANCH  19  22
ATOM     22  C   LIG    1        2.399   0.031  -0.020  0.00  0.00    +0.150 A 
ATOM     23  C   LIG    1        1.207  -0.680  -0.013  0.00  0.00    +0.030 A 
ATOM     24  C   LIG    1        0.002  -0.004   0.002  0.00  0.00    +0.030 A 
ATOM     25  C   LIG    1       -0.017   1.379   0.010  0.00  0.00    +0.010 A 
ATOM     26  C   LIG    1        1.170   2.089   0.002  0.00  0.00    +0.050 A 
ATOM     27  C   LIG    1        2.377   1.419  -0.013  0.00  0.00    -0.010 A 
ENDBRANCH  19  22
ENDBRANCH  16  17
BRANCH  16  29
ATOM     28  N   LIG    1        8.152  -1.228  -2.501  0.00  0.00    -0.400 NA
ATOM     29  C   LIG    1        7.765  -1.090  -1.442  0.00  0.00    +0.190 C 
ENDBRANCH  16  29
ENDBRANCH   1  16
TORSDOF 6
