REMARK  Name = ZINCvU0000000Ewt.0
REMARK                            x       y       z     vdW  Elec       q    Type
REMARK                         _______ _______ _______ _____ _____    ______ ____
ROOT
ATOM      1  C   LIG    1       -7.298   5.233  -0.326  0.00  0.00    +0.100 A 
ATOM      2  C   LIG    1       -7.288   3.844  -0.333  0.00  0.00    +0.050 A 
ATOM      3  C   LIG    1       -6.096   3.161  -0.244  0.00  0.00    +0.120 A 
ATOM      4  C   LIG    1       -4.894   3.867  -0.146  0.00  0.00    -0.120 A 
ATOM      5  C   LIG    1       -4.908   5.265  -0.134  0.00  0.00    +0.070 A 
ATOM      6  C   LIG    1       -6.104   5.940  -0.229  0.00  0.00    +0.030 A 
ENDROOT
BRANCH   4   7
ATOM      7  C   LIG    1       -3.614   3.140  -0.050  0.00  0.00    +0.560 C 
ATOM      8  N   LIG    1       -2.455   3.823   0.044  0.00  0.00    -0.670 N 
ATOM      9  H   LIG    1       -2.468   4.789   0.125  0.00  0.00    +0.410 HD
ATOM     10  O   LIG    1       -3.603   1.924  -0.056  0.00  0.00    -0.500 OA
BRANCH   8  11
ATOM     11  C   LIG    1       -1.236   3.138   0.023  0.00  0.00    +0.150 A 
ATOM     12  C   LIG    1       -1.099   1.984  -0.736  0.00  0.00    +0.060 A 
ATOM     13  C   LIG    1        0.105   1.308  -0.750  0.00  0.00    +0.040 A 
ATOM     14  C   LIG    1        1.177   1.784  -0.017  0.00  0.00    +0.060 A 
ATOM     15  C   LIG    1        1.045   2.937   0.736  0.00  0.00    -0.160 A 
ATOM     16  C   LIG    1       -0.158   3.615   0.758  0.00  0.00    +0.040 A 
BRANCH  15  17
ATOM     17  C   LIG    1        2.215   3.453   1.533  0.00  0.00    +0.510 C 
ATOM     18  F   LIG    1        1.874   3.493   2.889  0.00  0.00    -0.180 F 
ATOM     19  F   LIG    1        2.544   4.741   1.097  0.00  0.00    -0.180 F 
ATOM     20  F   LIG    1        3.312   2.605   1.353  0.00  0.00    -0.170 F 
ENDBRANCH  15  17
ENDBRANCH   8  11
ENDBRANCH   4   7
BRANCH   1  21
ATOM     21  O   LIG    1       -8.475   5.903  -0.413  0.00  0.00    -0.660 OA
BRANCH  21  22
ATOM     22  S   LIG    1       -9.120   6.200   0.933  0.00  0.00    +2.670 S 
ATOM     23  O   LIG    1       -8.896   5.057   1.746  0.00  0.00    -0.950 OA
ATOM     24  O   LIG    1      -10.415   6.713   0.652  0.00  0.00    -0.920 OA
BRANCH  22  30
ATOM     25  C   LIG    1       -5.232   7.978   3.940  0.00  0.00    +0.100 C 
ATOM     26  C   LIG    1       -6.414   8.278   3.054  0.00  0.00    -0.110 A 
ATOM     27  C   LIG    1       -6.785   9.589   2.818  0.00  0.00    +0.080 A 
ATOM     28  C   LIG    1       -7.869   9.864   2.006  0.00  0.00    +0.000 A 
ATOM     29  C   LIG    1       -8.582   8.830   1.430  0.00  0.00    +0.020 A 
ATOM     30  C   LIG    1       -8.211   7.519   1.666  0.00  0.00    -0.700 A 
ATOM     31  C   LIG    1       -9.764   9.130   0.545  0.00  0.00    +0.120 C 
ATOM     32  C   LIG    1       -7.130   7.243   2.483  0.00  0.00    +0.130 A 
ENDBRANCH  22  30
ENDBRANCH  21  22
ENDBRANCH   1  21
TORSDOF 6
