REMARK  Name = ZINCqH0000001Yxk.0
REMARK                            x       y       z     vdW  Elec       q    Type
REMARK                         _______ _______ _______ _____ _____    ______ ____
ROOT
ATOM      1  C   LIG    1       -2.346   8.902   2.306  0.00  0.00    +0.030 C 
ATOM      2  C   LIG    1       -2.417   9.513   0.905  0.00  0.00    +0.100 C 
ATOM      3  C   LIG    1       -2.527   8.394  -0.143  0.00  0.00    +0.300 C 
ATOM      4  N   LIG    1       -1.260   7.646  -0.150  0.00  0.00    -0.620 N 
ATOM      5  C   LIG    1       -0.007   8.408  -0.269  0.00  0.00    +0.280 C 
ATOM      6  C   LIG    1       -0.020   9.527   0.779  0.00  0.00    +0.140 C 
ATOM      7  C   LIG    1       -1.247   6.301  -0.055  0.00  0.00    +0.710 C 
ATOM      8  N   LIG    1       -0.075   5.643   0.035  0.00  0.00    -0.690 N 
ATOM      9  H   LIG    1        0.756   6.139   0.107  0.00  0.00    +0.410 HD
ATOM     10  O   LIG    1       -2.294   5.682  -0.051  0.00  0.00    -0.550 OA
ATOM     11  C   LIG    1       -3.640  10.426   0.807  0.00  0.00    +0.080 C 
ATOM     12  O   LIG    1       -1.232  10.274   0.656  0.00  0.00    -0.350 OA
ENDROOT
BRANCH   8  13
ATOM     13  C   LIG    1       -0.055   4.245   0.023  0.00  0.00    +0.190 A 
ATOM     14  C   LIG    1       -0.996   3.545  -0.724  0.00  0.00    +0.030 A 
ATOM     15  C   LIG    1       -0.979   2.167  -0.737  0.00  0.00    +0.100 A 
ATOM     16  C   LIG    1       -0.017   1.474  -0.000  0.00  0.00    -0.050 A 
ATOM     17  C   LIG    1        0.923   2.181   0.752  0.00  0.00    +0.060 A 
ATOM     18  C   LIG    1        0.905   3.559   0.757  0.00  0.00    -0.010 A 
BRANCH  16  19
ATOM     19  C   LIG    1        0.004  -0.004  -0.012  0.00  0.00    +0.070 A 
ATOM     20  N   LIG    1       -0.821  -0.782  -0.662  0.00  0.00    -0.250 NA
ATOM     21  N   LIG    1       -0.627  -2.024  -0.542  0.00  0.00    -0.260 NA
ATOM     22  C   LIG    1        0.349  -2.414   0.211  0.00  0.00    +0.190 A 
ATOM     23  S   LIG    1        1.141  -1.038   0.854  0.00  0.00    +0.130 S 
ENDBRANCH  16  19
ENDBRANCH   8  13
BRANCH   6  24
ATOM     24  C   LIG    1        1.177  10.452   0.554  0.00  0.00    +0.470 C 
ATOM     25  F   LIG    1        2.363   9.718   0.670  0.00  0.00    -0.170 F 
ATOM     26  F   LIG    1        1.165  11.472   1.511  0.00  0.00    -0.170 F 
ATOM     27  F   LIG    1        1.099  11.012  -0.726  0.00  0.00    -0.170 F 
ENDBRANCH   6  24
TORSDOF 3
