REMARK  Name = ZINCtV00001bB3mW.0
REMARK                            x       y       z     vdW  Elec       q    Type
REMARK                         _______ _______ _______ _____ _____    ______ ____
ROOT
ATOM      1  O   LIG    1       -0.868   2.303  -1.085  0.00  0.00    -0.490 OA
ATOM      2  C   LIG    1        0.078   1.623  -0.738  0.00  0.00    +0.590 C 
ATOM      3  N   LIG    1        1.133   2.198  -0.127  0.00  0.00    -0.470 N 
ATOM      4  N   LIG    1        1.324   3.571   0.072  0.00  0.00    -0.190 NA
ATOM      5  C   LIG    1        2.340   3.846   0.817  0.00  0.00    +0.110 C 
ATOM      6  C   LIG    1        2.960   5.084   1.093  0.00  0.00    -0.070 C 
ATOM      7  C   LIG    1        4.311   5.140   1.741  0.00  0.00    +0.090 C 
ATOM      8  C   LIG    1        4.811   3.804   2.251  0.00  0.00    +0.030 C 
ATOM      9  C   LIG    1        4.367   2.620   1.396  0.00  0.00    +0.050 C 
ATOM     10  C   LIG    1        2.328   6.236   0.767  0.00  0.00    +0.110 C 
ATOM     11  C   LIG    1        2.839   2.544   1.438  0.00  0.00    +0.020 C 
ATOM     12  C   LIG    1        2.294   1.491   0.460  0.00  0.00    +0.290 C 
ENDROOT
BRANCH   2  13
ATOM     13  C   LIG    1        0.069   0.165  -0.980  0.00  0.00    -0.120 A 
ATOM     14  C   LIG    1       -1.139  -0.505  -1.179  0.00  0.00    +0.090 A 
ATOM     15  C   LIG    1       -1.141  -1.866  -1.404  0.00  0.00    +0.020 A 
ATOM     16  C   LIG    1        0.050  -2.567  -1.434  0.00  0.00    +0.060 A 
ATOM     17  C   LIG    1        1.253  -1.909  -1.237  0.00  0.00    -0.040 A 
ATOM     18 CL   LIG    1        2.744  -2.799  -1.277  0.00  0.00    -0.060 Cl
ATOM     19  C   LIG    1        1.270  -0.547  -1.016  0.00  0.00    +0.070 A 
ENDBRANCH   2  13
BRANCH  10  20
ATOM     20  C   LIG    1        0.914   6.213   0.393  0.00  0.00    -0.180 A 
ATOM     21  C   LIG    1        0.353   6.935  -0.622  0.00  0.00    +0.030 A 
ATOM     22  C   LIG    1       -1.000   6.738  -0.779  0.00  0.00    -0.010 A 
ATOM     23  C   LIG    1       -1.556   5.883   0.087  0.00  0.00    -0.040 A 
ATOM     24  S   LIG    1       -0.333   5.257   1.184  0.00  0.00    +0.160 S 
ENDBRANCH  10  20
BRANCH  12  25
ATOM     25  C   LIG    1        1.856   0.248   1.192  0.00  0.00    -0.210 A 
ATOM     26  C   LIG    1        2.566  -0.877   1.291  0.00  0.00    +0.030 A 
ATOM     27  C   LIG    1        1.958  -1.888   2.016  0.00  0.00    +0.010 A 
ATOM     28  C   LIG    1        0.756  -1.584   2.506  0.00  0.00    -0.030 A 
ATOM     29  S   LIG    1        0.334   0.063   2.054  0.00  0.00    +0.120 S 
ENDBRANCH  12  25
TORSDOF 3
