REMARK  Name = ZINCqH0000034fEB.0
REMARK                            x       y       z     vdW  Elec       q    Type
REMARK                         _______ _______ _______ _____ _____    ______ ____
ROOT
ATOM      1  N   LIG    1        2.753   6.763   6.308  0.00  0.00    -0.740 N 
ATOM      2  H   LIG    1        3.552   7.239   6.032  0.00  0.00    +0.400 HD
ATOM      3  C   LIG    1        2.087   5.994   5.424  0.00  0.00    +0.710 C 
ATOM      4  N   LIG    1        2.531   5.885   4.156  0.00  0.00    -0.660 N 
ATOM      5  H   LIG    1        3.330   6.361   3.880  0.00  0.00    +0.410 HD
ATOM      6  O   LIG    1        1.086   5.397   5.770  0.00  0.00    -0.580 OA
ENDROOT
BRANCH   4   7
ATOM      7  C   LIG    1        1.836   5.081   3.232  0.00  0.00    +0.020 A 
ATOM      8  C   LIG    1        2.175   4.881   1.933  0.00  0.00    +0.190 A 
ATOM      9  N   LIG    1        1.249   4.047   1.393  0.00  0.00    -0.370 N 
ATOM     10  N   LIG    1        0.324   3.724   2.394  0.00  0.00    -0.280 NA
ATOM     11  C   LIG    1        0.674   4.341   3.493  0.00  0.00    +0.260 A 
BRANCH   9  12
ATOM     12  C   LIG    1        1.226   3.565   0.009  0.00  0.00    +0.400 C 
BRANCH  12  13
ATOM     13  C   LIG    1        1.193   2.059   0.002  0.00  0.00    -0.170 A 
ATOM     14  C   LIG    1       -0.017   1.383   0.010  0.00  0.00    +0.100 A 
ATOM     15  C   LIG    1        0.002  -0.004   0.002  0.00  0.00    -0.030 A 
ATOM     16  C   LIG    1        1.218  -0.661  -0.013  0.00  0.00    +0.270 A 
ATOM     17  N   LIG    1        2.350   0.015  -0.020  0.00  0.00    -0.490 NA
ATOM     18  C   LIG    1        2.370   1.334  -0.013  0.00  0.00    +0.270 A 
ENDBRANCH  12  13
ENDBRANCH   9  12
ENDBRANCH   4   7
BRANCH   1  19
ATOM     19  C   LIG    1        2.270   6.880   7.686  0.00  0.00    +0.300 C 
ATOM     20  C   LIG    1        2.810   5.715   8.517  0.00  0.00    +0.040 C 
BRANCH  19  24
ATOM     21  C   LIG    1        3.625  10.569   9.361  0.00  0.00    -0.080 A 
ATOM     22  C   LIG    1        2.345  10.120   9.624  0.00  0.00    +0.010 A 
ATOM     23  C   LIG    1        1.906   8.926   9.082  0.00  0.00    +0.030 A 
ATOM     24  C   LIG    1        2.748   8.182   8.277  0.00  0.00    -0.100 A 
ATOM     25  C   LIG    1        4.030   8.629   8.017  0.00  0.00    +0.010 A 
ATOM     26  C   LIG    1        4.467   9.825   8.556  0.00  0.00    +0.010 A 
BRANCH  21  28
ATOM     27  C   LIG    1        4.751  11.606  11.312  0.00  0.00    +0.030 C 
ATOM     28  C   LIG    1        4.103  11.871   9.951  0.00  0.00    +0.050 C 
ENDBRANCH  21  28
ENDBRANCH  19  24
ENDBRANCH   1  19
TORSDOF 6
