REMARK  Name = ZINCtV000002KNXm.0
REMARK                            x       y       z     vdW  Elec       q    Type
REMARK                         _______ _______ _______ _____ _____    ______ ____
ROOT
ATOM      1  C   LIG    1        5.905  -0.363  -1.472  0.00  0.00    +0.160 A 
ATOM      2  N   LIG    1        6.496  -0.506  -0.308  0.00  0.00    -0.290 NA
ATOM      3  N   LIG    1        7.736  -0.797  -0.481  0.00  0.00    -0.280 NA
ATOM      4  C   LIG    1        8.008  -0.857  -1.754  0.00  0.00    +0.220 A 
ATOM      5  N   LIG    1        6.850  -0.589  -2.431  0.00  0.00    -0.450 N 
ENDROOT
BRANCH   4   6
ATOM      6  C   LIG    1        9.348  -1.170  -2.367  0.00  0.00    +0.030 C 
ATOM      7  C   LIG    1       10.460  -1.646  -1.430  0.00  0.00    +0.070 C 
ATOM      8  C   LIG    1       10.514  -0.239  -2.030  0.00  0.00    +0.060 C 
ENDBRANCH   4   6
BRANCH   1   9
ATOM      9  S   LIG    1        4.210   0.036  -1.744  0.00  0.00    +0.010 S 
BRANCH   9  10
ATOM     10  C   LIG    1        3.639   0.166  -0.031  0.00  0.00    +0.200 C 
BRANCH  10  13
ATOM     11  C   LIG    1        0.002  -0.004   0.002  0.00  0.00    +0.100 A 
ATOM     12  N   LIG    1        1.239  -0.412  -0.012  0.00  0.00    -0.440 NA
ATOM     13  C   LIG    1        2.172   0.511  -0.016  0.00  0.00    +0.070 A 
ATOM     14  C   LIG    1        1.740   1.776  -0.005  0.00  0.00    -0.070 A 
ATOM     15  S   LIG    1       -0.022   1.758   0.012  0.00  0.00    +0.160 S 
BRANCH  11  22
ATOM     16 CL   LIG    1       -2.666   1.406   0.035  0.00  0.00    -0.030 Cl
ATOM     17  C   LIG    1       -2.470  -0.319   0.025  0.00  0.00    -0.030 A 
ATOM     18  C   LIG    1       -3.579  -1.142   0.032  0.00  0.00    +0.040 A 
ATOM     19  C   LIG    1       -3.424  -2.517   0.024  0.00  0.00    +0.050 A 
ATOM     20  C   LIG    1       -2.159  -3.076   0.009  0.00  0.00    +0.030 A 
ATOM     21  C   LIG    1       -1.042  -2.266  -0.005  0.00  0.00    +0.090 A 
ATOM     22  C   LIG    1       -1.190  -0.878   0.009  0.00  0.00    -0.010 A 
ENDBRANCH  11  22
ENDBRANCH  10  13
ENDBRANCH   9  10
ENDBRANCH   1   9
BRANCH   5  23
ATOM     23  C   LIG    1        6.663  -0.548  -3.883  0.00  0.00    +0.370 C 
BRANCH  23  24
ATOM     24  C   LIG    1        6.926   0.848  -4.385  0.00  0.00    -0.120 A 
ATOM     25  C   LIG    1        5.891   1.760  -4.465  0.00  0.00    +0.040 A 
ATOM     26  C   LIG    1        6.133   3.043  -4.920  0.00  0.00    +0.010 A 
ATOM     27  C   LIG    1        7.409   3.410  -5.306  0.00  0.00    +0.020 A 
ATOM     28  C   LIG    1        8.443   2.496  -5.232  0.00  0.00    +0.010 A 
ATOM     29  C   LIG    1        8.202   1.215  -4.771  0.00  0.00    +0.030 A 
ENDBRANCH  23  24
ENDBRANCH   5  23
TORSDOF 7
