REMARK  Name = ZINCvU00000004LX.0
REMARK                            x       y       z     vdW  Elec       q    Type
REMARK                         _______ _______ _______ _____ _____    ______ ____
ROOT
ATOM      1  N   LIG    1       -5.320   4.438  -0.825  0.00  0.00    -0.590 N 
ATOM      2  C   LIG    1       -5.828   4.104  -2.028  0.00  0.00    +0.610 C 
ATOM      3  O   LIG    1       -5.284   4.489  -3.047  0.00  0.00    -0.510 OA
ATOM      4  C   LIG    1       -6.023   4.050   0.400  0.00  0.00    +0.310 C 
ENDROOT
BRANCH   2   5
ATOM      5  C   LIG    1       -7.035   3.278  -2.110  0.00  0.00    -0.070 A 
ATOM      6  C   LIG    1       -7.584   2.760  -3.263  0.00  0.00    +0.060 A 
ATOM      7  C   LIG    1       -8.720   2.039  -2.880  0.00  0.00    -0.030 A 
ATOM      8  C   LIG    1       -8.826   2.148  -1.523  0.00  0.00    +0.050 A 
ATOM      9  O   LIG    1       -7.806   2.896  -1.070  0.00  0.00    -0.150 OA
BRANCH   8  10
ATOM     10  C   LIG    1       -9.886   1.543  -0.691  0.00  0.00    -0.020 A 
ATOM     11  C   LIG    1      -10.895   0.782  -1.285  0.00  0.00    +0.080 A 
ATOM     12  C   LIG    1      -11.882   0.220  -0.502  0.00  0.00    +0.040 A 
ATOM     13  C   LIG    1      -11.873   0.408   0.869  0.00  0.00    +0.090 A 
ATOM     14  C   LIG    1      -10.875   1.161   1.464  0.00  0.00    -0.180 A 
ATOM     15  C   LIG    1       -9.880   1.724   0.694  0.00  0.00    +0.090 A 
BRANCH  14  16
ATOM     16  C   LIG    1      -10.874   1.360   2.958  0.00  0.00    +0.510 C 
ATOM     17  F   LIG    1      -10.961   2.726   3.246  0.00  0.00    -0.170 F 
ATOM     18  F   LIG    1       -9.689   0.845   3.495  0.00  0.00    -0.170 F 
ATOM     19  F   LIG    1      -11.969   0.694   3.518  0.00  0.00    -0.170 F 
ENDBRANCH  14  16
ENDBRANCH   8  10
ENDBRANCH   2   5
BRANCH   1  20
ATOM     20  C   LIG    1       -4.065   5.189  -0.743  0.00  0.00    +0.340 C 
BRANCH  20  23
ATOM     21  N   LIG    1       -1.645   4.695  -0.604  0.00  0.00    -0.670 N 
ATOM     22  H   LIG    1       -1.485   5.649  -0.531  0.00  0.00    +0.410 HD
ATOM     23  C   LIG    1       -2.906   4.227  -0.684  0.00  0.00    +0.490 C 
ATOM     24  O   LIG    1       -3.109   3.031  -0.708  0.00  0.00    -0.500 OA
BRANCH  21  32
ATOM     25  C   LIG    1       -1.460   2.862  -2.773  0.00  0.00    +0.090 C 
ATOM     26  C   LIG    1       -0.437   2.893  -1.666  0.00  0.00    -0.070 A 
ATOM     27  C   LIG    1        0.627   2.013  -1.683  0.00  0.00    +0.010 A 
ATOM     28  C   LIG    1        1.569   2.045  -0.672  0.00  0.00    +0.020 A 
ATOM     29  C   LIG    1        1.446   2.954   0.363  0.00  0.00    +0.010 A 
ATOM     30  C   LIG    1        0.382   3.834   0.388  0.00  0.00    -0.090 A 
ATOM     31  C   LIG    1        0.249   4.825   1.516  0.00  0.00    +0.090 C 
ATOM     32  C   LIG    1       -0.566   3.804  -0.626  0.00  0.00    +0.130 A 
ENDBRANCH  21  32
ENDBRANCH  20  23
ENDBRANCH   1  20
TORSDOF 6
