REMARK  Name = ZINCrH000004tjEM.0
REMARK                            x       y       z     vdW  Elec       q    Type
REMARK                         _______ _______ _______ _____ _____    ______ ____
ROOT
ATOM      1  C   LIG    1       -1.427   4.113   0.056  0.00  0.00    -0.180 A 
ATOM      2  C   LIG    1       -1.173   2.830  -0.342  0.00  0.00    +0.150 A 
ATOM      3  S   LIG    1       -2.626   1.969  -0.560  0.00  0.00    +0.210 S 
ATOM      4  C   LIG    1       -3.610   3.354  -0.118  0.00  0.00    -0.260 A 
ATOM      5  C   LIG    1       -5.127   3.365  -0.079  0.00  0.00    +0.370 C 
ATOM      6  N   LIG    1       -5.547   4.614   0.577  0.00  0.00    -0.610 N 
ATOM      7  C   LIG    1       -6.527   4.617   1.502  0.00  0.00    +0.530 C 
ATOM      8  O   LIG    1       -6.818   5.647   2.074  0.00  0.00    -0.510 OA
ATOM      9  C   LIG    1       -4.864   5.858   0.191  0.00  0.00    +0.290 C 
ATOM     10  C   LIG    1       -3.393   5.761   0.605  0.00  0.00    +0.100 C 
ATOM     11  C   LIG    1       -2.844   4.409   0.179  0.00  0.00    +0.000 A 
ENDROOT
BRANCH   2  12
ATOM     12  N   LIG    1        0.091   2.301  -0.535  0.00  0.00    -0.820 N 
ATOM     13  H   LIG    1        0.875   2.855  -0.394  0.00  0.00    +0.410 HD
ATOM     14  H   LIG    1        0.193   1.378  -0.815  0.00  0.00    +0.410 HD
ENDBRANCH   2  12
BRANCH   1  16
ATOM     15  N   LIG    1        0.420   5.832   0.532  0.00  0.00    -0.430 NA
ATOM     16  C   LIG    1       -0.397   5.072   0.321  0.00  0.00    +0.280 C 
ENDBRANCH   1  16
BRANCH   7  17
ATOM     17  C   LIG    1       -7.262   3.342   1.827  0.00  0.00    +0.210 C 
BRANCH  17  18
ATOM     18  C   LIG    1       -6.461   2.539   2.819  0.00  0.00    -0.120 A 
ATOM     19  C   LIG    1       -6.360   2.964   4.131  0.00  0.00    +0.050 A 
ATOM     20  C   LIG    1       -5.628   2.225   5.042  0.00  0.00    +0.000 A 
ATOM     21  C   LIG    1       -4.990   1.067   4.639  0.00  0.00    +0.010 A 
ATOM     22  C   LIG    1       -5.087   0.645   3.326  0.00  0.00    +0.010 A 
ATOM     23  C   LIG    1       -5.822   1.381   2.416  0.00  0.00    +0.010 A 
ENDBRANCH  17  18
BRANCH  17  24
ATOM     24  O   LIG    1       -8.538   3.657   2.388  0.00  0.00    -0.340 OA
BRANCH  24  25
ATOM     25  C   LIG    1       -9.547   2.682   2.120  0.00  0.00    +0.150 C 
ATOM     26  C   LIG    1      -10.328   3.065   0.846  0.00  0.00    +0.000 C 
ATOM     27  C   LIG    1      -11.788   2.653   1.156  0.00  0.00    +0.020 C 
ATOM     28  C   LIG    1      -11.936   3.019   2.654  0.00  0.00    +0.020 C 
ATOM     29  C   LIG    1      -10.570   2.652   3.270  0.00  0.00    +0.030 C 
ENDBRANCH  24  25
ENDBRANCH  17  24
ENDBRANCH   7  17
TORSDOF 6
