REMARK  Name = ZINCqH0000001Hzi.0
REMARK                            x       y       z     vdW  Elec       q    Type
REMARK                         _______ _______ _______ _____ _____    ______ ____
ROOT
ATOM      1  C   LIG    1       -8.312   1.361   0.338  0.00  0.00    +0.460 C 
ATOM      2  O   LIG    1       -8.330   2.564   0.459  0.00  0.00    -0.480 OA
ENDROOT
BRANCH   1   3
ATOM      3  O   LIG    1       -9.463   0.683   0.205  0.00  0.00    -0.330 OA
BRANCH   3  10
ATOM      4  C   LIG    1      -11.745   0.756  -0.641  0.00  0.00    +0.010 C 
ATOM      5  C   LIG    1      -12.018  -0.637  -0.072  0.00  0.00    +0.030 C 
ATOM      6  C   LIG    1      -12.530  -0.510   1.364  0.00  0.00    +0.010 C 
ATOM      7  C   LIG    1      -11.475   0.193   2.221  0.00  0.00    -0.020 C 
ATOM      8  C   LIG    1      -11.201   1.587   1.651  0.00  0.00    +0.020 C 
ATOM      9  C   LIG    1      -10.181  -0.625   2.210  0.00  0.00    +0.010 C 
ATOM     10  C   LIG    1      -10.690   1.459   0.215  0.00  0.00    +0.190 C 
BRANCH   4  12
ATOM     11  C   LIG    1      -12.289  -0.074  -2.934  0.00  0.00    +0.020 C 
ATOM     12  C   LIG    1      -11.234   0.629  -2.078  0.00  0.00    -0.010 C 
ATOM     13  C   LIG    1      -10.961   2.023  -2.647  0.00  0.00    +0.020 C 
ENDBRANCH   4  12
ENDBRANCH   3  10
ENDBRANCH   1   3
BRANCH   1  14
ATOM     14  C   LIG    1       -6.998   0.624   0.337  0.00  0.00    +0.320 C 
BRANCH  14  15
ATOM     15  O   LIG    1       -5.910   1.572   0.494  0.00  0.00    -0.330 OA
BRANCH  15  16
ATOM     16  C   LIG    1       -4.664   1.073   0.513  0.00  0.00    +0.470 C 
ATOM     17  O   LIG    1       -4.489  -0.118   0.402  0.00  0.00    -0.470 OA
BRANCH  16  18
ATOM     18  C   LIG    1       -3.485   1.996   0.673  0.00  0.00    +0.290 C 
BRANCH  18  19
ATOM     19  O   LIG    1       -2.277   1.233   0.663  0.00  0.00    -0.290 OA
BRANCH  19  20
ATOM     20  C   LIG    1       -1.112   1.919   0.798  0.00  0.00    +0.160 A 
ATOM     21  C   LIG    1       -1.131   3.299   0.943  0.00  0.00    -0.080 A 
ATOM     22  C   LIG    1        0.054   3.996   1.074  0.00  0.00    +0.090 A 
ATOM     23  C   LIG    1        1.260   3.321   1.068  0.00  0.00    -0.050 A 
ATOM     24  C   LIG    1        1.283   1.943   0.929  0.00  0.00    +0.140 A 
ATOM     25  F   LIG    1        2.463   1.284   0.922  0.00  0.00    -0.130 F 
ATOM     26  C   LIG    1        0.098   1.241   0.797  0.00  0.00    -0.030 A 
ENDBRANCH  19  20
ENDBRANCH  18  19
ENDBRANCH  16  18
ENDBRANCH  15  16
ENDBRANCH  14  15
ENDBRANCH   1  14
TORSDOF 9
