REMARK  Name = ZINCvU00000005WJ.0
REMARK                            x       y       z     vdW  Elec       q    Type
REMARK                         _______ _______ _______ _____ _____    ______ ____
ROOT
ATOM      1  C   LIG    1       -7.877   2.753  -0.306  0.00  0.00    +0.360 A 
ATOM      2  N   LIG    1       -7.040   2.595   0.704  0.00  0.00    -0.530 NA
ATOM      3  C   LIG    1       -7.385   2.929   1.939  0.00  0.00    +0.200 A 
ATOM      4  C   LIG    1       -8.680   3.461   2.171  0.00  0.00    -0.160 A 
ATOM      5  C   LIG    1       -9.523   3.612   1.066  0.00  0.00    +0.100 A 
ATOM      6  S   LIG    1      -11.059   4.290   1.585  0.00  0.00    +0.180 S 
ATOM      7  C   LIG    1      -10.545   4.347   3.261  0.00  0.00    -0.170 A 
ATOM      8  C   LIG    1      -11.398   4.854   4.395  0.00  0.00    +0.150 C 
ATOM      9  C   LIG    1       -9.312   3.899   3.401  0.00  0.00    -0.070 A 
ATOM     10  C   LIG    1       -8.614   3.845   4.735  0.00  0.00    +0.140 C 
ATOM     11  N   LIG    1       -9.083   3.245  -0.144  0.00  0.00    -0.470 NA
ENDROOT
BRANCH   1  12
ATOM     12  C   LIG    1       -7.432   2.355  -1.690  0.00  0.00    +0.300 C 
BRANCH  12  13
ATOM     13  N   LIG    1       -7.780   0.949  -1.931  0.00  0.00    -0.530 NA
BRANCH  13  15
ATOM     14  C   LIG    1       -8.722   1.168  -4.181  0.00  0.00    +0.030 C 
ATOM     15  C   LIG    1       -7.580   0.591  -3.342  0.00  0.00    +0.170 C 
ENDBRANCH  13  15
BRANCH  13  16
ATOM     16  C   LIG    1       -7.015   0.058  -1.049  0.00  0.00    +0.160 C 
ATOM     17  C   LIG    1       -7.655  -1.331  -1.047  0.00  0.00    +0.030 C 
ENDBRANCH  13  16
ENDBRANCH  12  13
ENDBRANCH   1  12
BRANCH   3  18
ATOM     18  S   LIG    1       -6.255   2.711   3.274  0.00  0.00    +0.060 S 
BRANCH  18  19
ATOM     19  C   LIG    1       -4.842   2.019   2.379  0.00  0.00    +0.040 C 
BRANCH  19  20
ATOM     20  C   LIG    1       -3.720   1.745   3.347  0.00  0.00    +0.440 C 
ATOM     21  O   LIG    1       -3.863   1.992   4.527  0.00  0.00    -0.430 OA
BRANCH  20  22
ATOM     22  C   LIG    1       -2.501   1.198   2.881  0.00  0.00    -0.100 A 
ATOM     23  C   LIG    1       -1.401   0.899   3.654  0.00  0.00    -0.010 A 
ATOM     24  C   LIG    1       -0.418   0.377   2.782  0.00  0.00    -0.260 A 
ATOM     25  C   LIG    1       -0.962   0.379   1.506  0.00  0.00    +0.120 A 
ATOM     26  C   LIG    1       -0.269  -0.093   0.254  0.00  0.00    +0.160 C 
ATOM     27  C   LIG    1       -1.270   1.092   5.143  0.00  0.00    +0.140 C 
ATOM     28  N   LIG    1       -2.205   0.876   1.571  0.00  0.00    -0.520 N 
ATOM     29  H   LIG    1       -2.804   0.990   0.817  0.00  0.00    +0.420 HD
BRANCH  24  30
ATOM     30  C   LIG    1        0.924  -0.081   3.156  0.00  0.00    +0.430 C 
ATOM     31  O   LIG    1        1.837   0.715   3.234  0.00  0.00    -0.450 OA
ATOM     32  C   LIG    1        1.170  -1.539   3.444  0.00  0.00    +0.070 C 
ENDBRANCH  24  30
ENDBRANCH  20  22
ENDBRANCH  19  20
ENDBRANCH  18  19
ENDBRANCH   3  18
TORSDOF 9
