REMARK  Name = ZINCqH0000001Lot.0
REMARK                            x       y       z     vdW  Elec       q    Type
REMARK                         _______ _______ _______ _____ _____    ______ ____
ROOT
ATOM      1  C   LIG    1        0.935   3.114  -0.364  0.00  0.00    +0.030 A 
ATOM      2  N   LIG    1       -0.259   3.662  -0.306  0.00  0.00    -0.180 NA
ATOM      3  N   LIG    1       -1.314   2.981  -0.038  0.00  0.00    -0.280 N 
ATOM      4  C   LIG    1       -1.262   1.657   0.197  0.00  0.00    +0.480 A 
ATOM      5  C   LIG    1       -0.018   0.991   0.162  0.00  0.00    +0.000 A 
ATOM      6  O   LIG    1       -2.283   1.037   0.445  0.00  0.00    -0.500 OA
ATOM      7  C   LIG    1        1.093   1.728  -0.125  0.00  0.00    +0.140 A 
ENDROOT
BRANCH   3   8
ATOM      8  C   LIG    1       -2.551   3.632   0.007  0.00  0.00    +0.100 A 
ATOM      9  C   LIG    1       -3.635   3.113  -0.690  0.00  0.00    +0.090 A 
ATOM     10  C   LIG    1       -4.857   3.754  -0.641  0.00  0.00    +0.010 A 
ATOM     11  C   LIG    1       -4.999   4.920   0.093  0.00  0.00    +0.120 A 
ATOM     12  C   LIG    1       -3.918   5.442   0.784  0.00  0.00    +0.010 A 
ATOM     13  F   LIG    1       -6.194   5.549   0.135  0.00  0.00    -0.130 F 
ATOM     14  C   LIG    1       -2.696   4.801   0.742  0.00  0.00    +0.080 A 
ENDBRANCH   3   8
BRANCH   1  17
ATOM     15  N   LIG    1        1.965   5.267  -0.906  0.00  0.00    -0.650 N 
ATOM     16  H   LIG    1        1.099   5.686  -0.782  0.00  0.00    +0.420 HD
ATOM     17  C   LIG    1        2.114   3.947  -0.678  0.00  0.00    +0.590 C 
ATOM     18  O   LIG    1        3.219   3.442  -0.732  0.00  0.00    -0.500 OA
BRANCH  15  22
ATOM     19  C   LIG    1        5.224   7.548  -2.142  0.00  0.00    -0.090 A 
ATOM     20  C   LIG    1        5.117   6.227  -2.537  0.00  0.00    +0.030 A 
ATOM     21  C   LIG    1        4.038   5.468  -2.128  0.00  0.00    +0.010 A 
ATOM     22  C   LIG    1        3.059   6.033  -1.321  0.00  0.00    +0.140 A 
ATOM     23  C   LIG    1        3.167   7.362  -0.931  0.00  0.00    -0.010 A 
ATOM     24  C   LIG    1        4.251   8.114  -1.339  0.00  0.00    +0.040 A 
BRANCH  19  26
ATOM     25  C   LIG    1        5.907   9.575  -3.397  0.00  0.00    +0.030 C 
ATOM     26  C   LIG    1        6.402   8.374  -2.590  0.00  0.00    +0.020 C 
ATOM     27  C   LIG    1        7.175   8.866  -1.365  0.00  0.00    +0.030 C 
ENDBRANCH  19  26
ENDBRANCH  15  22
ENDBRANCH   1  17
TORSDOF 4
