REMARK  Name = ZINCrH00000tj1eu.0
REMARK                            x       y       z     vdW  Elec       q    Type
REMARK                         _______ _______ _______ _____ _____    ______ ____
ROOT
ATOM      1  C   LIG    1        2.751  -4.258   0.076  0.00  0.00    +0.500 C 
ENDROOT
BRANCH   1   2
ATOM      2  N   LIG    1        2.683  -2.820   0.345  0.00  0.00    -0.440 N 
ATOM      3  N   LIG    1        3.766  -1.961   0.580  0.00  0.00    -0.260 NA
ATOM      4  C   LIG    1        3.290  -0.765   0.775  0.00  0.00    +0.290 A 
ATOM      5  O   LIG    1        1.943  -0.806   0.682  0.00  0.00    -0.270 OA
ATOM      6  C   LIG    1        1.565  -2.067   0.413  0.00  0.00    +0.610 A 
ATOM      7  O   LIG    1        0.422  -2.458   0.261  0.00  0.00    -0.470 OA
BRANCH   4   8
ATOM      8  C   LIG    1        4.095   0.443   1.058  0.00  0.00    -0.050 A 
ATOM      9  C   LIG    1        3.466   1.674   1.249  0.00  0.00    +0.110 A 
ATOM     10  C   LIG    1        4.220   2.797   1.513  0.00  0.00    +0.000 A 
ATOM     11  C   LIG    1        5.601   2.706   1.589  0.00  0.00    +0.130 A 
ATOM     12  C   LIG    1        6.231   1.486   1.400  0.00  0.00    -0.010 A 
ATOM     13  F   LIG    1        6.336   3.809   1.848  0.00  0.00    -0.130 F 
ATOM     14  C   LIG    1        5.485   0.356   1.135  0.00  0.00    +0.110 A 
ENDBRANCH   4   8
ENDBRANCH   1   2
BRANCH   1  15
ATOM     15  N   LIG    1        3.043  -4.976   1.324  0.00  0.00    -0.540 NA
BRANCH  15  16
ATOM     16  C   LIG    1        2.620  -6.380   1.236  0.00  0.00    +0.160 C 
ATOM     17  C   LIG    1        1.341  -6.475   0.402  0.00  0.00    -0.030 C 
ATOM     18  C   LIG    1        0.900  -7.938   0.309  0.00  0.00    +0.020 C 
ATOM     19  C   LIG    1        0.633  -8.479   1.715  0.00  0.00    -0.020 C 
ATOM     20  C   LIG    1       -0.471  -7.654   2.379  0.00  0.00    +0.010 C 
ATOM     21  C   LIG    1       -0.030  -6.192   2.471  0.00  0.00    -0.010 C 
ATOM     22  C   LIG    1        1.249  -6.097   3.305  0.00  0.00    +0.020 C 
ATOM     23  C   LIG    1        1.912  -8.384   2.549  0.00  0.00    +0.020 C 
ATOM     24  C   LIG    1        0.236  -5.650   1.065  0.00  0.00    +0.030 C 
ATOM     25  C   LIG    1        2.353  -6.922   2.642  0.00  0.00    +0.000 C 
ENDBRANCH  15  16
BRANCH  15  27
ATOM     26  C   LIG    1        4.664  -5.242   3.140  0.00  0.00    +0.040 C 
ATOM     27  C   LIG    1        4.468  -4.877   1.667  0.00  0.00    +0.180 C 
ENDBRANCH  15  27
ENDBRANCH   1  15
TORSDOF 5
