REMARK  Name = ZINCnE000001TDRm.0
REMARK                            x       y       z     vdW  Elec       q    Type
REMARK                         _______ _______ _______ _____ _____    ______ ____
ROOT
ATOM      1  N   UNK    1       -1.611  -1.167   1.393  0.00  0.00    -0.720 N 
ATOM      2  H   UNK    1       -1.090  -0.806   2.127  0.00  0.00    +0.400 HD
ATOM      3  C   UNK    1       -2.689  -1.935   1.645  0.00  0.00    +0.540 C 
ATOM      4  O   UNK    1       -3.341  -2.386   0.727  0.00  0.00    -0.530 OA
ENDROOT
BRANCH   3   5
ATOM      5  C   UNK    1       -3.085  -2.234   3.068  0.00  0.00    -0.000 C 
ATOM      6  C   UNK    1       -1.939  -2.962   3.774  0.00  0.00    +0.050 C 
ATOM      7  C   UNK    1       -1.639  -4.272   3.042  0.00  0.00    +0.010 C 
ATOM      8  C   UNK    1       -2.887  -5.157   3.049  0.00  0.00    +0.000 C 
ATOM      9  C   UNK    1       -4.033  -4.430   2.343  0.00  0.00    +0.020 C 
ATOM     10  C   UNK    1       -4.333  -3.120   3.075  0.00  0.00    +0.040 C 
BRANCH   5  11
ATOM     11  C   UNK    1       -3.381  -0.944   3.789  0.00  0.00    -0.170 A 
ATOM     12  C   UNK    1       -2.512   0.051   3.971  0.00  0.00    +0.010 A 
ATOM     13  C   UNK    1       -3.011   1.142   4.662  0.00  0.00    +0.010 A 
ATOM     14  C   UNK    1       -4.283   1.028   5.048  0.00  0.00    -0.060 A 
ATOM     15  S   UNK    1       -4.922  -0.524   4.524  0.00  0.00    +0.120 S 
ENDBRANCH   5  11
ENDBRANCH   3   5
BRANCH   1  16
ATOM     16  C   UNK    1       -1.227  -0.876   0.009  0.00  0.00    +0.400 C 
BRANCH  16  20
ATOM     17  C   UNK    1        2.170   0.486  -0.016  0.00  0.00    +0.010 A 
ATOM     18  C   UNK    1        1.687   1.762  -0.005  0.00  0.00    -0.060 A 
ATOM     19  S   UNK    1       -0.021   1.703   0.011  0.00  0.00    +0.140 S 
ATOM     20  C   UNK    1        0.002  -0.004   0.002  0.00  0.00    -0.030 A 
ATOM     21  N   UNK    1        1.209  -0.444  -0.012  0.00  0.00    -0.400 NA
BRANCH  17  23
ATOM     22  O   UNK    1        3.968  -1.002  -0.042  0.00  0.00    -0.660 OA
ATOM     23  C   UNK    1        3.602   0.166  -0.032  0.00  0.00    +0.550 C 
ATOM     24  O   UNK    1        4.431   1.067  -0.035  0.00  0.00    -0.680 OA
ENDBRANCH  17  23
ENDBRANCH  16  20
ENDBRANCH   1  16
TORSDOF 5
