REMARK  Name = ZINCrg000000r98L.0
REMARK                            x       y       z     vdW  Elec       q    Type
REMARK                         _______ _______ _______ _____ _____    ______ ____
ROOT
ATOM      1  C   LIG    1       -0.018   1.503   0.010  0.00  0.00    +0.520 C 
ATOM      2  N   LIG    1        1.139   2.192   0.003  0.00  0.00    -0.720 N 
ATOM      3  H   LIG    1        1.986   1.719  -0.008  0.00  0.00    +0.410 HD
ATOM      4  O   LIG    1       -1.077   2.095   0.018  0.00  0.00    -0.520 OA
ENDROOT
BRANCH   1   5
ATOM      5  C   LIG    1        0.002  -0.004   0.002  0.00  0.00    +0.250 C 
BRANCH   5   6
ATOM      6  N   LIG    1       -1.372  -0.511   0.012  0.00  0.00    -0.700 N 
ATOM      7  H   LIG    1       -2.087   0.033   0.377  0.00  0.00    +0.420 HD
ATOM      8  C   LIG    1       -1.643  -1.734  -0.485  0.00  0.00    +0.610 C 
ATOM      9  O   LIG    1       -0.746  -2.417  -0.943  0.00  0.00    -0.520 OA
BRANCH   8  10
ATOM     10  C   LIG    1       -3.019  -2.242  -0.474  0.00  0.00    -0.090 A 
ATOM     11  C   LIG    1       -3.430  -3.454  -0.949  0.00  0.00    +0.050 A 
ATOM     12  C   LIG    1       -4.816  -3.522  -0.736  0.00  0.00    -0.070 A 
ATOM     13  C   LIG    1       -5.186  -2.359  -0.156  0.00  0.00    +0.210 A 
ATOM     14  O   LIG    1       -4.101  -1.590   0.000  0.00  0.00    -0.160 OA
ENDBRANCH   8  10
ENDBRANCH   5   6
BRANCH   5  15
ATOM     15  C   LIG    1        0.742  -0.511   1.242  0.00  0.00    +0.070 C 
BRANCH  15  16
ATOM     16  C   LIG    1        0.872  -2.034   1.171  0.00  0.00    +0.100 C 
BRANCH  16  18
ATOM     17  C   LIG    1        1.804  -4.429   2.378  0.00  0.00    +0.140 C 
ATOM     18  S   LIG    1        1.749  -2.635   2.640  0.00  0.00    -0.270 S 
ENDBRANCH  16  18
ENDBRANCH  15  16
ENDBRANCH   5  15
ENDBRANCH   1   5
BRANCH   2  19
ATOM     19  C   LIG    1        1.120   3.657   0.011  0.00  0.00    +0.330 C 
BRANCH  19  20
ATOM     20  C   LIG    1        2.534   4.179   0.000  0.00  0.00    -0.050 A 
ATOM     21  C   LIG    1        3.191   4.417   1.192  0.00  0.00    +0.020 A 
ATOM     22  C   LIG    1        4.490   4.891   1.183  0.00  0.00    +0.130 A 
ATOM     23  C   LIG    1        5.127   5.136  -0.019  0.00  0.00    -0.670 A 
ATOM     24  C   LIG    1        4.467   4.904  -1.212  0.00  0.00    +0.130 A 
ATOM     25  C   LIG    1        3.171   4.425  -1.202  0.00  0.00    +0.020 A 
BRANCH  23  26
ATOM     26  S   LIG    1        6.780   5.746  -0.032  0.00  0.00    +2.700 S 
ATOM     27  O   LIG    1        7.333   5.381  -1.289  0.00  0.00    -0.960 OA
ATOM     28  O   LIG    1        7.357   5.367   1.210  0.00  0.00    -0.960 OA
BRANCH  26  29
ATOM     29  N   LIG    1        6.693   7.400  -0.022  0.00  0.00    -1.250 NA
ATOM     30  H   LIG    1        7.506   7.928  -0.027  0.00  0.00    +0.420 HD
ATOM     31  H   LIG    1        5.828   7.840  -0.011  0.00  0.00    +0.420 HD
ENDBRANCH  26  29
ENDBRANCH  23  26
ENDBRANCH  19  20
ENDBRANCH   2  19
TORSDOF 10
