REMARK  Name = ZINCrD0000073roh.0
REMARK                            x       y       z     vdW  Elec       q    Type
REMARK                         _______ _______ _______ _____ _____    ______ ____
ROOT
ATOM      1  N   LIG    1        1.952   0.480   1.704  0.00  0.00    -0.610 N 
ATOM      2  C   LIG    1        1.485   1.743   1.642  0.00  0.00    +0.530 C 
ATOM      3  O   LIG    1        1.887   2.578   2.424  0.00  0.00    -0.530 OA
ATOM      4  C   LIG    1        1.466  -0.528   0.759  0.00  0.00    +0.270 C 
ENDROOT
BRANCH   2   5
ATOM      5  C   LIG    1        0.462   2.117   0.600  0.00  0.00    -0.020 C 
ATOM      6  C   LIG    1        1.039   1.867  -0.795  0.00  0.00    +0.030 C 
ATOM      7  C   LIG    1       -0.011   2.216  -1.853  0.00  0.00    +0.010 C 
ATOM      8  C   LIG    1       -0.373   3.700  -1.737  0.00  0.00    +0.260 C 
ATOM      9  N   LIG    1       -0.791   3.979  -0.357  0.00  0.00    -0.610 N 
ATOM     10  C   LIG    1       -1.976   4.570  -0.104  0.00  0.00    +0.530 C 
ATOM     11  O   LIG    1       -2.357   4.700   1.040  0.00  0.00    -0.530 OA
ATOM     12  C   LIG    1        0.105   3.600   0.744  0.00  0.00    +0.310 C 
BRANCH  10  13
ATOM     13  C   LIG    1       -2.826   5.071  -1.244  0.00  0.00    -0.090 C 
ATOM     14  C   LIG    1       -3.343   3.881  -2.055  0.00  0.00    +0.050 C 
ATOM     15  C   LIG    1       -1.987   5.978  -2.146  0.00  0.00    +0.040 C 
ATOM     16  C   LIG    1       -4.011   5.862  -0.686  0.00  0.00    +0.050 C 
ENDBRANCH  10  13
ENDBRANCH   2   5
BRANCH   1  17
ATOM     17  C   LIG    1        2.947   0.117   2.717  0.00  0.00    +0.240 C 
ATOM     18  C   LIG    1        4.216  -0.386   2.027  0.00  0.00    +0.030 C 
BRANCH  17  19
ATOM     19  C   LIG    1        2.382  -0.988   3.613  0.00  0.00    +0.070 C 
BRANCH  19  23
ATOM     20  C   LIG    1       -0.961   0.526   5.803  0.00  0.00    +0.130 A 
ATOM     21  C   LIG    1       -1.153  -0.063   4.562  0.00  0.00    -0.020 A 
ATOM     22  C   LIG    1       -0.070  -0.551   3.856  0.00  0.00    +0.050 A 
ATOM     23  C   LIG    1        1.203  -0.454   4.385  0.00  0.00    -0.120 A 
ATOM     24  C   LIG    1        1.396   0.127   5.625  0.00  0.00    +0.050 A 
ATOM     25  C   LIG    1        0.318   0.623   6.332  0.00  0.00    -0.070 A 
BRANCH  20  27
ATOM     26  C   LIG    1       -1.752   1.599   7.772  0.00  0.00    +0.250 C 
ATOM     27  O   LIG    1       -2.024   1.006   6.500  0.00  0.00    -0.320 OA
ENDBRANCH  20  27
ENDBRANCH  19  23
ENDBRANCH  17  19
ENDBRANCH   1  17
TORSDOF 6
