REMARK  Name = ZINCqH0000032tKN.0
REMARK                            x       y       z     vdW  Elec       q    Type
REMARK                         _______ _______ _______ _____ _____    ______ ____
ROOT
ATOM      1  N   LIG    1       -8.803   3.304   5.474  0.00  0.00    -0.690 N 
ATOM      2  H   LIG    1       -9.138   2.760   4.745  0.00  0.00    +0.410 HD
ATOM      3  C   LIG    1       -7.521   3.719   5.473  0.00  0.00    +0.700 C 
ATOM      4  N   LIG    1       -6.679   3.302   4.506  0.00  0.00    -0.740 N 
ATOM      5  H   LIG    1       -6.996   2.703   3.812  0.00  0.00    +0.400 HD
ATOM      6  O   LIG    1       -7.124   4.470   6.343  0.00  0.00    -0.570 OA
ENDROOT
BRANCH   1  10
ATOM      7  C   LIG    1      -11.331   4.359   8.614  0.00  0.00    -0.090 A 
ATOM      8  C   LIG    1      -10.363   5.246   8.180  0.00  0.00    +0.020 A 
ATOM      9  C   LIG    1       -9.523   4.899   7.139  0.00  0.00    +0.020 A 
ATOM     10  C   LIG    1       -9.652   3.659   6.529  0.00  0.00    +0.160 A 
ATOM     11  C   LIG    1      -10.629   2.772   6.965  0.00  0.00    -0.020 A 
ATOM     12  C   LIG    1      -11.461   3.123   8.009  0.00  0.00    +0.020 A 
BRANCH   7  14
ATOM     13  C   LIG    1      -13.696   4.717   9.266  0.00  0.00    +0.040 C 
ATOM     14  C   LIG    1      -12.245   4.741   9.750  0.00  0.00    +0.020 C 
ATOM     15  C   LIG    1      -12.074   3.747  10.899  0.00  0.00    +0.030 C 
ENDBRANCH   7  14
ENDBRANCH   1  10
BRANCH   4  16
ATOM     16  C   LIG    1       -5.285   3.753   4.505  0.00  0.00    +0.340 C 
BRANCH  16  17
ATOM     17  C   LIG    1       -4.563   3.147   3.329  0.00  0.00    -0.100 A 
ATOM     18  C   LIG    1       -4.537   3.811   2.117  0.00  0.00    +0.030 A 
ATOM     19  C   LIG    1       -3.875   3.255   1.038  0.00  0.00    +0.050 A 
ATOM     20  C   LIG    1       -3.238   2.036   1.172  0.00  0.00    -0.100 A 
ATOM     21  C   LIG    1       -3.268   1.369   2.383  0.00  0.00    +0.030 A 
ATOM     22  C   LIG    1       -3.926   1.928   3.463  0.00  0.00    +0.030 A 
BRANCH  20  23
ATOM     23  C   LIG    1       -2.516   1.430  -0.004  0.00  0.00    +0.380 C 
BRANCH  23  24
ATOM     24  N   LIG    1       -1.122   1.881  -0.006  0.00  0.00    -0.380 N 
ATOM     25  C   LIG    1       -0.024   1.105  -0.022  0.00  0.00    +0.470 A 
ATOM     26  N   LIG    1        1.025   1.887  -0.024  0.00  0.00    -0.550 NA
ATOM     27  C   LIG    1        0.639   3.162  -0.004  0.00  0.00    +0.420 A 
ATOM     28  N   LIG    1       -0.667   3.209   0.011  0.00  0.00    -0.310 NA
ENDBRANCH  23  24
ENDBRANCH  20  23
ENDBRANCH  16  17
ENDBRANCH   4  16
TORSDOF 6
