REMARK  Name = ZINCpe00000VVGfi.0
REMARK                            x       y       z     vdW  Elec       q    Type
REMARK                         _______ _______ _______ _____ _____    ______ ____
ROOT
ATOM      1  O   LIG    1        1.052   5.721  -0.055  0.00  0.00    -0.520 OA
ATOM      2  C   LIG    1        1.525   4.603   0.013  0.00  0.00    +0.610 C 
ATOM      3  N   LIG    1        2.860   4.440   0.101  0.00  0.00    -0.600 N 
ATOM      4  C   LIG    1        3.452   3.095   0.095  0.00  0.00    +0.290 C 
ATOM      5  C   LIG    1        4.354   2.944   1.319  0.00  0.00    +0.020 C 
ATOM      6  C   LIG    1        5.377   4.081   1.340  0.00  0.00    +0.280 C 
ATOM      7  C   LIG    1        4.648   5.423   1.438  0.00  0.00    +0.020 C 
ATOM      8  C   LIG    1        3.751   5.604   0.210  0.00  0.00    +0.290 C 
ENDROOT
BRANCH   6   9
ATOM      9  N   LIG    1        6.262   3.921   2.497  0.00  0.00    -0.630 N 
ATOM     10  C   LIG    1        7.720   3.744   2.436  0.00  0.00    +0.250 C 
ATOM     11  C   LIG    1        8.141   3.629   3.914  0.00  0.00    +0.250 C 
ATOM     12  N   LIG    1        6.873   3.744   4.651  0.00  0.00    -0.740 N 
ATOM     13  H   LIG    1        6.778   3.709   5.615  0.00  0.00    +0.430 HD
ATOM     14  C   LIG    1        5.870   3.906   3.778  0.00  0.00    +0.700 C 
ATOM     15  O   LIG    1        4.709   4.028   4.117  0.00  0.00    -0.580 OA
ENDBRANCH   6   9
BRANCH   2  16
ATOM     16  C   LIG    1        0.636   3.423  -0.001  0.00  0.00    -0.050 A 
ATOM     17  N   LIG    1        1.021   2.161  -0.055  0.00  0.00    -0.200 NA
ATOM     18  N   LIG    1       -0.015   1.397  -0.050  0.00  0.00    -0.160 N 
ATOM     19  N   LIG    1       -1.165   2.194   0.004  0.00  0.00    -0.270 NA
ATOM     20  C   LIG    1       -0.769   3.445   0.041  0.00  0.00    +0.300 A 
BRANCH  18  21
ATOM     21  C   LIG    1        0.005  -0.004  -0.098  0.00  0.00    +0.150 A 
ATOM     22  C   LIG    1        1.216  -0.681  -0.163  0.00  0.00    +0.030 A 
ATOM     23  C   LIG    1        1.232  -2.061  -0.204  0.00  0.00    +0.040 A 
ATOM     24  C   LIG    1        0.044  -2.769  -0.193  0.00  0.00    +0.020 A 
ATOM     25  C   LIG    1       -1.163  -2.097  -0.134  0.00  0.00    +0.040 A 
ATOM     26  C   LIG    1       -1.186  -0.717  -0.087  0.00  0.00    +0.040 A 
ENDBRANCH  18  21
ENDBRANCH   2  16
TORSDOF 3
