REMARK  Name = ZINCkj000013rSZa.0
REMARK                            x       y       z     vdW  Elec       q    Type
REMARK                         _______ _______ _______ _____ _____    ______ ____
ROOT
ATOM      1  O   LIG    1        1.186   0.272   7.274  0.00  0.00    -0.540 OA
ATOM      2  C   LIG    1        1.444   0.093   6.093  0.00  0.00    +0.550 A 
ATOM      3  N   LIG    1        2.479  -0.619   5.605  0.00  0.00    -0.640 N 
ATOM      4  H   LIG    1        3.142  -1.074   6.147  0.00  0.00    +0.420 HD
ATOM      5  C   LIG    1        2.462  -0.609   4.218  0.00  0.00    +0.170 A 
ATOM      6  C   LIG    1        1.413   0.111   3.791  0.00  0.00    +0.050 A 
ATOM      7  N   LIG    1        0.906   0.458   2.540  0.00  0.00    -0.580 N 
ATOM      8  H   LIG    1        1.350   0.151   1.734  0.00  0.00    +0.410 HD
ATOM      9  C   LIG    1       -0.214   1.227   2.451  0.00  0.00    +0.510 A 
ATOM     10  C   LIG    1       -0.874   1.688   3.577  0.00  0.00    -0.260 A 
ATOM     11  C   LIG    1       -0.427   1.378   4.850  0.00  0.00    +0.270 A 
ATOM     12 CL   LIG    1       -2.293   2.671   3.389  0.00  0.00    -0.050 Cl
ATOM     13  C   LIG    1        0.715   0.593   5.000  0.00  0.00    -0.280 A 
ENDROOT
BRANCH   9  14
ATOM     14  N   LIG    1       -0.698   1.558   1.213  0.00  0.00    -0.720 N 
ATOM     15  H   LIG    1       -1.495   2.106   1.135  0.00  0.00    +0.430 HD
BRANCH  14  16
ATOM     16  C   LIG    1       -0.013   1.086   0.008  0.00  0.00    +0.290 C 
BRANCH  16  17
ATOM     17  C   LIG    1       -0.753   1.593  -1.232  0.00  0.00    -0.120 C 
ATOM     18  C   LIG    1       -0.725   3.138  -1.279  0.00  0.00    +0.090 C 
ATOM     19  C   LIG    1        0.466   3.431  -2.230  0.00  0.00    +0.290 C 
ATOM     20  N   LIG    1        0.359   2.357  -3.250  0.00  0.00    -0.520 N 
ATOM     21  H   LIG    1       -0.349   2.591  -3.930  0.00  0.00    +0.440 HD
ATOM     22  H   LIG    1        1.249   2.220  -3.706  0.00  0.00    +0.440 HD
ATOM     23  C   LIG    1       -0.028   1.136  -2.511  0.00  0.00    +0.290 C 
BRANCH  17  24
ATOM     24  C   LIG    1       -2.197   1.087  -1.230  0.00  0.00    +0.270 C 
ATOM     25  F   LIG    1       -2.202  -0.311  -1.251  0.00  0.00    -0.200 F 
ENDBRANCH  17  24
ENDBRANCH  16  17
ENDBRANCH  14  16
ENDBRANCH   9  14
TORSDOF 4
