REMARK  Name = ZINCqH00000519N2.0
REMARK                            x       y       z     vdW  Elec       q    Type
REMARK                         _______ _______ _______ _____ _____    ______ ____
ROOT
ATOM      1  O   LIG    1       -0.928  -2.234  -0.000  0.00  0.00    -0.350 OA
ENDROOT
BRANCH   1   3
ATOM      2  O   LIG    1       -3.088  -2.698   0.018  0.00  0.00    -0.490 OA
ATOM      3  C   LIG    1       -1.950  -3.104   0.005  0.00  0.00    +0.470 C 
BRANCH   3   4
ATOM      4  C   LIG    1       -1.679  -4.586  -0.005  0.00  0.00    +0.390 C 
BRANCH   4   5
ATOM      5  N   LIG    1       -2.949  -5.316   0.004  0.00  0.00    -0.700 N 
ATOM      6  H   LIG    1       -3.788  -4.828   0.015  0.00  0.00    +0.420 HD
ATOM      7  C   LIG    1       -2.953  -6.663  -0.003  0.00  0.00    +0.670 C 
ATOM      8  O   LIG    1       -1.902  -7.273  -0.016  0.00  0.00    -0.560 OA
BRANCH   7   9
ATOM      9  O   LIG    1       -4.120  -7.333   0.005  0.00  0.00    -0.350 OA
BRANCH   9  10
ATOM     10  C   LIG    1       -4.048  -8.784  -0.003  0.00  0.00    +0.280 C 
BRANCH  10  11
ATOM     11  C   LIG    1       -5.463  -9.365   0.008  0.00  0.00    +0.470 C 
ATOM     12  F   LIG    1       -6.134  -8.938   1.159  0.00  0.00    -0.170 F 
ATOM     13  F   LIG    1       -5.394 -10.762   0.001  0.00  0.00    -0.170 F 
ATOM     14  F   LIG    1       -6.156  -8.926  -1.125  0.00  0.00    -0.170 F 
ENDBRANCH  10  11
ENDBRANCH   9  10
ENDBRANCH   7   9
ENDBRANCH   4   5
ENDBRANCH   3   4
ENDBRANCH   1   3
BRANCH   1  15
ATOM     15  C   LIG    1       -1.264  -0.822   0.010  0.00  0.00    +0.350 C 
BRANCH  15  16
ATOM     16  C   LIG    1        0.002  -0.004   0.002  0.00  0.00    +0.050 A 
ATOM     17  C   LIG    1        1.213  -0.571  -0.013  0.00  0.00    -0.070 A 
ATOM     18  S   LIG    1        2.422   0.712  -0.017  0.00  0.00    +0.160 S 
ATOM     19  C   LIG    1        1.136   1.917   0.002  0.00  0.00    +0.100 A 
ATOM     20  N   LIG    1       -0.016   1.309   0.009  0.00  0.00    -0.450 NA
BRANCH  19  21
ATOM     21  C   LIG    1        1.333   3.382   0.007  0.00  0.00    -0.020 A 
ATOM     22  C   LIG    1        0.231   4.237   0.016  0.00  0.00    +0.090 A 
ATOM     23  C   LIG    1        0.421   5.604   0.027  0.00  0.00    +0.030 A 
ATOM     24  C   LIG    1        1.702   6.127   0.018  0.00  0.00    +0.050 A 
ATOM     25  C   LIG    1        2.800   5.286   0.003  0.00  0.00    +0.040 A 
ATOM     26  C   LIG    1        2.624   3.916  -0.002  0.00  0.00    -0.030 A 
ATOM     27 CL   LIG    1        4.002   2.861  -0.021  0.00  0.00    -0.030 Cl
ENDBRANCH  19  21
ENDBRANCH  15  16
ENDBRANCH   1  15
TORSDOF 9
