REMARK  Name = ZINCqH00000022qz.0
REMARK                            x       y       z     vdW  Elec       q    Type
REMARK                         _______ _______ _______ _____ _____    ______ ____
ROOT
ATOM      1  C   LIG    1        0.802  14.546  -1.708  0.00  0.00    +0.110 C 
ATOM      2  C   LIG    1        0.381  13.152  -1.240  0.00  0.00    +0.100 C 
ATOM      3  O   LIG    1        1.503  12.269  -1.303  0.00  0.00    -0.300 OA
ATOM      4  C   LIG    1        1.380  11.076  -0.662  0.00  0.00    +0.090 A 
ATOM      5  C   LIG    1        2.001   9.945  -1.155  0.00  0.00    +0.040 A 
ATOM      6  C   LIG    1        1.862   8.730  -0.485  0.00  0.00    -0.030 A 
ATOM      7  C   LIG    1        1.094   8.658   0.675  0.00  0.00    +0.040 A 
ATOM      8  C   LIG    1        0.479   9.791   1.169  0.00  0.00    +0.020 A 
ATOM      9  C   LIG    1        0.617  10.999   0.504  0.00  0.00    +0.090 A 
ATOM     10  N   LIG    1       -0.005  12.157   0.992  0.00  0.00    -0.660 N 
ATOM     11  H   LIG    1       -0.347  12.187   1.899  0.00  0.00    +0.420 HD
ATOM     12  C   LIG    1       -0.734  12.626  -2.147  0.00  0.00    +0.070 C 
ATOM     13  C   LIG    1       -0.122  13.230   0.179  0.00  0.00    +0.500 C 
ATOM     14  O   LIG    1       -0.631  14.252   0.590  0.00  0.00    -0.500 OA
ENDROOT
BRANCH   6  15
ATOM     15  C   LIG    1        2.528   7.513  -1.011  0.00  0.00    -0.050 A 
ATOM     16  C   LIG    1        3.292   7.580  -2.174  0.00  0.00    +0.030 A 
ATOM     17  C   LIG    1        3.908   6.445  -2.659  0.00  0.00    +0.010 A 
ATOM     18  C   LIG    1        3.773   5.242  -1.990  0.00  0.00    +0.040 A 
ATOM     19  C   LIG    1        3.012   5.168  -0.837  0.00  0.00    -0.090 A 
ATOM     20  C   LIG    1        2.391   6.297  -0.343  0.00  0.00    +0.040 A 
BRANCH  19  21
ATOM     21  C   LIG    1        2.865   3.853  -0.116  0.00  0.00    +0.220 C 
BRANCH  21  22
ATOM     22  O   LIG    1        1.724   3.156  -0.622  0.00  0.00    -0.360 OA
BRANCH  22  23
ATOM     23  C   LIG    1        1.494   1.890  -0.002  0.00  0.00    +0.130 C 
ATOM     24  C   LIG    1       -0.019   1.540   0.011  0.00  0.00    +0.030 C 
ATOM     25  C   LIG    1        0.002  -0.004   0.002  0.00  0.00    +0.190 C 
ATOM     26  O   LIG    1        1.275  -0.417  -0.510  0.00  0.00    -0.380 OA
ATOM     27  C   LIG    1        2.056   0.734  -0.867  0.00  0.00    +0.190 C 
ENDBRANCH  22  23
ENDBRANCH  21  22
ENDBRANCH  19  21
ENDBRANCH   6  15
TORSDOF 4
