REMARK  Name = ZINCvU000000087L.0
REMARK                            x       y       z     vdW  Elec       q    Type
REMARK                         _______ _______ _______ _____ _____    ______ ____
ROOT
ATOM      1  N   LIG    1       -0.565   8.187  -0.029  0.00  0.00    -0.600 N 
ATOM      2  C   LIG    1       -1.067   9.401  -0.332  0.00  0.00    +0.520 C 
ATOM      3  O   LIG    1       -2.211   9.503  -0.723  0.00  0.00    -0.520 OA
ATOM      4  C   LIG    1        0.817   8.064   0.442  0.00  0.00    +0.290 C 
ENDROOT
BRANCH   1   7
ATOM      5  C   LIG    1       -0.076   5.351   0.029  0.00  0.00    +0.030 C 
ATOM      6  C   LIG    1       -0.834   5.960  -1.161  0.00  0.00    +0.030 C 
ATOM      7  C   LIG    1       -1.400   6.992  -0.172  0.00  0.00    +0.230 C 
ATOM      8  C   LIG    1       -1.170   5.944   0.932  0.00  0.00    +0.040 C 
BRANCH   5  13
ATOM      9  C   LIG    1        1.179   1.786   0.000  0.00  0.00    +0.130 A 
ATOM     10  C   LIG    1       -0.013   1.076   0.008  0.00  0.00    -0.080 A 
ATOM     11  C   LIG    1       -1.218   1.751   0.017  0.00  0.00    +0.050 A 
ATOM     12  C   LIG    1       -1.237   3.133   0.030  0.00  0.00    -0.030 A 
ATOM     13  C   LIG    1       -0.051   3.844   0.022  0.00  0.00    -0.030 A 
ATOM     14  C   LIG    1        1.157   3.174   0.008  0.00  0.00    -0.020 A 
BRANCH   9  16
ATOM     15  C   LIG    1        2.312  -0.303  -0.022  0.00  0.00    +0.250 C 
ATOM     16  O   LIG    1        2.366   1.125  -0.015  0.00  0.00    -0.320 OA
ENDBRANCH   9  16
ENDBRANCH   5  13
ENDBRANCH   1   7
BRANCH   2  17
ATOM     17  C   LIG    1       -0.208  10.630  -0.185  0.00  0.00    +0.150 C 
BRANCH  17  18
ATOM     18  C   LIG    1       -1.002  11.848  -0.585  0.00  0.00    +0.090 A 
ATOM     19  C   LIG    1       -1.631  12.569   0.325  0.00  0.00    +0.020 A 
ATOM     20  S   LIG    1       -2.421  13.881  -0.568  0.00  0.00    +0.170 S 
ATOM     21  C   LIG    1       -1.827  13.344  -2.147  0.00  0.00    +0.160 A 
ATOM     22  N   LIG    1       -1.831  13.606  -3.432  0.00  0.00    -0.440 NA
ATOM     23  C   LIG    1       -1.093  12.675  -4.070  0.00  0.00    +0.080 A 
ATOM     24  C   LIG    1       -0.618  11.808  -3.144  0.00  0.00    +0.150 A 
ATOM     25  N   LIG    1       -1.079  12.232  -1.904  0.00  0.00    -0.410 N 
BRANCH  23  26
ATOM     26  C   LIG    1       -0.846  12.612  -5.531  0.00  0.00    -0.010 A 
ATOM     27  C   LIG    1       -0.056  11.594  -6.063  0.00  0.00    +0.010 A 
ATOM     28  C   LIG    1        0.166  11.536  -7.424  0.00  0.00    +0.010 A 
ATOM     29  C   LIG    1       -0.383  12.492  -8.258  0.00  0.00    +0.000 A 
ATOM     30  C   LIG    1       -1.163  13.508  -7.736  0.00  0.00    +0.010 A 
ATOM     31  C   LIG    1       -1.397  13.572  -6.377  0.00  0.00    +0.040 A 
ENDBRANCH  23  26
ENDBRANCH  17  18
ENDBRANCH   2  17
TORSDOF 6
