REMARK  Name = ZINCpk00000xI4gr.0
REMARK                            x       y       z     vdW  Elec       q    Type
REMARK                         _______ _______ _______ _____ _____    ______ ____
ROOT
ATOM      1  N   LIG    1       -1.597   2.121   2.357  0.00  0.00    -0.460 N 
ATOM      2  C   LIG    1       -2.329   0.933   1.843  0.00  0.00    +0.240 C 
ATOM      3  C   LIG    1       -2.516   1.176   0.353  0.00  0.00    -0.030 C 
ATOM      4  C   LIG    1       -2.478  -0.018  -0.576  0.00  0.00    +0.260 C 
ATOM      5  O   LIG    1       -2.612   0.497  -1.913  0.00  0.00    -0.380 OA
ATOM      6  C   LIG    1       -1.643   1.450  -2.336  0.00  0.00    +0.200 C 
ATOM      7  C   LIG    1       -1.520   2.638  -1.361  0.00  0.00    +0.030 C 
ATOM      8  C   LIG    1       -1.268   2.045   0.012  0.00  0.00    -0.100 C 
ATOM      9  C   LIG    1       -1.274   3.007   1.201  0.00  0.00    +0.260 C 
ENDROOT
BRANCH   1  14
ATOM     10  C   LIG    1       -3.514   2.870   5.389  0.00  0.00    +0.170 A 
ATOM     11  N   LIG    1       -3.812   4.136   5.128  0.00  0.00    -0.510 NA
ATOM     12  C   LIG    1       -3.405   4.714   4.016  0.00  0.00    +0.530 A 
ATOM     13  N   LIG    1       -2.690   4.069   3.117  0.00  0.00    -0.540 NA
ATOM     14  C   LIG    1       -2.350   2.797   3.305  0.00  0.00    +0.330 A 
ATOM     15  C   LIG    1       -2.769   2.151   4.472  0.00  0.00    -0.020 A 
ATOM     16  F   LIG    1       -2.450   0.858   4.701  0.00  0.00    -0.110 F 
BRANCH  10  18
ATOM     17  C   LIG    1       -5.356   1.582   6.435  0.00  0.00    +0.050 C 
ATOM     18  C   LIG    1       -3.986   2.223   6.665  0.00  0.00    +0.110 C 
ENDBRANCH  10  18
ENDBRANCH   1  14
BRANCH   8  19
ATOM     19  C   LIG    1       -0.014   1.209   0.009  0.00  0.00    +0.560 C 
ATOM     20  N   LIG    1        1.170   1.770  -0.306  0.00  0.00    -0.620 N 
ATOM     21  C   LIG    1        1.407   3.144  -0.771  0.00  0.00    +0.280 C 
ATOM     22  C   LIG    1        2.890   3.290  -0.985  0.00  0.00    -0.020 C 
ATOM     23  C   LIG    1        3.496   2.170  -0.705  0.00  0.00    -0.010 C 
ATOM     24  C   LIG    1        2.495   1.136  -0.263  0.00  0.00    +0.290 C 
ATOM     25  O   LIG    1       -0.072   0.029   0.284  0.00  0.00    -0.520 OA
ENDBRANCH   8  19
TORSDOF 3
