REMARK  Name = ZINCpk00000y6wM9.0
REMARK                            x       y       z     vdW  Elec       q    Type
REMARK                         _______ _______ _______ _____ _____    ______ ____
ROOT
ATOM      1  N   LIG    1        0.380   3.941  -5.118  0.00  0.00    -0.640 N 
ATOM      2  H   LIG    1        1.345   3.882  -5.204  0.00  0.00    +0.410 HD
ATOM      3  C   LIG    1       -0.189   3.942  -3.897  0.00  0.00    +0.500 C 
ATOM      4  O   LIG    1       -1.395   4.016  -3.790  0.00  0.00    -0.520 OA
ENDROOT
BRANCH   1   7
ATOM      5  C   LIG    1        1.453   3.957  -8.003  0.00  0.00    +0.150 C 
ATOM      6  C   LIG    1        0.016   4.035  -7.554  0.00  0.00    +0.050 A 
ATOM      7  C   LIG    1       -0.424   4.026  -6.270  0.00  0.00    +0.010 A 
ATOM      8  C   LIG    1       -1.825   4.110  -6.295  0.00  0.00    +0.270 A 
ATOM      9  N   LIG    1       -2.212   4.175  -7.544  0.00  0.00    -0.280 NA
ATOM     10  N   LIG    1       -1.075   4.127  -8.361  0.00  0.00    -0.320 N 
BRANCH  10  11
ATOM     11  C   LIG    1       -1.065   4.166  -9.762  0.00  0.00    +0.150 A 
ATOM     12  C   LIG    1       -1.903   5.041 -10.440  0.00  0.00    +0.020 A 
ATOM     13  C   LIG    1       -1.886   5.081 -11.821  0.00  0.00    +0.030 A 
ATOM     14  C   LIG    1       -1.043   4.243 -12.528  0.00  0.00    +0.010 A 
ATOM     15  C   LIG    1       -0.211   3.367 -11.856  0.00  0.00    +0.030 A 
ATOM     16  C   LIG    1       -0.219   3.326 -10.475  0.00  0.00    +0.000 A 
ENDBRANCH  10  11
ENDBRANCH   1   7
BRANCH   3  17
ATOM     17  C   LIG    1        0.672   3.852  -2.664  0.00  0.00    +0.330 C 
BRANCH  17  18
ATOM     18  N   LIG    1       -0.179   3.872  -1.471  0.00  0.00    -0.590 N 
ATOM     19  C   LIG    1       -0.685   2.607  -0.913  0.00  0.00    +0.280 C 
ATOM     20  C   LIG    1        0.053   2.320   0.396  0.00  0.00    +0.010 C 
ATOM     21  C   LIG    1       -0.633   3.005   1.564  0.00  0.00    +0.030 C 
ATOM     22  C   LIG    1       -0.555   4.520   1.517  0.00  0.00    +0.050 C 
ATOM     23  C   LIG    1       -1.363   5.067   0.338  0.00  0.00    +0.180 C 
ATOM     24  C   LIG    1       -0.490   5.035  -0.899  0.00  0.00    +0.490 C 
ATOM     25  O   LIG    1       -0.072   6.072  -1.370  0.00  0.00    -0.530 OA
BRANCH  23  26
ATOM     26  O   LIG    1       -1.761   6.412   0.611  0.00  0.00    -0.540 OA
ATOM     27  H   LIG    1       -2.265   6.826  -0.103  0.00  0.00    +0.390 HD
ENDBRANCH  23  26
ENDBRANCH  17  18
ENDBRANCH   3  17
TORSDOF 5
