REMARK  Name = ZINCtV00000L6jnq.0
REMARK                            x       y       z     vdW  Elec       q    Type
REMARK                         _______ _______ _______ _____ _____    ______ ____
ROOT
ATOM      1  C   LIG    1        1.228   8.548   0.977  0.00  0.00    +0.170 C 
ATOM      2  C   LIG    1        0.507   7.329   0.461  0.00  0.00    +0.130 A 
ATOM      3  N   LIG    1        0.854   6.082   0.677  0.00  0.00    -0.280 NA
ATOM      4  N   LIG    1       -0.069   5.244   0.031  0.00  0.00    -0.330 N 
ATOM      5  C   LIG    1       -0.974   6.032  -0.585  0.00  0.00    +0.320 A 
ATOM      6  N   LIG    1       -2.085   5.711  -1.354  0.00  0.00    -0.630 N 
ATOM      7  H   LIG    1       -2.441   4.808  -1.361  0.00  0.00    +0.420 HD
ATOM      8  C   LIG    1       -2.664   6.699  -2.110  0.00  0.00    +0.230 C 
ATOM      9  C   LIG    1       -3.622   6.257  -3.193  0.00  0.00    +0.090 C 
ATOM     10  C   LIG    1       -4.694   7.327  -3.404  0.00  0.00    +0.060 C 
ATOM     11  C   LIG    1       -3.997   8.638  -3.783  0.00  0.00    +0.030 C 
ATOM     12  C   LIG    1       -3.016   8.996  -2.702  0.00  0.00    +0.400 C 
ATOM     13  O   LIG    1       -2.750  10.166  -2.505  0.00  0.00    -0.460 OA
ATOM     14  C   LIG    1       -2.400   8.009  -1.912  0.00  0.00    -0.280 C 
ATOM     15  C   LIG    1       -1.441   8.492  -0.846  0.00  0.00    +0.200 C 
ATOM     16  C   LIG    1       -0.639   7.334  -0.323  0.00  0.00    -0.250 A 
ENDROOT
BRANCH  15  17
ATOM     17  C   LIG    1       -2.220   9.113   0.285  0.00  0.00    -0.050 A 
ATOM     18  C   LIG    1       -3.141   8.358   0.986  0.00  0.00    +0.050 A 
ATOM     19  C   LIG    1       -3.856   8.927   2.023  0.00  0.00    +0.030 A 
ATOM     20  C   LIG    1       -3.651  10.253   2.360  0.00  0.00    -0.030 A 
ATOM     21  C   LIG    1       -2.729  11.010   1.658  0.00  0.00    +0.040 A 
ATOM     22 CL   LIG    1       -4.549  10.968   3.662  0.00  0.00    -0.060 Cl
ATOM     23  C   LIG    1       -2.010  10.438   0.624  0.00  0.00    -0.010 A 
ATOM     24 CL   LIG    1       -0.848  11.385  -0.252  0.00  0.00    -0.040 Cl
ENDBRANCH  15  17
BRANCH   4  25
ATOM     25  C   LIG    1       -0.050   3.842   0.023  0.00  0.00    +0.150 A 
ATOM     26  C   LIG    1        1.161   3.163   0.008  0.00  0.00    +0.030 A 
ATOM     27  C   LIG    1        1.176   1.782   0.000  0.00  0.00    +0.050 A 
ATOM     28  C   LIG    1       -0.013   1.076   0.008  0.00  0.00    +0.010 A 
ATOM     29  C   LIG    1       -1.220   1.749   0.017  0.00  0.00    +0.050 A 
ATOM     30  C   LIG    1       -1.242   3.130   0.031  0.00  0.00    -0.030 A 
ENDBRANCH   4  25
TORSDOF 2
