REMARK  Name = ZINCqH0000001bfl.0
REMARK                            x       y       z     vdW  Elec       q    Type
REMARK                         _______ _______ _______ _____ _____    ______ ____
ROOT
ATOM      1  C   LIG    1        0.745   2.936   6.590  0.00  0.00    +0.330 C 
ENDROOT
BRANCH   1   6
ATOM      2  C   LIG    1        4.420   3.737   6.968  0.00  0.00    +0.140 A 
ATOM      3  C   LIG    1        4.916   2.531   7.443  0.00  0.00    +0.030 A 
ATOM      4  C   LIG    1        4.061   1.464   7.640  0.00  0.00    +0.030 A 
ATOM      5  C   LIG    1        2.712   1.598   7.369  0.00  0.00    +0.020 A 
ATOM      6  C   LIG    1        2.215   2.796   6.890  0.00  0.00    -0.090 A 
ATOM      7  C   LIG    1        3.065   3.867   6.691  0.00  0.00    +0.000 A 
BRANCH   2   9
ATOM      8  C   LIG    1        6.325   5.015   7.599  0.00  0.00    +0.520 C 
ATOM      9  N   LIG    1        5.283   4.820   6.767  0.00  0.00    -0.680 N 
ATOM     10  H   LIG    1        5.131   5.431   6.029  0.00  0.00    +0.410 HD
ATOM     11  O   LIG    1        6.564   4.205   8.471  0.00  0.00    -0.520 OA
BRANCH   8  13
ATOM     12  C   LIG    1        6.339   7.494   7.625  0.00  0.00    +0.040 C 
ATOM     13  C   LIG    1        7.193   6.237   7.448  0.00  0.00    -0.010 C 
ATOM     14  C   LIG    1        8.295   6.215   8.509  0.00  0.00    +0.050 C 
ENDBRANCH   8  13
ENDBRANCH   2   9
ENDBRANCH   1   6
BRANCH   1  15
ATOM     15  N   LIG    1        0.493   2.563   5.197  0.00  0.00    -0.730 N 
ATOM     16  H   LIG    1        1.228   2.281   4.629  0.00  0.00    +0.400 HD
ATOM     17  C   LIG    1       -0.760   2.611   4.702  0.00  0.00    +0.590 C 
ATOM     18  O   LIG    1       -1.681   2.965   5.413  0.00  0.00    -0.540 OA
BRANCH  17  19
ATOM     19  C   LIG    1       -1.013   2.237   3.304  0.00  0.00    -0.230 A 
ATOM     20  C   LIG    1       -0.089   1.824   2.390  0.00  0.00    +0.280 A 
ATOM     21  N   LIG    1       -0.698   1.569   1.207  0.00  0.00    -0.470 N 
ATOM     22  C   LIG    1       -2.053   1.812   1.300  0.00  0.00    +0.080 A 
ATOM     23  C   LIG    1       -3.104   1.703   0.395  0.00  0.00    -0.010 A 
ATOM     24  C   LIG    1       -4.386   2.018   0.790  0.00  0.00    +0.030 A 
ATOM     25  C   LIG    1       -4.643   2.440   2.086  0.00  0.00    -0.010 A 
ATOM     26  C   LIG    1       -3.615   2.550   2.998  0.00  0.00    +0.070 A 
ATOM     27  C   LIG    1       -0.013   1.106  -0.003  0.00  0.00    +0.330 C 
ATOM     28  C   LIG    1       -2.315   2.235   2.613  0.00  0.00    -0.060 A 
ENDBRANCH  17  19
ENDBRANCH   1  15
TORSDOF 5
