REMARK  Name = ZINCpe000000Y8nK.0
REMARK                            x       y       z     vdW  Elec       q    Type
REMARK                         _______ _______ _______ _____ _____    ______ ____
ROOT
ATOM      1  C   LIG    1       -3.538   2.545  -0.467  0.00  0.00    +0.010 C 
ATOM      2  C   LIG    1       -2.821   3.797   0.090  0.00  0.00    +0.100 C 
ATOM      3  C   LIG    1       -1.361   3.402   0.130  0.00  0.00    +0.520 C 
ATOM      4  N   LIG    1       -1.239   2.068   0.019  0.00  0.00    -0.560 N 
ATOM      5  O   LIG    1       -0.434   4.177   0.241  0.00  0.00    -0.500 OA
ATOM      6  C   LIG    1       -2.552   1.420  -0.084  0.00  0.00    +0.310 C 
ENDROOT
BRANCH   4   7
ATOM      7  C   LIG    1       -0.017   1.384   0.010  0.00  0.00    +0.170 A 
ATOM      8  C   LIG    1        0.002  -0.004   0.019  0.00  0.00    -0.010 A 
ATOM      9  C   LIG    1        1.208  -0.679   0.005  0.00  0.00    +0.060 A 
ATOM     10  C   LIG    1        2.401   0.026  -0.019  0.00  0.00    +0.030 A 
ATOM     11  O   LIG    1        3.579  -0.657  -0.029  0.00  0.00    -0.310 OA
ATOM     12  C   LIG    1        4.744   0.074  -0.428  0.00  0.00    +0.220 C 
ATOM     13  C   LIG    1        4.739   1.422   0.305  0.00  0.00    +0.220 C 
ATOM     14  O   LIG    1        3.547   2.126  -0.058  0.00  0.00    -0.300 OA
ATOM     15  C   LIG    1        2.385   1.416  -0.030  0.00  0.00    +0.080 A 
ATOM     16  C   LIG    1        1.176   2.093  -0.015  0.00  0.00    +0.020 A 
ENDBRANCH   4   7
BRANCH   1  19
ATOM     17  N   LIG    1       -5.871   3.225  -0.004  0.00  0.00    -0.630 N 
ATOM     18  H   LIG    1       -5.731   3.988  -0.586  0.00  0.00    +0.430 HD
ATOM     19  C   LIG    1       -4.872   2.345   0.205  0.00  0.00    +0.520 C 
ATOM     20  O   LIG    1       -5.047   1.391   0.934  0.00  0.00    -0.480 OA
BRANCH  17  27
ATOM     21  C   LIG    1       -8.335   5.115  -0.324  0.00  0.00    +0.170 C 
ATOM     22  C   LIG    1       -8.239   3.860   0.505  0.00  0.00    -0.030 A 
ATOM     23  N   LIG    1       -9.195   3.350   1.240  0.00  0.00    -0.220 NA
ATOM     24  N   LIG    1       -8.777   2.277   1.814  0.00  0.00    -0.320 N 
ATOM     25  H   LIG    1       -9.296   1.715   2.410  0.00  0.00    +0.470 HD
ATOM     26  N   LIG    1       -7.447   2.053   1.430  0.00  0.00    -0.260 NA
ATOM     27  C   LIG    1       -7.112   3.039   0.622  0.00  0.00    +0.270 A 
ENDBRANCH  17  27
ENDBRANCH   1  19
TORSDOF 3
