REMARK  Name = ZINCrH00000No4NC.0
REMARK                            x       y       z     vdW  Elec       q    Type
REMARK                         _______ _______ _______ _____ _____    ______ ____
ROOT
ATOM      1  S   LIG    1        3.286   7.716  -0.312  0.00  0.00    +0.130 S 
ENDROOT
BRANCH   1   2
ATOM      2  C   LIG    1        4.881   8.453  -0.450  0.00  0.00    +0.020 A 
ATOM      3  N   LIG    1        6.022   7.841  -0.471  0.00  0.00    -0.250 NA
ATOM      4  N   LIG    1        7.172   8.590  -0.585  0.00  0.00    -0.450 N 
ATOM      5  C   LIG    1        7.005   9.942  -0.668  0.00  0.00    +0.330 A 
ATOM      6  N   LIG    1        7.935  10.860  -0.781  0.00  0.00    -0.520 NA
ATOM      7  C   LIG    1        8.499   7.971  -0.617  0.00  0.00    +0.360 C 
ATOM      8  S   LIG    1        5.249  10.180  -0.595  0.00  0.00    +0.120 S 
BRANCH   6   9
ATOM      9  C   LIG    1        9.349  10.481  -0.718  0.00  0.00    +0.230 C 
BRANCH   9  10
ATOM     10  C   LIG    1       10.203  11.722  -0.746  0.00  0.00    -0.070 A 
ATOM     11  C   LIG    1       10.639  12.234  -1.954  0.00  0.00    +0.020 A 
ATOM     12  C   LIG    1       11.418  13.376  -1.981  0.00  0.00    +0.000 A 
ATOM     13  C   LIG    1       11.771  13.999  -0.799  0.00  0.00    +0.000 A 
ATOM     14  C   LIG    1       11.340  13.484   0.409  0.00  0.00    +0.000 A 
ATOM     15  C   LIG    1       10.556  12.346   0.436  0.00  0.00    +0.020 A 
ENDBRANCH   9  10
ENDBRANCH   6   9
ENDBRANCH   1   2
BRANCH   1  16
ATOM     16  C   LIG    1        3.662   5.944  -0.213  0.00  0.00    +0.100 C 
BRANCH  16  19
ATOM     17  N   LIG    1        2.412   3.821   0.000  0.00  0.00    -0.660 N 
ATOM     18  H   LIG    1        3.263   3.360   0.067  0.00  0.00    +0.420 HD
ATOM     19  C   LIG    1        2.378   5.165  -0.089  0.00  0.00    +0.540 C 
ATOM     20  O   LIG    1        1.314   5.747  -0.070  0.00  0.00    -0.490 OA
BRANCH  17  28
ATOM     21  C   LIG    1        2.409   1.252   1.223  0.00  0.00    +0.090 C 
ATOM     22  C   LIG    1        1.173   1.830   0.583  0.00  0.00    -0.120 A 
ATOM     23  C   LIG    1       -0.005   1.109   0.579  0.00  0.00    +0.070 A 
ATOM     24  C   LIG    1       -1.138   1.636  -0.013  0.00  0.00    -0.030 A 
ATOM     25  C   LIG    1       -1.098   2.893  -0.594  0.00  0.00    +0.120 A 
ATOM     26  C   LIG    1        0.079   3.619  -0.592  0.00  0.00    +0.000 A 
ATOM     27  F   LIG    1       -2.208   3.408  -1.167  0.00  0.00    -0.130 F 
ATOM     28  C   LIG    1        1.219   3.089  -0.003  0.00  0.00    +0.170 A 
ENDBRANCH  17  28
ENDBRANCH  16  19
ENDBRANCH   1  16
TORSDOF 6
