REMARK  Name = ZINCqH0000004Ivl.0
REMARK                            x       y       z     vdW  Elec       q    Type
REMARK                         _______ _______ _______ _____ _____    ______ ____
ROOT
ATOM      1  C   LIG    1        3.562   0.534  -0.029  0.00  0.00    +0.450 C 
ATOM      2  O   LIG    1        4.217   1.556  -0.030  0.00  0.00    -0.450 OA
ENDROOT
BRANCH   1   8
ATOM      3  C   LIG    1       -1.046   2.312   0.030  0.00  0.00    -0.080 A 
ATOM      4  C   LIG    1       -0.017   1.376   0.010  0.00  0.00    +0.080 A 
ATOM      5  N   LIG    1        0.002  -0.004   0.002  0.00  0.00    -0.560 N 
ATOM      6  H   LIG    1       -0.788  -0.566   0.007  0.00  0.00    +0.420 HD
ATOM      7  C   LIG    1        1.268  -0.463  -0.013  0.00  0.00    +0.340 A 
ATOM      8  C   LIG    1        2.146   0.600  -0.015  0.00  0.00    -0.270 A 
ATOM      9  C   LIG    1        1.315   1.820  -0.001  0.00  0.00    -0.050 A 
ATOM     10  C   LIG    1        1.598   3.182   0.004  0.00  0.00    +0.050 A 
ATOM     11  C   LIG    1        0.565   4.094   0.019  0.00  0.00    +0.000 A 
ATOM     12  C   LIG    1       -0.752   3.658   0.029  0.00  0.00    +0.030 A 
BRANCH   3  14
ATOM     13  C   LIG    1       -2.908   1.570   1.489  0.00  0.00    +0.020 C 
ATOM     14  C   LIG    1       -2.481   1.853   0.048  0.00  0.00    +0.050 C 
ENDBRANCH   3  14
ENDBRANCH   1   8
BRANCH   1  15
ATOM     15  C   LIG    1        4.254  -0.804  -0.042  0.00  0.00    +0.080 C 
BRANCH  15  16
ATOM     16  S   LIG    1        6.051  -0.556  -0.058  0.00  0.00    +0.070 S 
BRANCH  16  17
ATOM     17  C   LIG    1        6.679  -2.202  -0.072  0.00  0.00    +0.120 A 
ATOM     18  N   LIG    1        5.969  -3.307  -0.071  0.00  0.00    -0.240 NA
ATOM     19  N   LIG    1        6.742  -4.335  -0.084  0.00  0.00    -0.260 NA
ATOM     20  C   LIG    1        8.003  -3.946  -0.093  0.00  0.00    +0.370 A 
ATOM     21  N   LIG    1        9.168  -4.611  -0.107  0.00  0.00    -0.440 NA
ATOM     22  C   LIG    1       10.309  -3.965  -0.131  0.00  0.00    +0.220 A 
ATOM     23  C   LIG    1       10.336  -2.561  -0.127  0.00  0.00    -0.030 A 
ATOM     24  C   LIG    1        9.169  -1.873  -0.107  0.00  0.00    +0.160 A 
ATOM     25  C   LIG    1        9.170  -0.366  -0.102  0.00  0.00    +0.170 C 
ATOM     26  C   LIG    1       11.603  -4.737  -0.152  0.00  0.00    +0.170 C 
ATOM     27  N   LIG    1        7.993  -2.567  -0.092  0.00  0.00    -0.420 N 
ENDBRANCH  16  17
ENDBRANCH  15  16
ENDBRANCH   1  15
TORSDOF 5
