REMARK  Name = ZINCc70000001ExW.0
REMARK                            x       y       z     vdW  Elec       q    Type
REMARK                         _______ _______ _______ _____ _____    ______ ____
ROOT
ATOM      1  C   LIG    1       -2.209   1.408  -1.767  0.00  0.00    +0.170 A 
ATOM      2  N   LIG    1       -2.585   2.016  -2.863  0.00  0.00    -0.280 NA
ATOM      3  N   LIG    1       -1.582   2.924  -3.226  0.00  0.00    -0.460 N 
ATOM      4  H   LIG    1       -1.596   3.510  -3.998  0.00  0.00    +0.450 HD
ATOM      5  C   LIG    1       -0.597   2.843  -2.308  0.00  0.00    +0.390 A 
ATOM      6  C   LIG    1       -0.957   1.909  -1.397  0.00  0.00    -0.820 A 
ENDROOT
BRANCH   1   8
ATOM      7  C   LIG    1       -4.338   0.928  -0.589  0.00  0.00    +0.050 C 
ATOM      8  C   LIG    1       -2.991   0.352  -1.030  0.00  0.00    +0.060 C 
ATOM      9  C   LIG    1       -3.226  -0.846  -1.952  0.00  0.00    +0.050 C 
ENDBRANCH   1   8
BRANCH   6  10
ATOM     10  S   LIG    1       -0.017   1.417   0.010  0.00  0.00    +2.730 S 
ATOM     11  O   LIG    1        1.162   2.210   0.003  0.00  0.00    -0.970 OA
ATOM     12  O   LIG    1        0.002  -0.004   0.002  0.00  0.00    -0.960 OA
BRANCH  10  13
ATOM     13  N   LIG    1       -0.875   1.865   1.354  0.00  0.00    -1.250 NA
ATOM     14  H   LIG    1       -1.730   2.313   1.256  0.00  0.00    +0.420 HD
ATOM     15  H   LIG    1       -0.522   1.680   2.238  0.00  0.00    +0.420 HD
ENDBRANCH  10  13
ENDBRANCH   6  10
TORSDOF 3
