REMARK  Name = ZINCpe00000bcT88.0
REMARK                            x       y       z     vdW  Elec       q    Type
REMARK                         _______ _______ _______ _____ _____    ______ ____
ROOT
ATOM      1  C   LIG    1       -2.732  -0.483  -0.647  0.00  0.00    +0.520 C 
ATOM      2  N   LIG    1       -3.175   0.153  -1.749  0.00  0.00    -0.600 N 
ATOM      3  C   LIG    1       -4.553  -0.011  -2.222  0.00  0.00    +0.340 C 
ATOM      4  C   LIG    1       -5.124   1.333  -2.598  0.00  0.00    -0.100 A 
ATOM      5  C   LIG    1       -6.489   1.414  -2.835  0.00  0.00    +0.020 A 
ATOM      6  C   LIG    1       -7.069   2.614  -3.193  0.00  0.00    +0.010 A 
ATOM      7  C   LIG    1       -6.283   3.744  -3.317  0.00  0.00    +0.020 A 
ATOM      8  C   LIG    1       -4.926   3.666  -3.078  0.00  0.00    +0.000 A 
ATOM      9  C   LIG    1       -4.341   2.461  -2.712  0.00  0.00    -0.070 A 
ATOM     10  C   LIG    1       -2.860   2.457  -2.440  0.00  0.00    +0.090 C 
ATOM     11  C   LIG    1       -2.296   1.045  -2.523  0.00  0.00    +0.240 C 
ATOM     12  O   LIG    1       -1.633  -0.229  -0.200  0.00  0.00    -0.500 OA
ENDROOT
BRANCH   1  17
ATOM     13  C   LIG    1       -4.074  -5.442   1.115  0.00  0.00    +0.550 C 
ATOM     14  N   LIG    1       -4.233  -4.118   0.921  0.00  0.00    -0.610 N 
ATOM     15  C   LIG    1       -4.907  -3.614  -0.284  0.00  0.00    +0.280 C 
ATOM     16  C   LIG    1       -3.993  -2.594  -0.970  0.00  0.00    +0.030 C 
ATOM     17  C   LIG    1       -3.604  -1.507   0.034  0.00  0.00    +0.000 C 
ATOM     18  C   LIG    1       -2.836  -2.136   1.199  0.00  0.00    +0.050 C 
ATOM     19  C   LIG    1       -3.737  -3.151   1.910  0.00  0.00    +0.270 C 
ATOM     20  O   LIG    1       -4.401  -6.228   0.246  0.00  0.00    -0.540 OA
BRANCH  13  22
ATOM     21  C   LIG    1       -3.431  -7.244   2.607  0.00  0.00    +0.140 C 
ATOM     22  C   LIG    1       -3.503  -5.936   2.377  0.00  0.00    -0.090 C 
ENDBRANCH  13  22
ENDBRANCH   1  17
BRANCH  11  23
ATOM     23  C   LIG    1       -0.905   1.020  -1.943  0.00  0.00    +0.540 C 
ATOM     24  O   LIG    1       -0.221   0.025  -2.050  0.00  0.00    -0.530 OA
ATOM     25  N   LIG    1       -0.422   2.104  -1.305  0.00  0.00    -0.850 N 
ATOM     26  H   LIG    1        0.473   2.088  -0.931  0.00  0.00    +0.400 HD
ATOM     27  H   LIG    1       -0.969   2.901  -1.219  0.00  0.00    +0.400 HD
ENDBRANCH  11  23
TORSDOF 3
