REMARK  Name = ZINCrH000004nWUu.0
REMARK                            x       y       z     vdW  Elec       q    Type
REMARK                         _______ _______ _______ _____ _____    ______ ____
ROOT
ATOM      1  C   LIG    1        4.272   0.080   1.810  0.00  0.00    +0.180 C 
ENDROOT
BRANCH   1   2
ATOM      2  N   LIG    1        4.380   0.388   0.378  0.00  0.00    -0.520 NA
ATOM      3  C   LIG    1        3.981  -0.766  -0.441  0.00  0.00    +0.230 C 
ATOM      4  C   LIG    1        2.599  -1.250   0.016  0.00  0.00    +0.080 C 
ATOM      5  C   LIG    1        1.683  -0.048   0.099  0.00  0.00    -0.180 A 
ATOM      6  C   LIG    1        2.116   1.229   0.107  0.00  0.00    -0.140 A 
ATOM      7  C   LIG    1        1.091   2.165   0.187  0.00  0.00    +0.020 A 
ATOM      8  C   LIG    1       -0.141   1.666   0.243  0.00  0.00    -0.040 A 
ATOM      9  S   LIG    1       -0.070  -0.089   0.195  0.00  0.00    +0.100 S 
ATOM     10  C   LIG    1        3.595   1.582   0.035  0.00  0.00    +0.310 C 
ENDBRANCH   1   2
BRANCH   1  14
ATOM     11  C   LIG    1        6.567  -3.416   2.693  0.00  0.00    -0.080 A 
ATOM     12  C   LIG    1        5.328  -3.226   3.293  0.00  0.00    +0.030 A 
ATOM     13  C   LIG    1        4.589  -2.095   3.006  0.00  0.00    +0.010 A 
ATOM     14  C   LIG    1        5.081  -1.152   2.121  0.00  0.00    -0.090 A 
ATOM     15  C   LIG    1        6.311  -1.341   1.518  0.00  0.00    +0.070 A 
ATOM     16  C   LIG    1        7.058  -2.466   1.805  0.00  0.00    +0.000 A 
BRANCH  11  18
ATOM     17  C   LIG    1        9.003  -4.633   2.047  0.00  0.00    +0.140 C 
ATOM     18  S   LIG    1        7.512  -4.857   3.056  0.00  0.00    -0.120 S 
ENDBRANCH  11  18
ENDBRANCH   1  14
BRANCH   1  19
ATOM     19  C   LIG    1        4.804   1.260   2.626  0.00  0.00    +0.290 C 
BRANCH  19  20
ATOM     20  N   LIG    1        4.623   0.987   4.054  0.00  0.00    -0.720 N 
ATOM     21  H   LIG    1        4.282   0.126   4.344  0.00  0.00    +0.390 HD
ATOM     22  C   LIG    1        4.932   1.931   4.965  0.00  0.00    +0.590 C 
ATOM     23  O   LIG    1        5.445   2.975   4.609  0.00  0.00    -0.510 OA
BRANCH  22  24
ATOM     24  C   LIG    1        4.648   1.699   6.390  0.00  0.00    -0.040 A 
ATOM     25  C   LIG    1        4.814   2.600   7.428  0.00  0.00    +0.020 A 
ATOM     26  C   LIG    1        4.412   1.917   8.578  0.00  0.00    +0.190 A 
ATOM     27  N   LIG    1        4.044   0.713   8.223  0.00  0.00    -0.270 NA
ATOM     28  N   LIG    1        4.162   0.553   6.954  0.00  0.00    -0.380 N 
ATOM     29  H   LIG    1        3.944  -0.259   6.470  0.00  0.00    +0.440 HD
ENDBRANCH  22  24
ENDBRANCH  19  20
ENDBRANCH   1  19
TORSDOF 6
