REMARK  Name = ZINCkj000005knOg.0
REMARK                            x       y       z     vdW  Elec       q    Type
REMARK                         _______ _______ _______ _____ _____    ______ ____
ROOT
ATOM      1  N   LIG    1       -2.829   0.689  -1.414  0.00  0.00    -1.110 NA
ATOM      2  H   LIG    1       -3.523   0.908  -2.055  0.00  0.00    +0.430 HD
ENDROOT
BRANCH   1   3
ATOM      3  S   LIG    1       -2.743   1.506   0.024  0.00  0.00    +2.690 S 
ATOM      4  O   LIG    1       -3.785   2.472  -0.001  0.00  0.00    -0.940 OA
ATOM      5  O   LIG    1       -2.621   0.520   1.040  0.00  0.00    -0.930 OA
BRANCH   3  11
ATOM      6  C   LIG    1       -0.079   6.003   0.033  0.00  0.00    +0.120 C 
ATOM      7  C   LIG    1       -0.059   4.497   0.026  0.00  0.00    -0.090 A 
ATOM      8  C   LIG    1        1.147   3.822   0.011  0.00  0.00    +0.100 A 
ATOM      9  C   LIG    1        1.167   2.440   0.004  0.00  0.00    +0.030 A 
ATOM     10  C   LIG    1       -0.021   1.732   0.012  0.00  0.00    +0.040 A 
ATOM     11  C   LIG    1       -1.229   2.408   0.021  0.00  0.00    -0.670 A 
ATOM     12 CL   LIG    1        0.002  -0.004   0.002  0.00  0.00    -0.060 Cl
ATOM     13  C   LIG    1       -1.247   3.789   0.033  0.00  0.00    +0.150 A 
ENDBRANCH   3  11
ENDBRANCH   1   3
BRANCH   1  14
ATOM     14  C   LIG    1       -1.859  -0.366  -1.716  0.00  0.00    +0.320 C 
BRANCH  14  15
ATOM     15  C   LIG    1       -2.363  -1.201  -2.894  0.00  0.00    +0.160 C 
ATOM     16  C   LIG    1       -1.413  -2.399  -3.104  0.00  0.00    +0.240 C 
ATOM     17  N   LIG    1       -2.095  -3.402  -3.895  0.00  0.00    -0.510 N 
ATOM     18  C   LIG    1       -1.803  -3.281  -5.341  0.00  0.00    +0.270 C 
ATOM     19  C   LIG    1       -1.799  -1.823  -5.816  0.00  0.00    +0.040 C 
ATOM     20  C   LIG    1       -2.926  -1.022  -5.208  0.00  0.00    +0.240 C 
ATOM     21  H   LIG    1       -1.807  -4.316  -3.579  0.00  0.00    +0.440 HD
ATOM     22  H   LIG    1       -3.090  -3.308  -3.755  0.00  0.00    +0.420 HD
ATOM     23  O   LIG    1       -2.432  -0.410  -4.001  0.00  0.00    -0.350 OA
ENDBRANCH  14  15
ENDBRANCH   1  14
TORSDOF 4
