REMARK  Name = ZINCrD00000742XF.0
REMARK                            x       y       z     vdW  Elec       q    Type
REMARK                         _______ _______ _______ _____ _____    ______ ____
ROOT
ATOM      1  O   LIG    1       -1.887   6.271   0.045  0.00  0.00    -0.320 OA
ENDROOT
BRANCH   1   2
ATOM      2  C   LIG    1       -2.102   4.946   0.039  0.00  0.00    +0.480 C 
ATOM      3  O   LIG    1       -3.232   4.517   0.042  0.00  0.00    -0.490 OA
BRANCH   2   4
ATOM      4  C   LIG    1       -0.935   3.993   0.028  0.00  0.00    +0.150 C 
BRANCH   4   5
ATOM      5  S   LIG    1       -1.547   2.289   0.022  0.00  0.00    +0.060 S 
BRANCH   5   6
ATOM      6  C   LIG    1       -0.017   1.415   0.010  0.00  0.00    +0.200 A 
ATOM      7  C   LIG    1        0.002  -0.004   0.002  0.00  0.00    -0.160 A 
ATOM      8  C   LIG    1       -1.089  -0.960   0.007  0.00  0.00    +0.060 A 
ATOM      9  C   LIG    1       -0.716  -2.225  -0.004  0.00  0.00    -0.010 A 
ATOM     10  S   LIG    1        1.031  -2.377  -0.021  0.00  0.00    +0.180 S 
ATOM     11  C   LIG    1        1.250  -0.633  -0.013  0.00  0.00    +0.100 A 
ATOM     12  N   LIG    1        2.358   0.118  -0.020  0.00  0.00    -0.490 NA
ATOM     13  C   LIG    1        2.288   1.429  -0.013  0.00  0.00    +0.540 A 
ATOM     14  N   LIG    1        1.134   2.072   0.002  0.00  0.00    -0.530 NA
ENDBRANCH   5   6
ENDBRANCH   4   5
ENDBRANCH   2   4
ENDBRANCH   1   2
BRANCH   1  15
ATOM     15  C   LIG    1       -3.058   7.129   0.055  0.00  0.00    +0.270 C 
BRANCH  15  26
ATOM     16  C   LIG    1       -2.452  11.359   1.331  0.00  0.00    +0.050 C 
ATOM     17  C   LIG    1       -3.248  10.988   0.077  0.00  0.00    +0.240 C 
ATOM     18  C   LIG    1       -4.618  11.686   0.087  0.00  0.00    +0.110 C 
ATOM     19  C   LIG    1       -5.621  10.555   0.085  0.00  0.00    -0.130 A 
ATOM     20  C   LIG    1       -7.003  10.569   0.091  0.00  0.00    +0.060 A 
ATOM     21  C   LIG    1       -7.709   9.380   0.087  0.00  0.00    -0.010 A 
ATOM     22  C   LIG    1       -7.030   8.176   0.077  0.00  0.00    +0.050 A 
ATOM     23  C   LIG    1       -5.651   8.157   0.072  0.00  0.00    -0.030 A 
ATOM     24  C   LIG    1       -4.931   9.353   0.070  0.00  0.00    +0.130 A 
ATOM     25  N   LIG    1       -3.547   9.554   0.071  0.00  0.00    -0.550 N 
ATOM     26  C   LIG    1       -2.624   8.572   0.061  0.00  0.00    +0.530 C 
ATOM     27  O   LIG    1       -1.443   8.850   0.057  0.00  0.00    -0.490 OA
ENDBRANCH  15  26
ENDBRANCH   1  15
TORSDOF 6
