REMARK  Name = ZINCqH00000078Mt.0
REMARK                            x       y       z     vdW  Elec       q    Type
REMARK                         _______ _______ _______ _____ _____    ______ ____
ROOT
ATOM      1  C   LIG    1        1.350   9.600   0.037  0.00  0.00    +0.510 C 
ATOM      2  N   LIG    1        1.672   8.291   0.028  0.00  0.00    -0.620 N 
ATOM      3  H   LIG    1        2.604   8.021   0.019  0.00  0.00    +0.430 HD
ATOM      4  O   LIG    1        0.185   9.938   0.050  0.00  0.00    -0.500 OA
ENDROOT
BRANCH   2   5
ATOM      5  C   LIG    1        0.670   7.329   0.033  0.00  0.00    +0.270 A 
ATOM      6  N   LIG    1        0.862   6.048   0.030  0.00  0.00    -0.500 NA
ATOM      7  C   LIG    1       -0.216   5.276   0.031  0.00  0.00    +0.120 A 
ATOM      8  C   LIG    1       -1.393   5.931   0.045  0.00  0.00    -0.060 A 
ATOM      9  S   LIG    1       -1.060   7.661   0.051  0.00  0.00    +0.210 S 
BRANCH   7  10
ATOM     10  C   LIG    1       -0.133   3.797   0.023  0.00  0.00    +0.190 A 
ATOM     11  C   LIG    1        1.115   3.175   0.008  0.00  0.00    +0.000 A 
ATOM     12  C   LIG    1        1.176   1.792   0.001  0.00  0.00    +0.060 A 
ATOM     13  C   LIG    1       -0.013   1.076   0.008  0.00  0.00    -0.030 A 
ATOM     14  C   LIG    1       -1.215   1.757   0.017  0.00  0.00    +0.260 A 
ATOM     15  N   LIG    1       -1.247   3.074   0.030  0.00  0.00    -0.480 NA
ENDBRANCH   7  10
ENDBRANCH   2   5
BRANCH   1  16
ATOM     16  C   LIG    1        2.437  10.644   0.033  0.00  0.00    +0.090 C 
BRANCH  16  17
ATOM     17  C   LIG    1        1.806  12.038   0.045  0.00  0.00    +0.110 C 
BRANCH  17  21
ATOM     18  C   LIG    1        4.889  15.000   0.037  0.00  0.00    +0.100 A 
ATOM     19  C   LIG    1        4.397  14.512   1.236  0.00  0.00    -0.030 A 
ATOM     20  C   LIG    1        3.397  13.557   1.235  0.00  0.00    +0.020 A 
ATOM     21  C   LIG    1        2.892  13.081   0.040  0.00  0.00    -0.080 A 
ATOM     22  C   LIG    1        3.379  13.565  -1.161  0.00  0.00    -0.030 A 
ATOM     23  C   LIG    1        4.378  14.525  -1.167  0.00  0.00    +0.100 A 
BRANCH  18  25
ATOM     24  C   LIG    1        6.347  16.384   1.309  0.00  0.00    +0.250 C 
ATOM     25  O   LIG    1        5.870  15.943   0.036  0.00  0.00    -0.310 OA
ENDBRANCH  18  25
BRANCH  23  26
ATOM     26  O   LIG    1        4.858  15.001  -2.347  0.00  0.00    -0.310 OA
ATOM     27  C   LIG    1        4.287  14.467  -3.543  0.00  0.00    +0.240 C 
ENDBRANCH  23  26
ENDBRANCH  17  21
ENDBRANCH  16  17
ENDBRANCH   1  16
TORSDOF 7
