REMARK  Name = ZINCpe000000Z52d.0
REMARK                            x       y       z     vdW  Elec       q    Type
REMARK                         _______ _______ _______ _____ _____    ______ ____
ROOT
ATOM      1  C   LIG    1       -0.844   1.531  -1.171  0.00  0.00    +0.200 C 
ATOM      2  C   LIG    1        0.093   1.874  -0.011  0.00  0.00    +0.250 C 
ATOM      3  O   LIG    1       -0.675   2.463   1.045  0.00  0.00    -0.360 OA
ATOM      4  C   LIG    1       -1.193   3.752   0.707  0.00  0.00    +0.290 C 
ATOM      5  C   LIG    1       -1.871   3.696  -0.634  0.00  0.00    +0.490 C 
ATOM      6  O   LIG    1       -2.611   4.602  -0.953  0.00  0.00    -0.530 OA
ATOM      7  N   LIG    1       -1.686   2.682  -1.488  0.00  0.00    -0.580 N 
ENDROOT
BRANCH   1   9
ATOM      8  O   LIG    1        0.323   2.021  -3.163  0.00  0.00    -0.510 OA
ATOM      9  C   LIG    1       -0.027   1.162  -2.382  0.00  0.00    +0.510 C 
ATOM     10  N   LIG    1        0.316  -0.124  -2.598  0.00  0.00    -0.720 N 
ATOM     11  H   LIG    1        0.036  -0.811  -1.973  0.00  0.00    +0.410 HD
BRANCH  10  12
ATOM     12  C   LIG    1        1.110  -0.483  -3.775  0.00  0.00    +0.280 C 
BRANCH  12  13
ATOM     13  C   LIG    1        1.359  -1.992  -3.782  0.00  0.00    +0.010 C 
BRANCH  13  14
ATOM     14  C   LIG    1        2.188  -2.367  -5.012  0.00  0.00    +0.310 C 
BRANCH  14  15
ATOM     15  N   LIG    1        2.426  -3.813  -5.018  0.00  0.00    -0.460 N 
ATOM     16  C   LIG    1        3.486  -4.464  -4.448  0.00  0.00    +0.110 A 
ATOM     17  C   LIG    1        3.310  -5.778  -4.686  0.00  0.00    +0.140 A 
ATOM     18  N   LIG    1        2.178  -5.924  -5.391  0.00  0.00    -0.490 NA
ATOM     19  C   LIG    1        1.643  -4.751  -5.593  0.00  0.00    +0.380 A 
ENDBRANCH  14  15
ENDBRANCH  13  14
ENDBRANCH  12  13
ENDBRANCH  10  12
ENDBRANCH   1   9
BRANCH   7  20
ATOM     20  C   LIG    1       -2.353   2.728  -2.792  0.00  0.00    +0.340 C 
BRANCH  20  21
ATOM     21  C   LIG    1       -3.703   2.067  -2.689  0.00  0.00    -0.110 A 
ATOM     22  C   LIG    1       -3.829   0.713  -2.937  0.00  0.00    +0.000 A 
ATOM     23  C   LIG    1       -5.067   0.105  -2.839  0.00  0.00    +0.000 A 
ATOM     24  C   LIG    1       -6.179   0.852  -2.501  0.00  0.00    +0.010 A 
ATOM     25  C   LIG    1       -6.054   2.207  -2.258  0.00  0.00    +0.000 A 
ATOM     26  C   LIG    1       -4.815   2.814  -2.352  0.00  0.00    +0.040 A 
ENDBRANCH  20  21
ENDBRANCH   7  20
TORSDOF 7
