REMARK  Name = ZINCpk00000KfKug.0
REMARK                            x       y       z     vdW  Elec       q    Type
REMARK                         _______ _______ _______ _____ _____    ______ ____
ROOT
ATOM      1  O   LIG    1       -2.962   2.906  -5.804  0.00  0.00    -0.580 OA
ATOM      2  C   LIG    1       -3.500   3.734  -5.094  0.00  0.00    +0.710 C 
ATOM      3  N   LIG    1       -4.829   3.938  -5.186  0.00  0.00    -0.600 N 
ATOM      4  N   LIG    1       -2.767   4.447  -4.216  0.00  0.00    -0.730 N 
ATOM      5  H   LIG    1       -3.182   5.158  -3.703  0.00  0.00    +0.400 HD
ENDROOT
BRANCH   4   6
ATOM      6  C   LIG    1       -1.344   4.150  -4.038  0.00  0.00    +0.340 C 
ATOM      7  C   LIG    1       -0.620   5.389  -3.498  0.00  0.00    +0.020 C 
ATOM      8  C   LIG    1        0.800   5.006  -3.071  0.00  0.00    +0.040 C 
ATOM      9  C   LIG    1        0.740   4.135  -1.811  0.00  0.00    +0.110 C 
ATOM     10  C   LIG    1       -0.254   3.025  -2.047  0.00  0.00    +0.090 A 
ATOM     11  N   LIG    1       -0.398   1.882  -1.356  0.00  0.00    -0.360 N 
ATOM     12  N   LIG    1       -1.443   1.154  -1.944  0.00  0.00    -0.300 NA
ATOM     13  C   LIG    1       -1.913   1.849  -2.951  0.00  0.00    +0.260 A 
ATOM     14  C   LIG    1       -1.180   3.030  -3.040  0.00  0.00    -0.250 A 
BRANCH  11  15
ATOM     15  C   LIG    1        0.398   1.468  -0.198  0.00  0.00    +0.330 C 
BRANCH  15  16
ATOM     16  C   LIG    1       -0.265   1.974   1.084  0.00  0.00    +0.170 C 
BRANCH  16  17
ATOM     17  O   LIG    1        0.512   1.569   2.213  0.00  0.00    -0.570 OA
ATOM     18  H   LIG    1        0.150   1.857   3.063  0.00  0.00    +0.390 HD
ENDBRANCH  16  17
ENDBRANCH  15  16
ENDBRANCH  11  15
ENDBRANCH   4   6
BRANCH   3  19
ATOM     19  C   LIG    1       -5.460   5.011  -4.413  0.00  0.00    +0.170 C 
ATOM     20  C   LIG    1       -6.458   5.914  -5.142  0.00  0.00    +0.040 C 
ATOM     21  C   LIG    1       -5.076   6.451  -4.760  0.00  0.00    +0.030 C 
ENDBRANCH   3  19
BRANCH   3  22
ATOM     22  C   LIG    1       -5.643   3.087  -6.057  0.00  0.00    +0.310 C 
BRANCH  22  23
ATOM     23  C   LIG    1       -6.142   1.876  -5.266  0.00  0.00    -0.050 C 
ATOM     24  C   LIG    1       -6.939   0.919  -6.186  0.00  0.00    +0.010 C 
ATOM     25  C   LIG    1       -8.116   0.496  -5.267  0.00  0.00    +0.200 C 
ATOM     26  O   LIG    1       -8.417   1.698  -4.526  0.00  0.00    -0.380 OA
ATOM     27  C   LIG    1       -7.161   2.314  -4.196  0.00  0.00    +0.190 C 
ENDBRANCH  22  23
ENDBRANCH   3  22
TORSDOF 7
