REMARK  Name = ZINCrH000004jZfx.0
REMARK                            x       y       z     vdW  Elec       q    Type
REMARK                         _______ _______ _______ _____ _____    ______ ____
ROOT
ATOM      1  C   LIG    1        0.656  -3.740  -3.746  0.00  0.00    -0.140 A 
ATOM      2  C   LIG    1       -0.591  -3.345  -4.239  0.00  0.00    +0.100 A 
ATOM      3  C   LIG    1       -1.408  -2.541  -3.478  0.00  0.00    +0.000 A 
ATOM      4  C   LIG    1       -0.993  -2.121  -2.217  0.00  0.00    +0.170 A 
ATOM      5  C   LIG    1        0.250  -2.508  -1.724  0.00  0.00    +0.000 A 
ATOM      6  C   LIG    1        1.069  -3.317  -2.479  0.00  0.00    +0.070 A 
ENDROOT
BRANCH   1   9
ATOM      7  C   LIG    1        3.456  -3.580  -3.465  0.00  0.00    +0.290 C 
ATOM      8  N   LIG    1        2.873  -4.495  -4.450  0.00  0.00    -0.610 N 
ATOM      9  C   LIG    1        1.534  -4.602  -4.560  0.00  0.00    +0.560 C 
ATOM     10  O   LIG    1        1.050  -5.408  -5.330  0.00  0.00    -0.530 OA
BRANCH   8  11
ATOM     11  C   LIG    1        3.745  -5.293  -5.314  0.00  0.00    +0.340 C 
BRANCH  11  12
ATOM     12  C   LIG    1        4.040  -4.525  -6.577  0.00  0.00    -0.110 A 
ATOM     13  C   LIG    1        3.217  -4.663  -7.679  0.00  0.00    +0.030 A 
ATOM     14  C   LIG    1        3.486  -3.955  -8.835  0.00  0.00    +0.000 A 
ATOM     15  C   LIG    1        4.583  -3.116  -8.893  0.00  0.00    +0.000 A 
ATOM     16  C   LIG    1        5.409  -2.982  -7.793  0.00  0.00    +0.000 A 
ATOM     17  C   LIG    1        5.138  -3.687  -6.635  0.00  0.00    +0.010 A 
ENDBRANCH  11  12
ENDBRANCH   8  11
ENDBRANCH   1   9
BRANCH   4  18
ATOM     18  N   LIG    1       -1.821  -1.308  -1.450  0.00  0.00    -1.060 N 
ATOM     19  H   LIG    1       -2.257  -0.542  -1.853  0.00  0.00    +0.430 HD
BRANCH  18  20
ATOM     20  S   LIG    1       -2.061  -1.649   0.153  0.00  0.00    +2.690 S 
ATOM     21  O   LIG    1       -0.771  -1.784   0.733  0.00  0.00    -0.940 OA
ATOM     22  O   LIG    1       -3.030  -0.720   0.620  0.00  0.00    -0.950 OA
BRANCH  20  23
ATOM     23  C   LIG    1       -2.815  -3.240   0.240  0.00  0.00    -0.680 A 
ATOM     24  C   LIG    1       -2.030  -4.377   0.242  0.00  0.00    +0.120 A 
ATOM     25  C   LIG    1       -2.621  -5.625   0.311  0.00  0.00    -0.010 A 
ATOM     26  C   LIG    1       -3.997  -5.735   0.377  0.00  0.00    +0.070 A 
ATOM     27  C   LIG    1       -4.782  -4.597   0.376  0.00  0.00    +0.000 A 
ATOM     28  C   LIG    1       -4.191  -3.350   0.308  0.00  0.00    +0.120 A 
ENDBRANCH  20  23
ENDBRANCH  18  20
ENDBRANCH   4  18
TORSDOF 6
