REMARK  Name = ZINCqH0000037UC1.0
REMARK                            x       y       z     vdW  Elec       q    Type
REMARK                         _______ _______ _______ _____ _____    ______ ____
ROOT
ATOM      1  C   LIG    1       -2.615   9.674  -0.377  0.00  0.00    +0.110 C 
ATOM      2  C   LIG    1       -2.561   8.171  -0.277  0.00  0.00    -0.070 A 
ATOM      3  C   LIG    1       -1.343   7.527  -0.201  0.00  0.00    +0.020 A 
ATOM      4  C   LIG    1       -1.294   6.143  -0.108  0.00  0.00    +0.110 A 
ATOM      5  C   LIG    1       -2.469   5.406  -0.097  0.00  0.00    -0.050 A 
ATOM      6  C   LIG    1       -3.689   6.050  -0.167  0.00  0.00    +0.070 A 
ATOM      7  C   LIG    1       -3.738   7.434  -0.260  0.00  0.00    +0.130 A 
ENDROOT
BRANCH   7   8
ATOM      8  N   LIG    1       -4.976   8.087  -0.337  0.00  0.00    -0.680 N 
ATOM      9  H   LIG    1       -5.066   8.893  -0.870  0.00  0.00    +0.410 HD
ATOM     10  C   LIG    1       -6.040   7.596   0.328  0.00  0.00    +0.710 C 
ATOM     11  N   LIG    1       -7.208   8.267   0.320  0.00  0.00    -0.740 N 
ATOM     12  H   LIG    1       -7.283   9.104  -0.165  0.00  0.00    +0.400 HD
ATOM     13  O   LIG    1       -5.945   6.547   0.936  0.00  0.00    -0.570 OA
BRANCH  11  14
ATOM     14  C   LIG    1       -8.365   7.733   1.043  0.00  0.00    +0.420 C 
BRANCH  14  15
ATOM     15  C   LIG    1       -9.537   8.666   0.876  0.00  0.00    +0.180 A 
ATOM     16  N   LIG    1       -9.782   9.718   1.608  0.00  0.00    -0.470 NA
ATOM     17  C   LIG    1      -10.904  10.309   1.173  0.00  0.00    +0.150 A 
ATOM     18  C   LIG    1      -11.377   9.592   0.136  0.00  0.00    +0.140 A 
ATOM     19  N   LIG    1      -10.510   8.550  -0.053  0.00  0.00    -0.560 N 
ATOM     20  H   LIG    1      -10.581   7.856  -0.728  0.00  0.00    +0.420 HD
ENDBRANCH  14  15
ENDBRANCH  11  14
ENDBRANCH   7   8
BRANCH   4  21
ATOM     21  O   LIG    1       -0.093   5.509  -0.035  0.00  0.00    -0.260 OA
BRANCH  21  22
ATOM     22  C   LIG    1       -0.086   4.152  -0.067  0.00  0.00    +0.120 A 
ATOM     23  C   LIG    1       -0.472   3.485  -1.224  0.00  0.00    +0.000 A 
ATOM     24  C   LIG    1       -0.466   2.108  -1.262  0.00  0.00    +0.090 A 
ATOM     25  C   LIG    1       -0.071   1.382  -0.135  0.00  0.00    -0.030 A 
ATOM     26  C   LIG    1        0.311   2.057   1.028  0.00  0.00    +0.090 A 
ATOM     27  C   LIG    1        0.307   3.434   1.056  0.00  0.00    +0.030 A 
BRANCH  25  28
ATOM     28  C   LIG    1       -0.063  -0.050  -0.169  0.00  0.00    +0.250 C 
ATOM     29  N   LIG    1       -0.057  -1.185  -0.197  0.00  0.00    -0.410 NA
ENDBRANCH  25  28
ENDBRANCH  21  22
ENDBRANCH   4  21
TORSDOF 6
