REMARK  Name = ZINCtV00000L6jiP.0
REMARK                            x       y       z     vdW  Elec       q    Type
REMARK                         _______ _______ _______ _____ _____    ______ ____
ROOT
ATOM      1  P   LIG    1       -5.292   3.127   6.507  0.00  0.00    +2.580 P 
ATOM      2  O   LIG    1       -4.388   2.008   6.854  0.00  0.00    -1.040 OA
ENDROOT
BRANCH   1   3
ATOM      3  C   LIG    1       -4.313   4.534   5.915  0.00  0.00    -0.760 A 
ATOM      4  C   LIG    1       -4.890   5.478   5.085  0.00  0.00    +0.070 A 
ATOM      5  C   LIG    1       -4.145   6.553   4.637  0.00  0.00    -0.010 A 
ATOM      6  C   LIG    1       -2.821   6.679   5.012  0.00  0.00    +0.050 A 
ATOM      7  C   LIG    1       -2.242   5.733   5.837  0.00  0.00    +0.000 A 
ATOM      8  C   LIG    1       -2.988   4.660   6.288  0.00  0.00    +0.100 A 
ENDBRANCH   1   3
BRANCH   1   9
ATOM      9  N   LIG    1       -6.328   2.647   5.329  0.00  0.00    -1.110 N 
ATOM     10  H   LIG    1       -7.285   2.739   5.458  0.00  0.00    +0.420 HD
BRANCH   9  14
ATOM     11  C   LIG    1       -4.847   1.034   1.782  0.00  0.00    +0.100 A 
ATOM     12  C   LIG    1       -3.972   1.532   2.735  0.00  0.00    -0.030 A 
ATOM     13  C   LIG    1       -4.462   2.072   3.908  0.00  0.00    -0.010 A 
ATOM     14  C   LIG    1       -5.831   2.106   4.138  0.00  0.00    +0.150 A 
ATOM     15  C   LIG    1       -6.706   1.602   3.185  0.00  0.00    +0.010 A 
ATOM     16  C   LIG    1       -6.215   1.068   2.010  0.00  0.00    +0.020 A 
BRANCH  11  17
ATOM     17  O   LIG    1       -4.364   0.507   0.625  0.00  0.00    -0.320 OA
BRANCH  17  19
ATOM     18  C   LIG    1       -2.594  -0.122  -0.895  0.00  0.00    +0.070 C 
ATOM     19  C   LIG    1       -2.945   0.505   0.456  0.00  0.00    +0.170 C 
ENDBRANCH  17  19
ENDBRANCH  11  17
ENDBRANCH   9  14
ENDBRANCH   1   9
BRANCH   1  20
ATOM     20  O   LIG    1       -6.128   3.565   7.811  0.00  0.00    -0.750 OA
BRANCH  20  21
ATOM     21  C   LIG    1       -5.509   3.925   9.047  0.00  0.00    +0.230 C 
ATOM     22  C   LIG    1       -5.674   2.783  10.051  0.00  0.00    +0.020 C 
ATOM     23  C   LIG    1       -7.163   2.518  10.284  0.00  0.00    -0.010 C 
ATOM     24  C   LIG    1       -7.825   3.782  10.837  0.00  0.00    +0.000 C 
ATOM     25  C   LIG    1       -7.660   4.925   9.833  0.00  0.00    +0.030 C 
ATOM     26  C   LIG    1       -7.328   1.376  11.288  0.00  0.00    +0.010 C 
ATOM     27  C   LIG    1       -6.171   5.189   9.600  0.00  0.00    +0.000 C 
BRANCH  27  28
ATOM     28  C   LIG    1       -6.007   6.332   8.596  0.00  0.00    -0.020 C 
ATOM     29  C   LIG    1       -4.525   6.692   8.472  0.00  0.00    +0.000 C 
ATOM     30  C   LIG    1       -6.790   7.553   9.081  0.00  0.00    +0.020 C 
ENDBRANCH  27  28
ENDBRANCH  20  21
ENDBRANCH   1  20
TORSDOF 8
