REMARK  Name = ZINCrg00000fSsDM.0
REMARK                            x       y       z     vdW  Elec       q    Type
REMARK                         _______ _______ _______ _____ _____    ______ ____
ROOT
ATOM      1  C   LIG    1        9.756   0.222  -0.194  0.00  0.00    +0.260 C 
ATOM      2  C   LIG    1        9.079   1.474   0.423  0.00  0.00    +0.050 C 
ATOM      3  C   LIG    1        7.689   1.443  -0.265  0.00  0.00    +0.270 C 
ATOM      4  N   LIG    1        7.343   0.012  -0.347  0.00  0.00    -0.620 N 
ATOM      5  C   LIG    1        6.096  -0.491  -0.433  0.00  0.00    +0.530 C 
ATOM      6  O   LIG    1        5.929  -1.690  -0.502  0.00  0.00    -0.510 OA
ATOM      7  C   LIG    1        8.585  -0.774  -0.328  0.00  0.00    +0.250 C 
ENDROOT
BRANCH   1  11
ATOM      8  N   LIG    1       12.699  -1.599   1.048  0.00  0.00    -0.650 N 
ATOM      9  H   LIG    1       12.740  -1.298   1.970  0.00  0.00    +0.430 HD
ATOM     10  C   LIG    1       11.752  -1.113   0.222  0.00  0.00    +0.700 C 
ATOM     11  N   LIG    1       10.786  -0.307   0.704  0.00  0.00    -0.720 N 
ATOM     12  H   LIG    1       10.772  -0.076   1.646  0.00  0.00    +0.410 HD
ATOM     13  O   LIG    1       11.769  -1.403  -0.959  0.00  0.00    -0.560 OA
BRANCH   8  19
ATOM     14  C   LIG    1       12.189  -3.626  -1.188  0.00  0.00    +0.350 C 
ATOM     15  N   LIG    1       13.418  -3.445  -0.411  0.00  0.00    -0.450 N 
ATOM     16  C   LIG    1       14.570  -4.158  -0.550  0.00  0.00    +0.430 A 
ATOM     17  N   LIG    1       15.452  -3.727   0.302  0.00  0.00    -0.440 NA
ATOM     18  C   LIG    1       14.914  -2.711   1.028  0.00  0.00    +0.020 A 
ATOM     19  C   LIG    1       13.615  -2.530   0.582  0.00  0.00    +0.310 A 
BRANCH  18  20
ATOM     20  C   LIG    1       15.568  -1.969   2.064  0.00  0.00    +0.300 C 
ATOM     21  N   LIG    1       16.086  -1.380   2.885  0.00  0.00    -0.410 NA
ENDBRANCH  18  20
ENDBRANCH   8  19
ENDBRANCH   1  11
BRANCH   5  22
ATOM     22  C   LIG    1        4.908   0.437  -0.443  0.00  0.00    +0.230 C 
BRANCH  22  23
ATOM     23  O   LIG    1        3.706  -0.330  -0.540  0.00  0.00    -0.290 OA
BRANCH  23  24
ATOM     24  C   LIG    1        2.535   0.359  -0.561  0.00  0.00    +0.130 A 
ATOM     25  C   LIG    1        1.330  -0.321  -0.654  0.00  0.00    -0.020 A 
ATOM     26  C   LIG    1        0.141   0.382  -0.676  0.00  0.00    +0.050 A 
ATOM     27  C   LIG    1        0.151   1.763  -0.606  0.00  0.00    -0.030 A 
ATOM     28  C   LIG    1        1.351   2.443  -0.514  0.00  0.00    +0.050 A 
ATOM     29  C   LIG    1        2.543   1.745  -0.491  0.00  0.00    -0.080 A 
ENDBRANCH  23  24
ENDBRANCH  22  23
ENDBRANCH   5  22
TORSDOF 6
