REMARK  Name = ZINCtV000002uPGK.0
REMARK                            x       y       z     vdW  Elec       q    Type
REMARK                         _______ _______ _______ _____ _____    ______ ____
ROOT
ATOM      1  C   LIG    1        6.167  -0.495  -0.165  0.00  0.00    -0.060 A 
ATOM      2  C   LIG    1        4.952   0.135   0.059  0.00  0.00    +0.020 A 
ATOM      3  C   LIG    1        3.785  -0.638   0.171  0.00  0.00    +0.200 A 
ATOM      4  N   LIG    1        3.797  -1.951   0.059  0.00  0.00    -0.450 NA
ATOM      5  C   LIG    1        4.920  -2.637  -0.162  0.00  0.00    +0.130 A 
ATOM      6  C   LIG    1        4.903  -4.039  -0.276  0.00  0.00    +0.050 A 
ATOM      7  C   LIG    1        6.065  -4.712  -0.500  0.00  0.00    +0.030 A 
ATOM      8  C   LIG    1        7.276  -4.035  -0.620  0.00  0.00    +0.020 A 
ATOM      9  C   LIG    1        7.331  -2.676  -0.516  0.00  0.00    +0.040 A 
ATOM     10  C   LIG    1        6.156  -1.953  -0.285  0.00  0.00    -0.070 A 
ENDROOT
BRANCH   3  11
ATOM     11  C   LIG    1        2.495   0.046   0.416  0.00  0.00    -0.040 A 
ATOM     12  C   LIG    1        2.118   1.126  -0.362  0.00  0.00    +0.040 A 
ATOM     13  C   LIG    1        0.908   1.774  -0.138  0.00  0.00    +0.010 A 
ATOM     14  C   LIG    1        0.063   1.366   0.849  0.00  0.00    +0.040 A 
ATOM     15  C   LIG    1        0.406   0.272   1.663  0.00  0.00    -0.050 A 
ATOM     16  C   LIG    1       -0.449  -0.168   2.688  0.00  0.00    +0.020 A 
ATOM     17  C   LIG    1       -0.084  -1.230   3.459  0.00  0.00    +0.010 A 
ATOM     18  C   LIG    1        1.124  -1.888   3.247  0.00  0.00    +0.000 A 
ATOM     19  C   LIG    1        1.976  -1.488   2.262  0.00  0.00    +0.040 A 
ATOM     20  C   LIG    1        1.635  -0.399   1.449  0.00  0.00    -0.020 A 
ENDBRANCH   3  11
BRANCH   1  22
ATOM     21  N   LIG    1        7.780   1.138   0.690  0.00  0.00    -0.600 N 
ATOM     22  C   LIG    1        7.423   0.277  -0.284  0.00  0.00    +0.570 C 
ATOM     23  O   LIG    1        8.133   0.136  -1.261  0.00  0.00    -0.520 OA
BRANCH  21  24
ATOM     24  C   LIG    1        6.991   1.219   1.921  0.00  0.00    +0.260 C 
ATOM     25  C   LIG    1        7.451   0.132   2.894  0.00  0.00    +0.020 C 
ENDBRANCH  21  24
BRANCH  21  26
ATOM     26  C   LIG    1        8.958   1.992   0.517  0.00  0.00    +0.280 C 
BRANCH  26  27
ATOM     27  C   LIG    1        8.541   3.308  -0.141  0.00  0.00    -0.010 C 
BRANCH  27  29
ATOM     28  C   LIG    1        9.354   5.517  -0.979  0.00  0.00    +0.010 C 
ATOM     29  C   LIG    1        9.771   4.200  -0.321  0.00  0.00    +0.000 C 
ENDBRANCH  27  29
ENDBRANCH  26  27
ENDBRANCH  21  26
ENDBRANCH   1  22
TORSDOF 6
