REMARK  Name = ZINCvU0000000Dkn.0
REMARK                            x       y       z     vdW  Elec       q    Type
REMARK                         _______ _______ _______ _____ _____    ______ ____
ROOT
ATOM      1  N   LIG    1        1.058   2.152  -0.053  0.00  0.00    -0.610 N 
ATOM      2  H   LIG    1        1.889   1.654  -0.093  0.00  0.00    +0.430 HD
ATOM      3  C   LIG    1       -0.120   1.498  -0.032  0.00  0.00    +0.610 C 
ATOM      4  O   LIG    1       -1.163   2.123   0.013  0.00  0.00    -0.480 OA
ENDROOT
BRANCH   1   8
ATOM      5  C   LIG    1        1.983   5.586   0.009  0.00  0.00    +0.120 A 
ATOM      6  C   LIG    1        0.705   6.001   0.062  0.00  0.00    -0.250 A 
ATOM      7  S   LIG    1       -0.337   4.580   0.057  0.00  0.00    +0.210 S 
ATOM      8  C   LIG    1        1.081   3.539  -0.017  0.00  0.00    +0.270 A 
ATOM      9  C   LIG    1        0.244   7.435   0.115  0.00  0.00    +0.160 C 
ATOM     10  N   LIG    1        2.152   4.271  -0.027  0.00  0.00    -0.490 NA
BRANCH   5  14
ATOM     11  C   LIG    1        5.257   8.301  -0.024  0.00  0.00    +0.130 A 
ATOM     12  C   LIG    1        5.255   7.208  -0.880  0.00  0.00    -0.020 A 
ATOM     13  C   LIG    1        4.194   6.326  -0.872  0.00  0.00    +0.080 A 
ATOM     14  C   LIG    1        3.125   6.532  -0.003  0.00  0.00    -0.060 A 
ATOM     15  C   LIG    1        3.127   7.634   0.852  0.00  0.00    +0.070 A 
ATOM     16  C   LIG    1        4.193   8.509   0.843  0.00  0.00    -0.080 A 
BRANCH  11  18
ATOM     17  C   LIG    1        6.240  10.272   0.871  0.00  0.00    +0.250 C 
ATOM     18  O   LIG    1        6.303   9.169  -0.035  0.00  0.00    -0.320 OA
ENDBRANCH  11  18
ENDBRANCH   5  14
ENDBRANCH   1   8
BRANCH   3  19
ATOM     19  C   LIG    1       -0.146   0.032  -0.070  0.00  0.00    -0.080 A 
ATOM     20  C   LIG    1       -1.274  -0.758  -0.055  0.00  0.00    +0.080 A 
ATOM     21  C   LIG    1       -0.838  -2.086  -0.105  0.00  0.00    -0.020 A 
ATOM     22  C   LIG    1        0.527  -2.058  -0.148  0.00  0.00    +0.070 A 
ATOM     23  O   LIG    1        0.932  -0.777  -0.133  0.00  0.00    -0.150 OA
BRANCH  22  24
ATOM     24  C   LIG    1        1.410  -3.239  -0.209  0.00  0.00    +0.000 A 
ATOM     25  C   LIG    1        0.858  -4.524  -0.220  0.00  0.00    +0.040 A 
ATOM     26  C   LIG    1        1.675  -5.617  -0.281  0.00  0.00    +0.070 A 
ATOM     27  C   LIG    1        3.064  -5.451  -0.322  0.00  0.00    -0.160 A 
ATOM     28  C   LIG    1        3.616  -4.164  -0.305  0.00  0.00    +0.080 A 
ATOM     29  C   LIG    1        2.798  -3.072  -0.249  0.00  0.00    +0.030 A 
BRANCH  27  30
ATOM     30  C   LIG    1        3.944  -6.628  -0.383  0.00  0.00    +0.390 C 
ATOM     31  O   LIG    1        5.148  -6.483  -0.418  0.00  0.00    -0.450 OA
ATOM     32  C   LIG    1        3.350  -8.012  -0.401  0.00  0.00    +0.090 C 
ENDBRANCH  27  30
ENDBRANCH  22  24
ENDBRANCH   3  19
TORSDOF 6
