REMARK  Name = ZINCpk000000oeTN.0
REMARK                            x       y       z     vdW  Elec       q    Type
REMARK                         _______ _______ _______ _____ _____    ______ ____
ROOT
ATOM      1  N   LIG    1        1.166   1.915  -0.350  0.00  0.00    -0.570 N 
ATOM      2  C   LIG    1       -0.056   1.468  -0.010  0.00  0.00    +0.570 C 
ATOM      3  C   LIG    1       -0.017  -0.010   0.053  0.00  0.00    -0.110 A 
ATOM      4  C   LIG    1       -0.954  -0.988   0.345  0.00  0.00    +0.100 A 
ATOM      5  C   LIG    1       -0.590  -2.324   0.316  0.00  0.00    +0.080 A 
ATOM      6  C   LIG    1        0.717  -2.690  -0.005  0.00  0.00    -0.110 A 
ATOM      7  C   LIG    1        1.668  -1.709  -0.300  0.00  0.00    +0.160 A 
ATOM      8  C   LIG    1        1.306  -0.374  -0.272  0.00  0.00    -0.140 A 
ATOM      9  O   LIG    1       -1.030   2.162   0.203  0.00  0.00    -0.450 OA
ATOM     10  C   LIG    1        2.024   0.894  -0.522  0.00  0.00    +0.580 C 
ATOM     11  O   LIG    1        3.195   0.996  -0.830  0.00  0.00    -0.450 OA
ENDROOT
BRANCH   6  12
ATOM     12  C   LIG    1        1.097  -4.120  -0.033  0.00  0.00    +0.560 C 
ATOM     13  N   LIG    1        0.238  -5.036  -0.523  0.00  0.00    -0.610 N 
ATOM     14  C   LIG    1       -1.028  -4.628  -1.151  0.00  0.00    +0.270 C 
ATOM     15  C   LIG    1       -1.140  -5.326  -2.512  0.00  0.00    +0.220 C 
ATOM     16  O   LIG    1       -0.943  -6.731  -2.337  0.00  0.00    -0.360 OA
ATOM     17  C   LIG    1        0.351  -7.082  -1.841  0.00  0.00    +0.250 C 
ATOM     18  C   LIG    1        0.543  -6.474  -0.452  0.00  0.00    +0.350 C 
ATOM     19  O   LIG    1        2.183  -4.468   0.387  0.00  0.00    -0.500 OA
BRANCH  18  20
ATOM     20  C   LIG    1        1.936  -6.665  -0.017  0.00  0.00    +0.190 C 
ATOM     21  N   LIG    1        3.011  -6.812   0.319  0.00  0.00    -0.380 NA
ENDBRANCH  18  20
ENDBRANCH   6  12
BRANCH   1  22
ATOM     22  C   LIG    1        1.517   3.328  -0.512  0.00  0.00    +0.310 C 
BRANCH  22  23
ATOM     23  C   LIG    1        2.001   3.890   0.826  0.00  0.00    +0.000 C 
BRANCH  23  25
ATOM     24  C   LIG    1        2.852   5.928   1.995  0.00  0.00    +0.030 C 
ATOM     25  C   LIG    1        2.368   5.366   0.657  0.00  0.00    +0.020 C 
ENDBRANCH  23  25
ENDBRANCH  22  23
ENDBRANCH   1  22
TORSDOF 5
