REMARK  Name = ZINCpe000000XZwY.1
REMARK                            x       y       z     vdW  Elec       q    Type
REMARK                         _______ _______ _______ _____ _____    ______ ____
ROOT
ATOM      1  N   LIG    1        3.771   1.252   0.805  0.00  0.00    -0.460 N 
ATOM      2  C   LIG    1        3.386   2.653   1.084  0.00  0.00    +0.190 C 
ATOM      3  C   LIG    1        3.375   3.396  -0.265  0.00  0.00    -0.010 C 
ATOM      4  C   LIG    1        3.805   2.341  -1.310  0.00  0.00    +0.190 C 
ATOM      5  C   LIG    1        4.557   1.288  -0.457  0.00  0.00    +0.220 C 
ENDROOT
BRANCH   1  11
ATOM      6  C   LIG    1        5.014  -2.522   3.715  0.00  0.00    +0.160 C 
ATOM      7  C   LIG    1        5.143  -1.088   3.268  0.00  0.00    +0.170 A 
ATOM      8  N   LIG    1        5.995  -0.274   3.870  0.00  0.00    -0.490 NA
ATOM      9  C   LIG    1        6.117   0.988   3.487  0.00  0.00    +0.290 A 
ATOM     10  N   LIG    1        5.402   1.485   2.490  0.00  0.00    -0.500 NA
ATOM     11  C   LIG    1        4.523   0.728   1.845  0.00  0.00    +0.340 A 
ATOM     12  C   LIG    1        4.371  -0.609   2.226  0.00  0.00    -0.140 A 
ATOM     13  C   LIG    1        3.389  -1.506   1.517  0.00  0.00    +0.130 C 
BRANCH   9  14
ATOM     14  C   LIG    1        7.087   1.866   4.190  0.00  0.00    +0.580 C 
ATOM     15  N   LIG    1        7.731   1.418   5.286  0.00  0.00    -0.600 N 
ATOM     16  C   LIG    1        7.385   0.113   5.857  0.00  0.00    +0.300 C 
ATOM     17  C   LIG    1        8.777   2.234   5.907  0.00  0.00    +0.310 C 
ATOM     18  O   LIG    1        7.300   2.988   3.777  0.00  0.00    -0.510 OA
ENDBRANCH   9  14
ENDBRANCH   1  11
BRANCH   4  19
ATOM     19  N   LIG    1        4.701   2.936  -2.310  0.00  0.00    -0.670 NA
ATOM     20  H   LIG    1        5.298   3.633  -1.891  0.00  0.00    +0.350 HD
BRANCH  19  21
ATOM     21  C   LIG    1        3.938   3.500  -3.431  0.00  0.00    +0.290 C 
BRANCH  21  22
ATOM     22  C   LIG    1        4.889   4.100  -4.435  0.00  0.00    +0.080 A 
ATOM     23  N   LIG    1        5.387   5.309  -4.393  0.00  0.00    -0.290 NA
ATOM     24  N   LIG    1        6.226   5.476  -5.502  0.00  0.00    -0.480 N 
ATOM     25  H   LIG    1        6.729   6.276  -5.721  0.00  0.00    +0.440 HD
ATOM     26  C   LIG    1        6.207   4.330  -6.213  0.00  0.00    +0.240 A 
ATOM     27  C   LIG    1        5.388   3.462  -5.575  0.00  0.00    -0.110 A 
ENDBRANCH  21  22
ENDBRANCH  19  21
ENDBRANCH   4  19
TORSDOF 5
