REMARK  Name = ZINCpe000000UWXX.0
REMARK                            x       y       z     vdW  Elec       q    Type
REMARK                         _______ _______ _______ _____ _____    ______ ____
ROOT
ATOM      1  C   LIG    1       -0.457   3.843  -2.151  0.00  0.00    +0.570 C 
ATOM      2  N   LIG    1       -0.114   3.476  -0.901  0.00  0.00    -0.600 N 
ATOM      3  C   LIG    1        0.889   2.426  -0.676  0.00  0.00    +0.260 C 
ATOM      4  C   LIG    1        1.975   2.973   0.256  0.00  0.00    +0.020 C 
ATOM      5  C   LIG    1        1.324   3.504   1.535  0.00  0.00    +0.030 C 
ATOM      6  C   LIG    1        0.367   4.646   1.186  0.00  0.00    +0.050 C 
ATOM      7  C   LIG    1       -0.738   4.118   0.265  0.00  0.00    +0.300 C 
ATOM      8  O   LIG    1       -1.337   4.663  -2.325  0.00  0.00    -0.520 OA
ENDROOT
BRANCH   1  12
ATOM      9  C   LIG    1        1.509   2.072  -5.424  0.00  0.00    +0.100 A 
ATOM     10  C   LIG    1        1.417   3.461  -5.383  0.00  0.00    +0.050 A 
ATOM     11  C   LIG    1        0.774   4.064  -4.315  0.00  0.00    +0.120 A 
ATOM     12  C   LIG    1        0.240   3.248  -3.314  0.00  0.00    -0.160 A 
ATOM     13  C   LIG    1        0.377   1.861  -3.423  0.00  0.00    +0.300 A 
ATOM     14  N   LIG    1        0.990   1.327  -4.456  0.00  0.00    -0.460 NA
BRANCH   9  18
ATOM     15  C   LIG    1        2.968  -0.574  -7.738  0.00  0.00    +0.280 C 
ATOM     16  N   LIG    1        2.290   0.073  -6.612  0.00  0.00    -0.710 N 
ATOM     17  H   LIG    1        1.908  -0.465  -5.901  0.00  0.00    +0.410 HD
ATOM     18  C   LIG    1        2.196   1.417  -6.564  0.00  0.00    +0.570 C 
ATOM     19  O   LIG    1        2.674   2.092  -7.454  0.00  0.00    -0.530 OA
ENDBRANCH   9  18
ENDBRANCH   1  12
BRANCH   6  20
ATOM     20  C   LIG    1       -0.249   5.190   2.449  0.00  0.00    +0.230 A 
ATOM     21  C   LIG    1       -1.378   4.596   2.991  0.00  0.00    -0.140 A 
ATOM     22  C   LIG    1       -1.910   5.125   4.157  0.00  0.00    +0.370 A 
ATOM     23  N   LIG    1       -1.335   6.180   4.708  0.00  0.00    -0.570 NA
ATOM     24  C   LIG    1       -0.259   6.728   4.161  0.00  0.00    +0.570 A 
ATOM     25  N   LIG    1        0.277   6.244   3.051  0.00  0.00    -0.570 NA
BRANCH  24  26
ATOM     26  N   LIG    1        0.318   7.832   4.765  0.00  0.00    -0.820 N 
ATOM     27  H   LIG    1       -0.066   8.196   5.578  0.00  0.00    +0.420 HD
ATOM     28  H   LIG    1        1.105   8.242   4.374  0.00  0.00    +0.410 HD
ENDBRANCH  24  26
ENDBRANCH   6  20
TORSDOF 4
