REMARK  Name = ZINCpe000000X9sz.0
REMARK                            x       y       z     vdW  Elec       q    Type
REMARK                         _______ _______ _______ _____ _____    ______ ____
ROOT
ATOM      1  C   LIG    1        1.518   2.405  -1.905  0.00  0.00    -0.110 A 
ATOM      2  C   LIG    1        1.277   1.191  -2.522  0.00  0.00    +0.060 A 
ATOM      3  C   LIG    1        2.277   0.566  -3.247  0.00  0.00    +0.020 A 
ATOM      4  C   LIG    1        3.525   1.146  -3.348  0.00  0.00    +0.040 A 
ATOM      5  C   LIG    1        3.776   2.369  -2.723  0.00  0.00    -0.130 A 
ATOM      6  C   LIG    1        2.761   2.996  -1.998  0.00  0.00    +0.110 A 
ENDROOT
BRANCH   5   7
ATOM      7  C   LIG    1        5.110   2.996  -2.827  0.00  0.00    +0.570 C 
ATOM      8  N   LIG    1        5.896   2.736  -3.891  0.00  0.00    -0.600 N 
ATOM      9  C   LIG    1        5.498   1.760  -4.868  0.00  0.00    +0.250 C 
ATOM     10  C   LIG    1        6.006   0.327  -4.629  0.00  0.00    +0.220 C 
ATOM     11  O   LIG    1        7.385   0.339  -4.184  0.00  0.00    -0.350 OA
ATOM     12  C   LIG    1        8.202   1.283  -4.810  0.00  0.00    +0.240 C 
ATOM     13  C   LIG    1        8.274   2.478  -3.862  0.00  0.00    +0.250 C 
ATOM     14  F   LIG    1        8.205   2.006  -2.547  0.00  0.00    -0.180 F 
ATOM     15  F   LIG    1        9.504   3.119  -4.042  0.00  0.00    -0.200 F 
ATOM     16  C   LIG    1        7.198   3.457  -4.067  0.00  0.00    +0.310 C 
ATOM     17  O   LIG    1        5.499   3.745  -1.952  0.00  0.00    -0.510 OA
ENDBRANCH   5   7
BRANCH   1  19
ATOM     18  C   LIG    1        0.864   3.324   0.322  0.00  0.00    +0.110 C 
ATOM     19  C   LIG    1        0.421   3.080  -1.122  0.00  0.00    +0.170 C 
ATOM     20  N   LIG    1       -0.812   2.276  -1.157  0.00  0.00    -0.720 N 
ATOM     21  H   LIG    1       -0.925   1.374  -0.819  0.00  0.00    +0.440 HD
ATOM     22  C   LIG    1       -1.749   3.033  -1.756  0.00  0.00    +0.710 C 
ATOM     23  N   LIG    1       -1.284   4.236  -2.110  0.00  0.00    -0.680 N 
ATOM     24  H   LIG    1       -1.815   4.918  -2.551  0.00  0.00    +0.440 HD
ATOM     25  O   LIG    1       -2.891   2.666  -1.952  0.00  0.00    -0.540 OA
ATOM     26  C   LIG    1        0.015   4.383  -1.783  0.00  0.00    +0.540 C 
ATOM     27  O   LIG    1        0.714   5.355  -1.977  0.00  0.00    -0.450 OA
ENDBRANCH   1  19
TORSDOF 2
