REMARK  Name = ZINCqH00000083RE.0
REMARK                            x       y       z     vdW  Elec       q    Type
REMARK                         _______ _______ _______ _____ _____    ______ ____
ROOT
ATOM      1  C   LIG    1       -1.921  -2.260  -2.421  0.00  0.00    -0.010 C 
ATOM      2  C   LIG    1       -3.094  -1.340  -2.769  0.00  0.00    +0.050 C 
ATOM      3  C   LIG    1       -3.837  -1.906  -3.982  0.00  0.00    +0.200 C 
ATOM      4  N   LIG    1       -4.324  -3.257  -3.674  0.00  0.00    -0.470 N 
ATOM      5  C   LIG    1       -3.210  -4.169  -3.383  0.00  0.00    +0.210 C 
ATOM      6  C   LIG    1       -2.450  -3.671  -2.152  0.00  0.00    +0.060 C 
ENDROOT
BRANCH   4   7
ATOM      7  C   LIG    1       -5.114  -3.749  -4.706  0.00  0.00    +0.340 A 
ATOM      8  C   LIG    1       -6.223  -3.025  -5.130  0.00  0.00    -0.040 A 
ATOM      9  C   LIG    1       -7.001  -3.526  -6.159  0.00  0.00    +0.150 A 
ATOM     10  C   LIG    1       -6.641  -4.739  -6.731  0.00  0.00    -0.270 A 
ATOM     11  C   LIG    1       -5.527  -5.405  -6.261  0.00  0.00    +0.360 A 
ATOM     12  N   LIG    1       -4.801  -4.900  -5.281  0.00  0.00    -0.520 NA
BRANCH  10  13
ATOM     13  C   LIG    1       -7.459  -5.323  -7.854  0.00  0.00    +0.520 C 
ATOM     14  F   LIG    1       -8.793  -4.926  -7.715  0.00  0.00    -0.180 F 
ATOM     15  F   LIG    1       -7.381  -6.720  -7.810  0.00  0.00    -0.170 F 
ATOM     16  F   LIG    1       -6.962  -4.867  -9.079  0.00  0.00    -0.180 F 
ENDBRANCH  10  13
ENDBRANCH   4   7
BRANCH   1  19
ATOM     17  N   LIG    1       -0.677  -0.509  -1.194  0.00  0.00    -0.730 N 
ATOM     18  H   LIG    1       -0.733   0.044  -1.989  0.00  0.00    +0.400 HD
ATOM     19  C   LIG    1       -1.223  -1.741  -1.190  0.00  0.00    +0.520 C 
ATOM     20  O   LIG    1       -1.152  -2.432  -0.196  0.00  0.00    -0.530 OA
BRANCH  17  24
ATOM     21  C   LIG    1        1.453   1.995  -0.001  0.00  0.00    +0.030 C 
ATOM     22  C   LIG    1        2.232   0.792   0.586  0.00  0.00    +0.030 C 
ATOM     23  C   LIG    1        1.486  -0.425  -0.014  0.00  0.00    +0.020 C 
ATOM     24  C   LIG    1        0.002  -0.004   0.002  0.00  0.00    +0.240 C 
ATOM     25  C   LIG    1       -0.019   1.534   0.011  0.00  0.00    +0.060 C 
BRANCH  21  27
ATOM     26  C   LIG    1        3.403   3.912   0.765  0.00  0.00    +0.140 C 
ATOM     27  S   LIG    1        1.668   3.462   1.044  0.00  0.00    -0.250 S 
ENDBRANCH  21  27
ENDBRANCH  17  24
ENDBRANCH   1  19
TORSDOF 5
