REMARK  Name = ZINCrD00000F5LBl.0
REMARK                            x       y       z     vdW  Elec       q    Type
REMARK                         _______ _______ _______ _____ _____    ______ ____
ROOT
ATOM      1  N   LIG    1        0.492  -1.922   3.658  0.00  0.00    -0.610 N 
ATOM      2  C   LIG    1        0.325  -0.792   4.370  0.00  0.00    +0.510 C 
ATOM      3  C   LIG    1       -0.516  -1.405   5.458  0.00  0.00    +0.180 C 
ATOM      4  O   LIG    1        0.720   0.341   4.194  0.00  0.00    -0.480 OA
ATOM      5  C   LIG    1       -0.303  -2.673   4.630  0.00  0.00    +0.300 C 
ENDROOT
BRANCH   5   6
ATOM      6  C   LIG    1        0.493  -3.725   5.357  0.00  0.00    -0.130 A 
ATOM      7  C   LIG    1        1.856  -3.825   5.152  0.00  0.00    +0.100 A 
ATOM      8  C   LIG    1        2.589  -4.787   5.822  0.00  0.00    -0.020 A 
ATOM      9  C   LIG    1        1.956  -5.658   6.692  0.00  0.00    +0.140 A 
ATOM     10  C   LIG    1        0.590  -5.563   6.895  0.00  0.00    -0.040 A 
ATOM     11  F   LIG    1        2.672  -6.602   7.342  0.00  0.00    -0.130 F 
ATOM     12  C   LIG    1       -0.142  -4.596   6.228  0.00  0.00    +0.150 A 
ATOM     13  F   LIG    1       -1.475  -4.502   6.424  0.00  0.00    -0.130 F 
ENDBRANCH   5   6
BRANCH   1  14
ATOM     14  C   LIG    1        1.191  -2.264   2.416  0.00  0.00    +0.340 C 
BRANCH  14  15
ATOM     15  C   LIG    1        0.239  -2.092   1.231  0.00  0.00    +0.150 C 
BRANCH  15  16
ATOM     16  O   LIG    1       -0.114  -0.714   1.099  0.00  0.00    -0.380 OA
BRANCH  16  18
ATOM     17  C   LIG    1       -1.312   1.055  -0.030  0.00  0.00    +0.040 C 
ATOM     18  C   LIG    1       -1.005  -0.443   0.015  0.00  0.00    +0.160 C 
ENDBRANCH  16  18
ENDBRANCH  15  16
ENDBRANCH  14  15
ENDBRANCH   1  14
BRANCH   3  19
ATOM     19  O   LIG    1        0.112  -1.426   6.741  0.00  0.00    -0.260 OA
BRANCH  19  20
ATOM     20  C   LIG    1       -0.383  -0.581   7.684  0.00  0.00    +0.090 A 
ATOM     21  C   LIG    1       -1.364   0.338   7.348  0.00  0.00    -0.020 A 
ATOM     22  C   LIG    1       -1.870   1.192   8.309  0.00  0.00    +0.010 A 
ATOM     23  C   LIG    1       -1.391   1.141   9.605  0.00  0.00    +0.020 A 
ATOM     24  C   LIG    1       -0.408   0.231   9.947  0.00  0.00    -0.030 A 
ATOM     25  C   LIG    1        0.099  -0.632   8.989  0.00  0.00    +0.110 A 
BRANCH  25  26
ATOM     26  O   LIG    1        1.065  -1.529   9.324  0.00  0.00    -0.310 OA
ATOM     27  C   LIG    1        1.512  -1.525  10.681  0.00  0.00    +0.250 C 
ENDBRANCH  25  26
ENDBRANCH  19  20
ENDBRANCH   3  19
TORSDOF 8
