REMARK  Name = ZINCrD00000F5Lu9.0
REMARK                            x       y       z     vdW  Elec       q    Type
REMARK                         _______ _______ _______ _____ _____    ______ ____
ROOT
ATOM      1  N   LIG    1       -0.014  -0.305   0.280  0.00  0.00    -0.620 N 
ATOM      2  C   LIG    1       -0.945   0.502   0.825  0.00  0.00    +0.720 C 
ATOM      3  N   LIG    1       -0.600   1.731   1.259  0.00  0.00    -0.680 N 
ATOM      4  H   LIG    1        0.300   2.063   1.111  0.00  0.00    +0.400 HD
ATOM      5  O   LIG    1       -2.096   0.125   0.921  0.00  0.00    -0.550 OA
ENDROOT
BRANCH   3   6
ATOM      6  C   LIG    1       -1.540   2.528   1.923  0.00  0.00    +0.180 A 
ATOM      7  C   LIG    1       -1.486   3.911   1.805  0.00  0.00    -0.010 A 
ATOM      8  C   LIG    1       -2.418   4.695   2.456  0.00  0.00    +0.050 A 
ATOM      9  C   LIG    1       -3.397   4.104   3.236  0.00  0.00    -0.050 A 
ATOM     10  C   LIG    1       -3.450   2.727   3.359  0.00  0.00    +0.050 A 
ATOM     11 CL   LIG    1       -4.562   5.093   4.059  0.00  0.00    -0.070 Cl
ATOM     12  C   LIG    1       -2.523   1.938   2.705  0.00  0.00    +0.030 A 
ENDBRANCH   3   6
BRANCH   1  13
ATOM     13  C   LIG    1        1.347   0.189   0.060  0.00  0.00    +0.370 C 
BRANCH  13  19
ATOM     14  C   LIG    1        2.954  -2.329   1.017  0.00  0.00    +0.310 C 
ATOM     15  N   LIG    1        2.842  -1.058   1.737  0.00  0.00    -0.450 N 
ATOM     16  C   LIG    1        3.408  -0.758   2.926  0.00  0.00    +0.400 A 
ATOM     17  N   LIG    1        3.085   0.465   3.247  0.00  0.00    -0.490 NA
ATOM     18  C   LIG    1        2.313   0.986   2.282  0.00  0.00    +0.160 A 
ATOM     19  C   LIG    1        2.145   0.047   1.331  0.00  0.00    -0.060 A 
ENDBRANCH  13  19
ENDBRANCH   1  13
BRANCH   1  20
ATOM     20  C   LIG    1       -0.363  -1.678  -0.094  0.00  0.00    +0.330 C 
BRANCH  20  21
ATOM     21  C   LIG    1       -0.724  -1.727  -1.580  0.00  0.00    +0.120 C 
ATOM     22  O   LIG    1       -1.842  -0.869  -1.829  0.00  0.00    -0.350 OA
ATOM     23  C   LIG    1       -2.284  -0.885  -3.189  0.00  0.00    +0.180 C 
ATOM     24  C   LIG    1       -2.655  -2.319  -3.579  0.00  0.00    +0.190 C 
ATOM     25  O   LIG    1       -1.537  -3.177  -3.330  0.00  0.00    -0.370 OA
ATOM     26  C   LIG    1       -1.093  -3.161  -1.970  0.00  0.00    +0.080 C 
ATOM     27  C   LIG    1       -2.215  -3.666  -1.061  0.00  0.00    +0.030 C 
ATOM     28  C   LIG    1        0.133  -4.063  -1.821  0.00  0.00    +0.070 C 
ENDBRANCH  20  21
ENDBRANCH   1  20
TORSDOF 5
