REMARK  Name = ZINCtV00000L6jXD.0
REMARK                            x       y       z     vdW  Elec       q    Type
REMARK                         _______ _______ _______ _____ _____    ______ ____
ROOT
ATOM      1  C   LIG    1       -0.016   1.312   0.009  0.00  0.00    +0.260 A 
ATOM      2  N   LIG    1        0.002  -0.004   0.002  0.00  0.00    -0.500 NA
ATOM      3  C   LIG    1        1.155  -0.681  -0.013  0.00  0.00    +0.320 A 
ATOM      4  C   LIG    1        1.448  -2.050  -0.023  0.00  0.00    -0.220 A 
ATOM      5  C   LIG    1        2.842  -2.176  -0.037  0.00  0.00    +0.320 A 
ATOM      6  N   LIG    1        3.375  -0.979  -0.036  0.00  0.00    -0.330 NA
ATOM      7  N   LIG    1        2.356  -0.021  -0.021  0.00  0.00    -0.340 N 
ATOM      8  C   LIG    1        2.376   1.349  -0.013  0.00  0.00    +0.490 A 
ATOM      9  C   LIG    1        1.178   2.032   0.002  0.00  0.00    -0.160 A 
ENDROOT
BRANCH   4  10
ATOM     10  C   LIG    1        0.465  -3.159  -0.019  0.00  0.00    +0.010 A 
ATOM     11  C   LIG    1       -0.567  -3.176   0.919  0.00  0.00    +0.020 A 
ATOM     12  C   LIG    1       -1.483  -4.208   0.914  0.00  0.00    +0.000 A 
ATOM     13  C   LIG    1       -1.371  -5.231  -0.012  0.00  0.00    -0.010 A 
ATOM     14  C   LIG    1       -0.346  -5.222  -0.941  0.00  0.00    +0.000 A 
ATOM     15  C   LIG    1        0.572  -4.192  -0.950  0.00  0.00    +0.010 A 
ENDBRANCH   4  10
BRANCH   1  17
ATOM     16  C   LIG    1       -2.479   1.030   0.019  0.00  0.00    +0.050 C 
ATOM     17  C   LIG    1       -1.333   2.044   0.019  0.00  0.00    -0.020 C 
ATOM     18  C   LIG    1       -1.435   2.929  -1.224  0.00  0.00    +0.050 C 
ATOM     19  C   LIG    1       -1.423   2.915   1.274  0.00  0.00    +0.050 C 
ENDBRANCH   1  17
BRANCH   8  20
ATOM     20  N   LIG    1        3.573   2.032  -0.021  0.00  0.00    -0.710 N 
ATOM     21  H   LIG    1        4.410   1.543  -0.031  0.00  0.00    +0.420 HD
BRANCH  20  22
ATOM     22  C   LIG    1        3.580   3.497  -0.013  0.00  0.00    +0.340 C 
BRANCH  22  23
ATOM     23  C   LIG    1        5.003   3.993  -0.023  0.00  0.00    -0.110 A 
ATOM     24  C   LIG    1        5.596   4.415   1.151  0.00  0.00    +0.080 A 
ATOM     25  C   LIG    1        6.903   4.864   1.143  0.00  0.00    +0.040 A 
ATOM     26  C   LIG    1        7.615   4.902  -0.042  0.00  0.00    -0.010 A 
ATOM     27  C   LIG    1        7.020   4.485  -1.220  0.00  0.00    +0.050 A 
ATOM     28 CL   LIG    1        9.255   5.473  -0.053  0.00  0.00    -0.050 Cl
ATOM     29  C   LIG    1        5.714   4.030  -1.210  0.00  0.00    -0.010 A 
ATOM     30 CL   LIG    1        4.966   3.506  -2.687  0.00  0.00    -0.040 Cl
ENDBRANCH  22  23
ENDBRANCH  20  22
ENDBRANCH   8  20
TORSDOF 5
