REMARK  Name = ZINC4500000040bc.0
REMARK                            x       y       z     vdW  Elec       q    Type
REMARK                         _______ _______ _______ _____ _____    ______ ____
ROOT
ATOM      1  C   LIG    1       -1.140   1.597   0.016  0.00  0.00    +0.790 C 
ENDROOT
BRANCH   1   2
ATOM      2  N   LIG    1       -0.011   0.966   0.007  0.00  0.00    -0.730 NA
ATOM      3  H   LIG    1        0.822   1.462   0.002  0.00  0.00    +0.460 HD
ATOM      4  H   LIG    1        0.002  -0.004   0.002  0.00  0.00    +0.430 HD
ENDBRANCH   1   2
BRANCH   1   5
ATOM      5  N   LIG    1       -2.317   0.896   0.018  0.00  0.00    -0.540 NA
ATOM      6  H   LIG    1       -2.304  -0.074   0.013  0.00  0.00    +0.430 HD
BRANCH   5   7
ATOM      7  O   LIG    1       -3.553   1.587   0.028  0.00  0.00    -0.280 OA
ATOM      8  H   LIG    1       -4.327   1.008   0.028  0.00  0.00    +0.430 HD
ENDBRANCH   5   7
ENDBRANCH   1   5
TORSDOF 3
