REMARK  Name = ZINCrH000004jo2n.0
REMARK                            x       y       z     vdW  Elec       q    Type
REMARK                         _______ _______ _______ _____ _____    ______ ____
ROOT
ATOM      1  C   LIG    1       -3.713   2.067   0.048  0.00  0.00    +0.530 C 
ATOM      2  O   LIG    1       -3.735   3.286   0.054  0.00  0.00    -0.600 OA
ENDROOT
BRANCH   1   9
ATOM      3  N   LIG    1        1.338  -0.387  -0.013  0.00  0.00    -0.540 N 
ATOM      4  C   LIG    1        2.100   0.723  -0.014  0.00  0.00    +0.680 A 
ATOM      5  N   LIG    1        1.312   1.814  -0.001  0.00  0.00    -0.640 N 
ATOM      6  H   LIG    1        1.617   2.735   0.001  0.00  0.00    +0.440 HD
ATOM      7  C   LIG    1       -0.017   1.395   0.010  0.00  0.00    +0.070 A 
ATOM      8  C   LIG    1       -1.223   2.070   0.030  0.00  0.00    +0.090 A 
ATOM      9  C   LIG    1       -2.419   1.351   0.032  0.00  0.00    -0.110 A 
ATOM     10  C   LIG    1       -2.393  -0.046   0.024  0.00  0.00    +0.110 A 
ATOM     11  C   LIG    1       -1.190  -0.716   0.010  0.00  0.00    +0.020 A 
ATOM     12  O   LIG    1        3.316   0.737  -0.026  0.00  0.00    -0.550 OA
ATOM     13  C   LIG    1        0.002  -0.004   0.002  0.00  0.00    +0.120 A 
BRANCH   3  15
ATOM     14  C   LIG    1        1.992  -2.238  -1.472  0.00  0.00    +0.030 C 
ATOM     15  C   LIG    1        1.833  -1.766  -0.025  0.00  0.00    +0.310 C 
ENDBRANCH   3  15
ENDBRANCH   1   9
BRANCH   1  16
ATOM     16  N   LIG    1       -4.859   1.377   0.054  0.00  0.00    -0.640 NA
ATOM     17  C   LIG    1       -6.023   2.022   0.069  0.00  0.00    +0.480 A 
ATOM     18  C   LIG    1       -7.306   1.433   0.071  0.00  0.00    -0.090 A 
ATOM     19  C   LIG    1       -8.225   2.422   0.090  0.00  0.00    +0.190 A 
ATOM     20  N   LIG    1       -7.581   3.624   0.091  0.00  0.00    -0.480 N 
ATOM     21  H   LIG    1       -8.006   4.496   0.099  0.00  0.00    +0.440 HD
ATOM     22  N   LIG    1       -6.200   3.384   0.077  0.00  0.00    -0.480 N 
ATOM     23  H   LIG    1       -5.500   4.055   0.074  0.00  0.00    +0.460 HD
BRANCH  19  24
ATOM     24  C   LIG    1       -9.719   2.229   0.102  0.00  0.00    +0.080 C 
ATOM     25  C   LIG    1      -10.315   2.864  -1.171  0.00  0.00    +0.030 C 
ATOM     26  C   LIG    1      -11.667   2.251  -1.423  0.00  0.00    +0.020 C 
ATOM     27  C   LIG    1      -12.812   3.085  -0.818  0.00  0.00    +0.000 C 
ATOM     28  C   LIG    1      -12.481   3.625   0.587  0.00  0.00    +0.000 C 
ATOM     29  C   LIG    1      -11.784   2.605   1.446  0.00  0.00    +0.030 C 
ATOM     30  C   LIG    1      -10.261   2.816   1.319  0.00  0.00    +0.010 C 
ENDBRANCH  19  24
ENDBRANCH   1  16
TORSDOF 4
