REMARK  Name = ZINCpe000000Ya4m.0
REMARK                            x       y       z     vdW  Elec       q    Type
REMARK                         _______ _______ _______ _____ _____    ______ ____
ROOT
ATOM      1  N   LIG    1        3.627  -0.644  -0.037  0.00  0.00    -0.690 N 
ATOM      2  H   LIG    1        3.646  -1.612   0.025  0.00  0.00    +0.410 HD
ATOM      3  C   LIG    1        4.779   0.047  -0.146  0.00  0.00    +0.710 C 
ATOM      4  N   LIG    1        5.950  -0.610  -0.262  0.00  0.00    -0.720 N 
ATOM      5  H   LIG    1        5.964  -1.580  -0.268  0.00  0.00    +0.400 HD
ATOM      6  O   LIG    1        4.761   1.263  -0.139  0.00  0.00    -0.570 OA
ENDROOT
BRANCH   1  11
ATOM      7  C   LIG    1        1.093   1.943   0.627  0.00  0.00    +0.140 A 
ATOM      8  C   LIG    1       -0.023   1.372   0.031  0.00  0.00    +0.000 A 
ATOM      9  C   LIG    1        0.074   0.138  -0.584  0.00  0.00    +0.060 A 
ATOM     10  C   LIG    1        1.282  -0.531  -0.607  0.00  0.00    +0.010 A 
ATOM     11  C   LIG    1        2.403   0.035  -0.013  0.00  0.00    +0.190 A 
ATOM     12  C   LIG    1        2.308   1.273   0.605  0.00  0.00    +0.060 A 
BRANCH   7  18
ATOM     13  C   LIG    1       -0.704   4.284  -0.311  0.00  0.00    +0.220 C 
ATOM     14  C   LIG    1        0.224   4.239   0.875  0.00  0.00    +0.250 A 
ATOM     15  N   LIG    1        0.434   5.205   1.732  0.00  0.00    -0.330 NA
ATOM     16  N   LIG    1        1.284   4.841   2.624  0.00  0.00    -0.030 NA
ATOM     17  N   LIG    1        1.667   3.630   2.406  0.00  0.00    -0.070 NA
ATOM     18  N   LIG    1        0.993   3.195   1.251  0.00  0.00    -0.330 N 
ENDBRANCH   7  18
ENDBRANCH   1  11
BRANCH   4  19
ATOM     19  C   LIG    1        7.202   0.141  -0.381  0.00  0.00    +0.250 C 
ATOM     20  C   LIG    1        7.435   0.517  -1.846  0.00  0.00    +0.030 C 
BRANCH  19  21
ATOM     21  C   LIG    1        8.364  -0.722   0.115  0.00  0.00    +0.180 C 
BRANCH  21  22
ATOM     22  N   LIG    1        8.084  -1.182   1.482  0.00  0.00    -0.530 NA
ATOM     23  C   LIG    1        8.068  -0.053   2.424  0.00  0.00    +0.150 C 
ATOM     24  C   LIG    1        7.715  -0.568   3.822  0.00  0.00    +0.220 C 
ATOM     25  O   LIG    1        8.651  -1.579   4.203  0.00  0.00    -0.380 OA
ATOM     26  C   LIG    1        8.692  -2.693   3.308  0.00  0.00    +0.220 C 
ATOM     27  C   LIG    1        9.056  -2.200   1.905  0.00  0.00    +0.160 C 
ENDBRANCH  21  22
ENDBRANCH  19  21
ENDBRANCH   4  19
TORSDOF 5
