REMARK  Name = ZINCpk000000pIZq.0
REMARK                            x       y       z     vdW  Elec       q    Type
REMARK                         _______ _______ _______ _____ _____    ______ ____
ROOT
ATOM      1  C   LIG    1       -0.003  -0.001   0.002  0.00  0.00    +0.100 C 
ATOM      2  C   LIG    1       -1.439  -0.535   0.010  0.00  0.00    +0.290 C 
ATOM      3  N   LIG    1       -1.393  -1.993  -0.184  0.00  0.00    -0.620 N 
ATOM      4  C   LIG    1       -0.601  -2.516  -1.309  0.00  0.00    +0.250 C 
ATOM      5  C   LIG    1        0.795  -1.885  -1.253  0.00  0.00    +0.220 C 
ATOM      6  C   LIG    1       -2.055  -2.825   0.644  0.00  0.00    +0.720 C 
ATOM      7  N   LIG    1       -2.086  -4.148   0.388  0.00  0.00    -0.720 N 
ATOM      8  H   LIG    1       -1.573  -4.511  -0.351  0.00  0.00    +0.410 HD
ATOM      9  O   LIG    1       -2.625  -2.382   1.623  0.00  0.00    -0.590 OA
ATOM     10  C   LIG    1        0.737  -0.504   1.243  0.00  0.00    +0.030 C 
ATOM     11  O   LIG    1        0.665  -0.463  -1.174  0.00  0.00    -0.360 OA
ENDROOT
BRANCH   1  13
ATOM     12  C   LIG    1        1.407   2.062  -0.000  0.00  0.00    +0.030 C 
ATOM     13  C   LIG    1       -0.027   1.529   0.008  0.00  0.00    +0.040 C 
ENDBRANCH   1  13
BRANCH   7  14
ATOM     14  C   LIG    1       -2.895  -5.038   1.224  0.00  0.00    +0.460 C 
BRANCH  14  15
ATOM     15  C   LIG    1       -2.327  -6.433   1.170  0.00  0.00    +0.190 A 
ATOM     16  N   LIG    1       -1.939  -7.054   0.090  0.00  0.00    -0.450 NA
ATOM     17  C   LIG    1       -1.490  -8.274   0.419  0.00  0.00    +0.160 A 
ATOM     18  C   LIG    1       -1.605  -8.415   1.754  0.00  0.00    +0.140 A 
ATOM     19  N   LIG    1       -2.131  -7.244   2.231  0.00  0.00    -0.450 N 
ATOM     20  C   LIG    1       -2.428  -6.932   3.631  0.00  0.00    +0.330 C 
ENDBRANCH  14  15
BRANCH  14  21
ATOM     21  C   LIG    1       -4.314  -5.053   0.716  0.00  0.00    +0.190 A 
ATOM     22  N   LIG    1       -4.673  -5.156  -0.535  0.00  0.00    -0.450 NA
ATOM     23  C   LIG    1       -6.011  -5.135  -0.614  0.00  0.00    +0.140 A 
ATOM     24  C   LIG    1       -6.501  -5.013   0.635  0.00  0.00    +0.130 A 
ATOM     25  N   LIG    1       -5.424  -4.967   1.479  0.00  0.00    -0.450 N 
ATOM     26  C   LIG    1       -5.469  -4.844   2.938  0.00  0.00    +0.330 C 
ENDBRANCH  14  21
ENDBRANCH   7  14
TORSDOF 4
