REMARK  Name = ZINCqH0000007Msh.0
REMARK                            x       y       z     vdW  Elec       q    Type
REMARK                         _______ _______ _______ _____ _____    ______ ____
ROOT
ATOM      1  C   LIG    1       -4.395  -2.859   6.854  0.00  0.00    +0.120 A 
ATOM      2  C   LIG    1       -5.367  -3.807   7.119  0.00  0.00    +0.000 A 
ATOM      3  C   LIG    1       -6.001  -4.477   6.082  0.00  0.00    +0.040 A 
ATOM      4  C   LIG    1       -5.665  -4.224   4.783  0.00  0.00    +0.070 A 
ATOM      5  C   LIG    1       -4.662  -3.288   4.489  0.00  0.00    -0.140 A 
ATOM      6  C   LIG    1       -4.279  -3.040   3.146  0.00  0.00    +0.260 A 
ATOM      7  C   LIG    1       -3.157  -2.251   2.924  0.00  0.00    -0.250 A 
ATOM      8  C   LIG    1       -2.430  -1.764   4.111  0.00  0.00    +0.520 A 
ATOM      9  O   LIG    1       -1.244  -1.500   4.056  0.00  0.00    -0.410 OA
ATOM     10  O   LIG    1       -3.130  -1.617   5.261  0.00  0.00    -0.260 OA
ATOM     11  C   LIG    1       -4.043  -2.579   5.535  0.00  0.00    +0.130 A 
ENDROOT
BRANCH   1  13
ATOM     12  C   LIG    1       -4.197  -2.542   9.202  0.00  0.00    +0.250 C 
ATOM     13  O   LIG    1       -3.785  -2.203   7.877  0.00  0.00    -0.300 OA
ENDBRANCH   1  13
BRANCH   7  14
ATOM     14  C   LIG    1       -2.709  -1.921   1.562  0.00  0.00    +0.540 C 
ATOM     15  O   LIG    1       -3.324  -2.341   0.602  0.00  0.00    -0.500 OA
BRANCH  14  16
ATOM     16  O   LIG    1       -1.616  -1.154   1.380  0.00  0.00    -0.330 OA
BRANCH  16  17
ATOM     17  C   LIG    1       -1.232  -0.869   0.009  0.00  0.00    +0.350 C 
BRANCH  17  18
ATOM     18  C   LIG    1        0.002  -0.004   0.002  0.00  0.00    +0.080 A 
ATOM     19  N   LIG    1        1.198  -0.457  -0.012  0.00  0.00    -0.440 NA
ATOM     20  C   LIG    1        2.208   0.433  -0.017  0.00  0.00    +0.080 A 
ATOM     21  C   LIG    1        3.601   0.215  -0.032  0.00  0.00    +0.080 A 
ATOM     22  C   LIG    1        4.464   1.269  -0.035  0.00  0.00    +0.030 A 
ATOM     23  C   LIG    1        3.992   2.573  -0.023  0.00  0.00    +0.050 A 
ATOM     24  C   LIG    1        2.637   2.817  -0.009  0.00  0.00    +0.060 A 
ATOM     25  C   LIG    1        1.739   1.752  -0.005  0.00  0.00    -0.180 A 
ATOM     26  S   LIG    1       -0.021   1.702   0.011  0.00  0.00    +0.130 S 
ENDBRANCH  17  18
ENDBRANCH  16  17
ENDBRANCH  14  16
ENDBRANCH   7  14
TORSDOF 5
