REMARK  Name = ZINCnE000001Taqw.0
REMARK                            x       y       z     vdW  Elec       q    Type
REMARK                         _______ _______ _______ _____ _____    ______ ____
ROOT
ATOM      1  O   LIG    1       -3.788   9.429   0.083  0.00  0.00    -0.540 OA
ATOM      2  C   LIG    1       -4.246   8.303   0.082  0.00  0.00    +0.570 C 
ATOM      3  N   LIG    1       -5.581   8.118   0.094  0.00  0.00    -0.700 N 
ATOM      4  H   LIG    1       -5.946   7.219   0.093  0.00  0.00    +0.400 HD
ENDROOT
BRANCH   3   5
ATOM      5  C   LIG    1       -6.480   9.274   0.107  0.00  0.00    +0.230 C 
ATOM      6  C   LIG    1       -7.680   9.225   1.057  0.00  0.00    +0.010 C 
ATOM      7  C   LIG    1       -7.890   9.078  -0.451  0.00  0.00    -0.130 C 
ATOM      8  C   LIG    1       -8.256   7.692  -0.989  0.00  0.00    +0.050 C 
ATOM      9  C   LIG    1       -7.942   7.643  -2.487  0.00  0.00    +0.000 C 
ATOM     10  C   LIG    1       -8.693   8.767  -3.202  0.00  0.00    +0.000 C 
ATOM     11  C   LIG    1       -8.205  10.124  -2.691  0.00  0.00    +0.000 C 
ATOM     12  C   LIG    1       -8.528  10.252  -1.199  0.00  0.00    +0.060 C 
ENDBRANCH   3   5
BRANCH   2  13
ATOM     13  C   LIG    1       -3.339   7.137   0.068  0.00  0.00    -0.140 A 
ATOM     14  C   LIG    1       -1.955   7.329   0.056  0.00  0.00    +0.090 A 
ATOM     15  C   LIG    1       -1.110   6.243   0.043  0.00  0.00    +0.060 A 
ATOM     16  C   LIG    1       -1.636   4.949   0.042  0.00  0.00    +0.040 A 
ATOM     17  C   LIG    1       -3.020   4.757   0.049  0.00  0.00    +0.040 A 
ATOM     18  C   LIG    1       -3.865   5.843   0.067  0.00  0.00    +0.050 A 
BRANCH  16  19
ATOM     19  C   LIG    1       -0.729   3.783   0.028  0.00  0.00    +0.160 A 
ATOM     20  N   LIG    1        0.573   3.838   0.016  0.00  0.00    -0.290 NA
ATOM     21  N   LIG    1        1.056   2.521   0.005  0.00  0.00    -0.370 NA
ATOM     22  C   LIG    1       -0.021   1.708   0.011  0.00  0.00    +0.350 A 
ATOM     23  S   LIG    1        0.002  -0.004   0.002  0.00  0.00    -0.690 S 
ATOM     24  O   LIG    1       -1.116   2.488   0.020  0.00  0.00    -0.260 OA
ENDBRANCH  16  19
ENDBRANCH   2  13
TORSDOF 3
