REMARK  Name = ZINCvU00000003Zo.0
REMARK                            x       y       z     vdW  Elec       q    Type
REMARK                         _______ _______ _______ _____ _____    ______ ____
ROOT
ATOM      1  C   LIG    1       -2.426   5.468  -0.134  0.00  0.00    -0.250 A 
ATOM      2  C   LIG    1       -2.586   4.094  -0.045  0.00  0.00    +0.350 A 
ATOM      3  N   LIG    1       -3.903   3.832  -0.077  0.00  0.00    -0.300 N 
ATOM      4  N   LIG    1       -4.620   5.027  -0.186  0.00  0.00    -0.280 NA
ATOM      5  C   LIG    1       -3.779   6.035  -0.218  0.00  0.00    +0.170 A 
ENDROOT
BRANCH   3   6
ATOM      6  C   LIG    1       -4.472   2.554  -0.011  0.00  0.00    +0.150 A 
ATOM      7  C   LIG    1       -3.658   1.434   0.090  0.00  0.00    +0.000 A 
ATOM      8  C   LIG    1       -4.222   0.175   0.161  0.00  0.00    +0.040 A 
ATOM      9  C   LIG    1       -5.597   0.029   0.119  0.00  0.00    +0.010 A 
ATOM     10  C   LIG    1       -6.410   1.142   0.013  0.00  0.00    +0.030 A 
ATOM     11  C   LIG    1       -5.852   2.404  -0.052  0.00  0.00    +0.030 A 
ENDBRANCH   3   6
BRANCH   5  12
ATOM     12  C   LIG    1       -4.129   7.471  -0.323  0.00  0.00    -0.070 A 
ATOM     13  C   LIG    1       -5.230   7.881  -1.081  0.00  0.00    +0.100 A 
ATOM     14  C   LIG    1       -5.514   9.234  -1.147  0.00  0.00    -0.030 A 
ATOM     15  C   LIG    1       -4.707  10.129  -0.469  0.00  0.00    +0.270 A 
ATOM     16  N   LIG    1       -3.674   9.713   0.238  0.00  0.00    -0.480 NA
ATOM     17  C   LIG    1       -3.368   8.436   0.337  0.00  0.00    +0.290 A 
ENDBRANCH   5  12
BRANCH   1  19
ATOM     18  C   LIG    1       -0.158   5.855   0.740  0.00  0.00    -0.160 C 
ATOM     19  C   LIG    1       -1.164   6.206  -0.137  0.00  0.00    +0.290 C 
BRANCH  18  20
ATOM     20  C   LIG    1       -0.421   4.883   1.810  0.00  0.00    +0.580 C 
ATOM     21  N   LIG    1        0.595   4.423   2.567  0.00  0.00    -0.660 N 
ATOM     22  H   LIG    1        1.488   4.782   2.450  0.00  0.00    +0.410 HD
ATOM     23  O   LIG    1       -1.556   4.494   2.013  0.00  0.00    -0.500 OA
BRANCH  21  24
ATOM     24  C   LIG    1        0.360   3.428   3.522  0.00  0.00    +0.150 A 
ATOM     25  C   LIG    1       -0.853   3.383   4.197  0.00  0.00    +0.040 A 
ATOM     26  C   LIG    1       -1.081   2.400   5.139  0.00  0.00    +0.030 A 
ATOM     27  C   LIG    1       -0.105   1.460   5.412  0.00  0.00    +0.010 A 
ATOM     28  C   LIG    1        1.105   1.501   4.742  0.00  0.00    +0.050 A 
ATOM     29  C   LIG    1        1.341   2.482   3.798  0.00  0.00    -0.060 A 
ATOM     30 CL   LIG    1        2.859   2.533   2.958  0.00  0.00    -0.060 Cl
ENDBRANCH  21  24
ENDBRANCH  18  20
BRANCH  18  32
ATOM     31  N   LIG    1        2.176   6.901   0.500  0.00  0.00    -0.400 NA
ATOM     32  C   LIG    1        1.143   6.438   0.606  0.00  0.00    +0.240 C 
ENDBRANCH  18  32
ENDBRANCH   1  19
TORSDOF 6
