REMARK  Name = ZINCpk00000xI6u8.0
REMARK                            x       y       z     vdW  Elec       q    Type
REMARK                         _______ _______ _______ _____ _____    ______ ____
ROOT
ATOM      1  C   LIG    1       -5.453   6.126   0.995  0.00  0.00    +0.260 C 
ATOM      2  C   LIG    1       -6.073   5.958  -0.395  0.00  0.00    +0.020 C 
ATOM      3  C   LIG    1       -7.384   6.743  -0.469  0.00  0.00    +0.030 C 
ATOM      4  C   LIG    1       -8.366   6.191   0.569  0.00  0.00    +0.290 C 
ATOM      5  N   LIG    1       -7.722   6.216   1.889  0.00  0.00    -0.590 N 
ATOM      6  C   LIG    1       -8.320   6.822   2.934  0.00  0.00    +0.610 C 
ATOM      7  O   LIG    1       -7.718   6.963   3.981  0.00  0.00    -0.520 OA
ATOM      8  C   LIG    1       -6.413   5.567   2.049  0.00  0.00    +0.300 C 
ENDROOT
BRANCH   1  12
ATOM      9  C   LIG    1       -1.829   4.003   1.159  0.00  0.00    +0.230 A 
ATOM     10  C   LIG    1       -1.830   5.368   1.383  0.00  0.00    -0.160 A 
ATOM     11  C   LIG    1       -3.043   6.067   1.320  0.00  0.00    +0.530 A 
ATOM     12  N   LIG    1       -4.183   5.399   1.055  0.00  0.00    -0.420 N 
ATOM     13  N   LIG    1       -4.164   4.018   0.837  0.00  0.00    -0.190 NA
ATOM     14  O   LIG    1       -3.067   7.273   1.509  0.00  0.00    -0.550 OA
ATOM     15  C   LIG    1       -3.048   3.345   0.885  0.00  0.00    +0.240 A 
BRANCH   9  16
ATOM     16  N   LIG    1       -0.646   3.288   1.210  0.00  0.00    -0.600 N 
ATOM     17  C   LIG    1        0.578   3.930   1.697  0.00  0.00    +0.300 C 
BRANCH  16  19
ATOM     18  C   LIG    1        0.313   1.748  -0.430  0.00  0.00    +0.020 C 
ATOM     19  C   LIG    1       -0.617   1.889   0.777  0.00  0.00    +0.220 C 
ATOM     20  C   LIG    1       -0.104   1.011   1.921  0.00  0.00    +0.020 C 
ENDBRANCH  16  19
ENDBRANCH   9  16
ENDBRANCH   1  12
BRANCH   6  21
ATOM     21  C   LIG    1       -9.704   7.315   2.807  0.00  0.00    -0.020 A 
ATOM     22  C   LIG    1      -10.347   8.073   3.763  0.00  0.00    -0.030 A 
ATOM     23  S   LIG    1      -11.906   8.356   3.092  0.00  0.00    +0.480 S 
ATOM     24  N   LIG    1      -11.666   7.559   1.768  0.00  0.00    -0.290 NA
ATOM     25  N   LIG    1      -10.487   7.078   1.760  0.00  0.00    -0.210 NA
ENDBRANCH   6  21
TORSDOF 4
