REMARK  Name = ZINCkj000005hHtd.0
REMARK                            x       y       z     vdW  Elec       q    Type
REMARK                         _______ _______ _______ _____ _____    ______ ____
ROOT
ATOM      1  N   LIG    1       -3.290   2.263   5.758  0.00  0.00    -0.500 N 
ATOM      2  H   LIG    1       -3.337   1.266   5.611  0.00  0.00    +0.430 HD
ATOM      3  H   LIG    1       -3.880   2.730   5.087  0.00  0.00    +0.430 HD
ENDROOT
BRANCH   1   8
ATOM      4  C   LIG    1       -5.712   5.470   8.443  0.00  0.00    +0.670 C 
ATOM      5  N   LIG    1       -5.175   4.284   8.091  0.00  0.00    -0.610 N 
ATOM      6  C   LIG    1       -5.707   2.959   8.457  0.00  0.00    +0.300 C 
ATOM      7  C   LIG    1       -5.167   2.000   7.367  0.00  0.00    +0.070 C 
ATOM      8  C   LIG    1       -3.749   2.579   7.117  0.00  0.00    +0.170 C 
ATOM      9  C   LIG    1       -3.962   4.099   7.281  0.00  0.00    +0.320 C 
ATOM     10  O   LIG    1       -5.186   6.505   8.083  0.00  0.00    -0.550 OA
BRANCH   4  12
ATOM     11  C   LIG    1       -7.352   6.819   9.531  0.00  0.00    +0.300 C 
ATOM     12  O   LIG    1       -6.830   5.507   9.191  0.00  0.00    -0.360 OA
ENDBRANCH   4  12
ENDBRANCH   1   8
BRANCH   1  13
ATOM     13  C   LIG    1       -1.903   2.717   5.592  0.00  0.00    +0.320 C 
BRANCH  13  14
ATOM     14  C   LIG    1       -1.432   2.393   4.198  0.00  0.00    -0.140 A 
ATOM     15  C   LIG    1       -1.610   3.308   3.177  0.00  0.00    +0.030 A 
ATOM     16  C   LIG    1       -1.179   3.010   1.898  0.00  0.00    +0.110 A 
ATOM     17  C   LIG    1       -0.568   1.797   1.640  0.00  0.00    -0.430 A 
ATOM     18  C   LIG    1       -0.393   0.880   2.660  0.00  0.00    +0.090 A 
ATOM     19  C   LIG    1       -0.821   1.179   3.939  0.00  0.00    +0.020 A 
BRANCH  17  20
ATOM     20  S   LIG    1       -0.017   1.417   0.010  0.00  0.00    +1.340 S 
ATOM     21  O   LIG    1        0.002  -0.004   0.002  0.00  0.00    -0.840 OA
ATOM     22  C   LIG    1        1.685   2.045  -0.003  0.00  0.00    -0.190 C 
ENDBRANCH  17  20
ENDBRANCH  13  14
ENDBRANCH   1  13
TORSDOF 5
