REMARK  Name = ZINCrD000000BtXq.0
REMARK                            x       y       z     vdW  Elec       q    Type
REMARK                         _______ _______ _______ _____ _____    ______ ____
ROOT
ATOM      1  C   LIG    1        0.568  -1.636   3.640  0.00  0.00    -0.150 A 
ATOM      2  C   LIG    1        1.906  -1.335   3.900  0.00  0.00    +0.130 A 
ATOM      3  C   LIG    1        2.645  -0.633   2.970  0.00  0.00    +0.020 A 
ATOM      4  C   LIG    1        2.062  -0.228   1.781  0.00  0.00    +0.070 A 
ATOM      5  C   LIG    1        0.735  -0.524   1.518  0.00  0.00    -0.680 A 
ATOM      6 CL   LIG    1        2.998   0.656   0.617  0.00  0.00    -0.030 Cl
ATOM      7  C   LIG    1       -0.015  -1.220   2.441  0.00  0.00    +0.220 A 
ENDROOT
BRANCH   1   9
ATOM      8  O   LIG    1       -1.394  -2.650   4.403  0.00  0.00    -0.520 OA
ATOM      9  C   LIG    1       -0.229  -2.388   4.631  0.00  0.00    +0.560 C 
ATOM     10  N   LIG    1        0.336  -2.783   5.790  0.00  0.00    -0.720 N 
ATOM     11  H   LIG    1        1.265  -2.575   5.972  0.00  0.00    +0.400 HD
BRANCH  10  12
ATOM     12  C   LIG    1       -0.455  -3.528   6.773  0.00  0.00    +0.400 C 
BRANCH  12  13
ATOM     13  C   LIG    1        0.404  -3.848   7.969  0.00  0.00    -0.050 A 
ATOM     14  C   LIG    1        0.549  -3.077   9.062  0.00  0.00    -0.030 A 
ATOM     15  C   LIG    1        1.439  -3.755   9.927  0.00  0.00    -0.070 A 
ATOM     16  C   LIG    1        1.783  -4.900   9.311  0.00  0.00    +0.190 A 
ATOM     17  O   LIG    1        1.149  -4.954   8.129  0.00  0.00    -0.170 OA
ENDBRANCH  12  13
ENDBRANCH  10  12
ENDBRANCH   1   9
BRANCH   5  18
ATOM     18  S   LIG    1        0.002  -0.004   0.002  0.00  0.00    +2.690 S 
ATOM     19  O   LIG    1        0.900  -0.388  -1.030  0.00  0.00    -0.930 OA
ATOM     20  O   LIG    1       -1.355  -0.424   0.048  0.00  0.00    -0.940 OA
BRANCH  18  21
ATOM     21  N   LIG    1       -0.020   1.652   0.011  0.00  0.00    -1.110 NA
ATOM     22  H   LIG    1       -0.867   2.125   0.018  0.00  0.00    +0.420 HD
BRANCH  21  23
ATOM     23  C   LIG    1        1.238   2.401   0.003  0.00  0.00    +0.320 C 
BRANCH  23  24
ATOM     24  C   LIG    1        0.964   3.840  -0.354  0.00  0.00    -0.110 A 
ATOM     25  C   LIG    1        0.991   4.240  -1.677  0.00  0.00    +0.030 A 
ATOM     26  C   LIG    1        0.735   5.559  -2.005  0.00  0.00    +0.010 A 
ATOM     27  C   LIG    1        0.462   6.478  -1.010  0.00  0.00    +0.010 A 
ATOM     28  C   LIG    1        0.440   6.078   0.313  0.00  0.00    +0.000 A 
ATOM     29  C   LIG    1        0.691   4.759   0.641  0.00  0.00    +0.020 A 
ENDBRANCH  23  24
ENDBRANCH  21  23
ENDBRANCH  18  21
ENDBRANCH   5  18
TORSDOF 7
