REMARK  Name = ZINCkj00000y7Fhy.0
REMARK                            x       y       z     vdW  Elec       q    Type
REMARK                         _______ _______ _______ _____ _____    ______ ____
ROOT
ATOM      1  N   LIG    1       -1.156  -0.694   0.009  0.00  0.00    -0.720 N 
ATOM      2  H   LIG    1       -2.002  -0.220   0.020  0.00  0.00    +0.420 HD
ATOM      3  C   LIG    1        0.002  -0.004   0.002  0.00  0.00    +0.520 C 
ATOM      4  O   LIG    1        1.060  -0.596  -0.011  0.00  0.00    -0.530 OA
ENDROOT
BRANCH   1  11
ATOM      5  C   LIG    1       -2.449  -2.716   0.589  0.00  0.00    +0.170 C 
ATOM      6  C   LIG    1       -3.086  -3.533  -0.555  0.00  0.00    +0.260 C 
ATOM      7  N   LIG    1       -1.945  -3.901  -1.432  0.00  0.00    -0.510 N 
ATOM      8  C   LIG    1       -1.088  -2.686  -1.449  0.00  0.00    +0.270 C 
ATOM      9  H   LIG    1       -2.271  -4.117  -2.363  0.00  0.00    +0.440 HD
ATOM     10  H   LIG    1       -1.439  -4.683  -1.044  0.00  0.00    +0.440 HD
ATOM     11  C   LIG    1       -1.136  -2.159   0.001  0.00  0.00    +0.260 C 
BRANCH   5  13
ATOM     12  C   LIG    1       -4.171  -1.958   2.075  0.00  0.00    +0.240 C 
ATOM     13  O   LIG    1       -3.313  -1.645   0.976  0.00  0.00    -0.360 OA
ENDBRANCH   5  13
ENDBRANCH   1  11
BRANCH   3  14
ATOM     14  C   LIG    1       -0.018   1.503   0.010  0.00  0.00    +0.060 C 
BRANCH  14  15
ATOM     15  C   LIG    1        1.417   2.032  -0.001  0.00  0.00    +0.100 C 
BRANCH  15  16
ATOM     16  C   LIG    1        1.397   3.539   0.008  0.00  0.00    -0.100 A 
ATOM     17  C   LIG    1        1.480   4.238  -1.182  0.00  0.00    +0.010 A 
ATOM     18  C   LIG    1        1.461   5.620  -1.174  0.00  0.00    +0.000 A 
ATOM     19  C   LIG    1        1.358   6.304   0.023  0.00  0.00    -0.080 A 
ATOM     20  C   LIG    1        1.275   5.604   1.213  0.00  0.00    +0.000 A 
ATOM     21  C   LIG    1        1.337   7.810   0.031  0.00  0.00    +0.090 C 
ATOM     22  C   LIG    1        1.289   4.223   1.205  0.00  0.00    -0.080 A 
ATOM     23  C   LIG    1        1.191   3.461   2.501  0.00  0.00    +0.080 C 
ENDBRANCH  15  16
ENDBRANCH  14  15
ENDBRANCH   3  14
TORSDOF 5
