REMARK  Name = ZINCpk00000y6xUi.0
REMARK                            x       y       z     vdW  Elec       q    Type
REMARK                         _______ _______ _______ _____ _____    ______ ____
ROOT
ATOM      1  C   LIG    1       -0.143   1.387  -0.015  0.00  0.00    +0.250 C 
ENDROOT
BRANCH   1   2
ATOM      2  C   LIG    1       -0.824   1.780   1.271  0.00  0.00    +0.500 C 
ATOM      3  N   LIG    1       -1.899   1.091   1.702  0.00  0.00    -0.610 N 
ATOM      4  C   LIG    1       -2.375  -0.019   0.907  0.00  0.00    +0.270 C 
ATOM      5  C   LIG    1       -1.658  -1.319   1.348  0.00  0.00    -0.020 C 
ATOM      6  C   LIG    1       -2.136  -1.741   2.674  0.00  0.00    +0.160 C 
ATOM      7  C   LIG    1       -1.841  -0.749   3.794  0.00  0.00    +0.050 C 
ATOM      8  C   LIG    1       -2.931   0.294   3.837  0.00  0.00    -0.070 C 
ATOM      9  C   LIG    1       -3.132   0.758   5.282  0.00  0.00    +0.040 C 
ATOM     10  C   LIG    1       -4.234  -0.312   3.313  0.00  0.00    +0.030 C 
ATOM     11  C   LIG    1       -2.539   1.498   2.968  0.00  0.00    +0.280 C 
ATOM     12  O   LIG    1       -0.404   2.716   1.918  0.00  0.00    -0.500 OA
BRANCH   6  13
ATOM     13  O   LIG    1       -1.518  -2.988   3.002  0.00  0.00    -0.570 OA
ATOM     14  H   LIG    1       -1.714  -3.700   2.378  0.00  0.00    +0.380 HD
ENDBRANCH   6  13
ENDBRANCH   1   2
BRANCH   1  17
ATOM     15  C   LIG    1        2.815   3.816   0.029  0.00  0.00    +0.090 C 
ATOM     16  C   LIG    1        1.415   3.259   0.047  0.00  0.00    +0.520 C 
ATOM     17  N   LIG    1        1.218   1.928  -0.032  0.00  0.00    -0.720 N 
ATOM     18  H   LIG    1        1.977   1.329  -0.101  0.00  0.00    +0.410 HD
ATOM     19  O   LIG    1        0.465   4.009   0.133  0.00  0.00    -0.520 OA
ENDBRANCH   1  17
BRANCH   1  20
ATOM     20  C   LIG    1       -0.930   1.949  -1.201  0.00  0.00    +0.100 C 
BRANCH  20  21
ATOM     21  C   LIG    1       -0.321   1.454  -2.488  0.00  0.00    -0.090 A 
ATOM     22  C   LIG    1        0.675   2.187  -3.106  0.00  0.00    +0.030 A 
ATOM     23  C   LIG    1        1.239   1.733  -4.282  0.00  0.00    -0.010 A 
ATOM     24  C   LIG    1        0.797   0.547  -4.849  0.00  0.00    +0.100 A 
ATOM     25  C   LIG    1       -0.206  -0.184  -4.230  0.00  0.00    -0.010 A 
ATOM     26  C   LIG    1       -0.763   0.272  -3.051  0.00  0.00    +0.030 A 
BRANCH  24  27
ATOM     27  O   LIG    1        1.347   0.101  -6.010  0.00  0.00    -0.500 OA
ATOM     28  H   LIG    1        0.898   0.418  -6.805  0.00  0.00    +0.390 HD
ENDBRANCH  24  27
ENDBRANCH  20  21
ENDBRANCH   1  20
TORSDOF 6
