REMARK  Name = ZINCtV00000L6jYv.0
REMARK                            x       y       z     vdW  Elec       q    Type
REMARK                         _______ _______ _______ _____ _____    ______ ____
ROOT
ATOM      1  C   LIG    1       -4.330   0.544   0.408  0.00  0.00    -0.130 A 
ATOM      2  C   LIG    1       -4.672  -0.212   1.532  0.00  0.00    +0.060 A 
ATOM      3  C   LIG    1       -5.990  -0.540   1.765  0.00  0.00    +0.010 A 
ATOM      4  C   LIG    1       -6.981  -0.124   0.889  0.00  0.00    +0.040 A 
ATOM      5  C   LIG    1       -6.659   0.624  -0.225  0.00  0.00    +0.000 A 
ATOM      6  C   LIG    1       -5.337   0.969  -0.474  0.00  0.00    +0.180 A 
ENDROOT
BRANCH   1  17
ATOM      7  C   LIG    1       -3.233  -1.827  -1.219  0.00  0.00    +0.050 C 
ATOM      8  C   LIG    1       -2.882  -0.506  -1.908  0.00  0.00    +0.220 C 
ATOM      9  C   LIG    1       -1.789  -0.730  -2.966  0.00  0.00    +0.100 C 
ATOM     10  C   LIG    1       -0.631   0.125  -2.504  0.00  0.00    -0.140 A 
ATOM     11  C   LIG    1        0.621   0.328  -3.051  0.00  0.00    +0.040 A 
ATOM     12  C   LIG    1        1.522   1.173  -2.431  0.00  0.00    -0.010 A 
ATOM     13  C   LIG    1        1.167   1.817  -1.260  0.00  0.00    +0.040 A 
ATOM     14  C   LIG    1       -0.082   1.619  -0.710  0.00  0.00    +0.010 A 
ATOM     15  C   LIG    1       -0.997   0.766  -1.330  0.00  0.00    +0.150 A 
ATOM     16  N   LIG    1       -2.297   0.430  -0.944  0.00  0.00    -0.540 N 
ATOM     17  C   LIG    1       -2.922   0.899   0.154  0.00  0.00    +0.580 C 
ATOM     18  O   LIG    1       -2.325   1.615   0.935  0.00  0.00    -0.500 OA
ENDBRANCH   1  17
BRANCH   6  19
ATOM     19  N   LIG    1       -5.011   1.726  -1.592  0.00  0.00    -0.700 N 
ATOM     20  H   LIG    1       -5.092   1.341  -2.478  0.00  0.00    +0.410 HD
BRANCH  19  21
ATOM     21  C   LIG    1       -4.566   3.045  -1.439  0.00  0.00    +0.210 A 
ATOM     22  C   LIG    1       -4.584   3.643  -0.186  0.00  0.00    -0.020 A 
ATOM     23  C   LIG    1       -4.141   4.942  -0.034  0.00  0.00    +0.060 A 
ATOM     24  C   LIG    1       -3.687   5.654  -1.137  0.00  0.00    -0.140 A 
ATOM     25  C   LIG    1       -3.674   5.058  -2.392  0.00  0.00    +0.090 A 
ATOM     26  C   LIG    1       -4.112   3.757  -2.542  0.00  0.00    -0.030 A 
BRANCH  24  27
ATOM     27  S   LIG    1       -3.128   7.314  -0.945  0.00  0.00    -0.100 S 
BRANCH  27  28
ATOM     28  C   LIG    1       -3.341   7.614   0.831  0.00  0.00    +0.430 C 
ATOM     29  F   LIG    1       -2.569   6.699   1.555  0.00  0.00    -0.180 F 
ATOM     30  F   LIG    1       -4.689   7.457   1.172  0.00  0.00    -0.180 F 
ENDBRANCH  27  28
ENDBRANCH  24  27
ENDBRANCH  19  21
ENDBRANCH   6  19
TORSDOF 5
