REMARK  Name = ZINCkj000005miXT.0
REMARK                            x       y       z     vdW  Elec       q    Type
REMARK                         _______ _______ _______ _____ _____    ______ ____
ROOT
ATOM      1  N   LIG    1        4.679  -3.211  -3.368  0.00  0.00    -0.380 N 
ATOM      2  C   LIG    1        5.522  -2.130  -2.840  0.00  0.00    +0.260 C 
ATOM      3  C   LIG    1        5.177  -1.887  -1.369  0.00  0.00    +0.210 C 
ATOM      4  N   LIG    1        3.758  -1.524  -1.255  0.00  0.00    -0.530 NA
ATOM      5  C   LIG    1        2.902  -2.586  -1.802  0.00  0.00    +0.210 C 
ATOM      6  C   LIG    1        3.265  -2.824  -3.270  0.00  0.00    +0.270 C 
ATOM      7  H   LIG    1        4.835  -4.051  -2.833  0.00  0.00    +0.430 HD
ENDROOT
BRANCH   1   8
ATOM      8  C   LIG    1        5.022  -3.456  -4.775  0.00  0.00    +0.280 C 
BRANCH   8   9
ATOM      9  C   LIG    1        6.447  -4.006  -4.864  0.00  0.00    +0.220 C 
BRANCH   9  10
ATOM     10  O   LIG    1        6.510  -5.272  -4.205  0.00  0.00    -0.580 OA
ATOM     11  H   LIG    1        7.386  -5.681  -4.222  0.00  0.00    +0.410 HD
ENDBRANCH   9  10
ENDBRANCH   8   9
ENDBRANCH   1   8
BRANCH   4  12
ATOM     12  C   LIG    1        3.401  -1.227   0.139  0.00  0.00    +0.270 C 
BRANCH  12  13
ATOM     13  C   LIG    1        2.019  -0.627   0.187  0.00  0.00    -0.110 A 
ATOM     14  C   LIG    1        1.863   0.740   0.304  0.00  0.00    +0.070 A 
ATOM     15  C   LIG    1        0.595   1.291   0.347  0.00  0.00    -0.010 A 
ATOM     16  C   LIG    1       -0.518   0.475   0.274  0.00  0.00    +0.060 A 
ATOM     17  C   LIG    1       -0.367  -0.893   0.156  0.00  0.00    -0.050 A 
ATOM     18  C   LIG    1        0.903  -1.448   0.113  0.00  0.00    +0.100 A 
BRANCH  18  19
ATOM     19  O   LIG    1        1.054  -2.794  -0.003  0.00  0.00    -0.330 OA
BRANCH  19  20
ATOM     20  C   LIG    1       -0.139  -3.577  -0.075  0.00  0.00    +0.590 C 
ATOM     21  F   LIG    1       -0.888  -3.185  -1.190  0.00  0.00    -0.200 F 
ATOM     22  F   LIG    1       -0.895  -3.382   1.086  0.00  0.00    -0.190 F 
ENDBRANCH  19  20
ENDBRANCH  18  19
ENDBRANCH  12  13
ENDBRANCH   4  12
TORSDOF 7
