REMARK  Name = ZINCpe00000K79MF.0
REMARK                            x       y       z     vdW  Elec       q    Type
REMARK                         _______ _______ _______ _____ _____    ______ ____
ROOT
ATOM      1  C   LIG    1        0.706  -4.091  -0.991  0.00  0.00    -0.010 A 
ATOM      2  C   LIG    1        1.196  -2.831  -0.929  0.00  0.00    +0.120 A 
ATOM      3  N   LIG    1        0.172  -2.011  -1.259  0.00  0.00    -0.280 N 
ATOM      4  N   LIG    1       -0.865  -2.736  -1.496  0.00  0.00    -0.060 NA
ATOM      5  N   LIG    1       -0.578  -3.981  -1.350  0.00  0.00    -0.250 NA
ENDROOT
BRANCH   3   6
ATOM      6  C   LIG    1        0.231  -0.548  -1.328  0.00  0.00    +0.270 C 
ATOM      7  C   LIG    1        1.598  -0.131  -1.907  0.00  0.00    +0.050 C 
ATOM      8  C   LIG    1        1.480   1.268  -2.449  0.00  0.00    +0.030 C 
ATOM      9  C   LIG    1        1.910   2.335  -1.423  0.00  0.00    +0.020 C 
ATOM     10  C   LIG    1        1.401   2.035  -0.000  0.00  0.00    +0.010 C 
ATOM     11  C   LIG    1       -0.019   1.538   0.011  0.00  0.00    +0.020 C 
ATOM     12  C   LIG    1        0.002  -0.004   0.002  0.00  0.00    +0.150 C 
BRANCH  12  13
ATOM     13  O   LIG    1       -1.251  -0.487   0.490  0.00  0.00    -0.560 OA
ATOM     14  H   LIG    1       -1.457  -0.204   1.392  0.00  0.00    +0.380 HD
ENDBRANCH  12  13
ENDBRANCH   3   6
BRANCH   1  15
ATOM     15  C   LIG    1        1.458  -5.366  -0.710  0.00  0.00    +0.300 C 
BRANCH  15  24
ATOM     16  C   LIG    1        1.756  -7.124   0.934  0.00  0.00    +0.230 C 
ATOM     17  C   LIG    1        1.633  -7.409   2.410  0.00  0.00    +0.100 A 
ATOM     18  C   LIG    1        1.709  -8.593   3.044  0.00  0.00    -0.120 A 
ATOM     19  C   LIG    1        1.532  -8.358   4.414  0.00  0.00    +0.220 A 
ATOM     20  N   LIG    1        1.356  -7.071   4.591  0.00  0.00    -0.290 NA
ATOM     21  N   LIG    1        1.417  -6.451   3.344  0.00  0.00    -0.360 N 
ATOM     22  C   LIG    1        1.284  -5.025   3.028  0.00  0.00    +0.320 C 
ATOM     23  C   LIG    1        1.832  -4.794   1.614  0.00  0.00    +0.190 C 
ATOM     24  N   LIG    1        1.237  -5.767   0.686  0.00  0.00    -0.520 NA
BRANCH  16  25
ATOM     25  C   LIG    1        0.938  -8.143   0.140  0.00  0.00    +0.210 C 
BRANCH  25  26
ATOM     26  O   LIG    1       -0.405  -8.161   0.628  0.00  0.00    -0.550 OA
ATOM     27  H   LIG    1       -0.983  -8.786   0.169  0.00  0.00    +0.380 HD
ENDBRANCH  25  26
ENDBRANCH  16  25
ENDBRANCH  15  24
ENDBRANCH   1  15
TORSDOF 6
