REMARK  Name = ZINCvU00000006fZ.0
REMARK                            x       y       z     vdW  Elec       q    Type
REMARK                         _______ _______ _______ _____ _____    ______ ____
ROOT
ATOM      1  N   LIG    1       -3.209   4.244  -1.515  0.00  0.00    -0.970 NA
ENDROOT
BRANCH   1   2
ATOM      2  S   LIG    1       -2.757   3.994   0.058  0.00  0.00    +2.690 S 
ATOM      3  O   LIG    1       -2.484   5.277   0.606  0.00  0.00    -0.950 OA
ATOM      4  O   LIG    1       -3.711   3.099   0.613  0.00  0.00    -0.940 OA
BRANCH   2   5
ATOM      5  C   LIG    1       -1.222   3.129   0.028  0.00  0.00    -0.670 A 
ATOM      6  C   LIG    1       -1.208   1.747   0.014  0.00  0.00    +0.190 A 
ATOM      7  C   LIG    1       -0.004   1.068  -0.004  0.00  0.00    +0.030 A 
ATOM      8  C   LIG    1        1.187   1.772  -0.019  0.00  0.00    +0.060 A 
ATOM      9  C   LIG    1        1.172   3.156  -0.011  0.00  0.00    -0.200 A 
ATOM     10 CL   LIG    1        2.699   0.920  -0.049  0.00  0.00    -0.030 Cl
ATOM     11  C   LIG    1       -0.032   3.834   0.013  0.00  0.00    +0.210 A 
BRANCH   9  12
ATOM     12  C   LIG    1        2.469   3.924  -0.028  0.00  0.00    +0.510 C 
ATOM     13  F   LIG    1        3.187   3.601  -1.184  0.00  0.00    -0.170 F 
ATOM     14  F   LIG    1        3.225   3.587   1.100  0.00  0.00    -0.170 F 
ATOM     15  F   LIG    1        2.198   5.296  -0.015  0.00  0.00    -0.170 F 
ENDBRANCH   9  12
ENDBRANCH   2   5
ENDBRANCH   1   2
BRANCH   1  16
ATOM     16  C   LIG    1       -4.032   3.249  -2.208  0.00  0.00    +0.300 C 
BRANCH  16  17
ATOM     17  C   LIG    1       -5.506   3.646  -2.104  0.00  0.00    +0.000 C 
BRANCH  17  19
ATOM     18  C   LIG    1       -7.840   3.003  -2.723  0.00  0.00    +0.020 C 
ATOM     19  C   LIG    1       -6.366   2.607  -2.827  0.00  0.00    +0.010 C 
ENDBRANCH  17  19
ENDBRANCH  16  17
ENDBRANCH   1  16
BRANCH   1  20
ATOM     20  C   LIG    1       -2.787   5.460  -2.215  0.00  0.00    +0.350 C 
BRANCH  20  21
ATOM     21  C   LIG    1       -1.530   5.178  -2.998  0.00  0.00    +0.480 C 
ATOM     22  N   LIG    1       -0.956   6.157  -3.725  0.00  0.00    -0.670 N 
ATOM     23  H   LIG    1       -1.392   7.019  -3.809  0.00  0.00    +0.410 HD
ATOM     24  O   LIG    1       -1.037   4.071  -2.974  0.00  0.00    -0.500 OA
BRANCH  22  25
ATOM     25  C   LIG    1        0.271   5.929  -4.359  0.00  0.00    +0.140 A 
ATOM     26  C   LIG    1        1.138   4.962  -3.868  0.00  0.00    +0.020 A 
ATOM     27  C   LIG    1        2.346   4.735  -4.500  0.00  0.00    +0.020 A 
ATOM     28  C   LIG    1        2.696   5.479  -5.612  0.00  0.00    -0.100 A 
ATOM     29  C   LIG    1        1.837   6.447  -6.099  0.00  0.00    +0.030 A 
ATOM     30  C   LIG    1        4.018   5.234  -6.294  0.00  0.00    +0.100 C 
ATOM     31  C   LIG    1        0.626   6.674  -5.476  0.00  0.00    -0.110 A 
ATOM     32  C   LIG    1       -0.309   7.729  -6.007  0.00  0.00    +0.080 C 
ENDBRANCH  22  25
ENDBRANCH  20  21
ENDBRANCH   1  20
TORSDOF 9
