REMARK  Name = ZINCpk00000xT8cq.0
REMARK                            x       y       z     vdW  Elec       q    Type
REMARK                         _______ _______ _______ _____ _____    ______ ____
ROOT
ATOM      1  N   LIG    1        5.289   4.208  -0.107  0.00  0.00    -0.710 N 
ATOM      2  H   LIG    1        4.748   4.977   0.131  0.00  0.00    +0.410 HD
ATOM      3  C   LIG    1        4.709   3.004  -0.280  0.00  0.00    +0.610 C 
ATOM      4  O   LIG    1        5.387   2.040  -0.578  0.00  0.00    -0.520 OA
ENDROOT
BRANCH   3   5
ATOM      5  C   LIG    1        3.250   2.855  -0.105  0.00  0.00    -0.030 A 
ATOM      6  N   LIG    1        2.399   3.815   0.218  0.00  0.00    -0.220 NA
ATOM      7  N   LIG    1        1.210   3.356   0.288  0.00  0.00    -0.270 N 
ATOM      8  C   LIG    1       -0.044   4.046   0.610  0.00  0.00    +0.340 C 
ATOM      9  C   LIG    1       -1.197   3.362  -0.121  0.00  0.00    +0.300 C 
ATOM     10  N   LIG    1       -1.175   1.912   0.018  0.00  0.00    -0.730 N 
ATOM     11  H   LIG    1       -2.014   1.435   0.124  0.00  0.00    +0.410 HD
ATOM     12  C   LIG    1       -0.014   1.212   0.009  0.00  0.00    +0.600 C 
ATOM     13  O   LIG    1        0.002  -0.004   0.002  0.00  0.00    -0.500 OA
ATOM     14  C   LIG    1        1.226   2.006   0.001  0.00  0.00    -0.060 A 
ATOM     15  C   LIG    1        2.508   1.660  -0.253  0.00  0.00    +0.100 A 
ENDBRANCH   3   5
BRANCH   1  21
ATOM     16  C   LIG    1        8.460   6.151  -3.001  0.00  0.00    +0.140 A 
ATOM     17  C   LIG    1        7.965   5.604  -4.175  0.00  0.00    -0.070 A 
ATOM     18  C   LIG    1        7.020   4.597  -4.120  0.00  0.00    +0.050 A 
ATOM     19  C   LIG    1        6.571   4.138  -2.898  0.00  0.00    +0.000 A 
ATOM     20  C   LIG    1        7.063   4.681  -1.722  0.00  0.00    -0.070 A 
ATOM     21  C   LIG    1        6.736   4.356  -0.280  0.00  0.00    +0.300 C 
ATOM     22  C   LIG    1        7.252   5.562   0.533  0.00  0.00    +0.050 C 
ATOM     23  C   LIG    1        8.382   6.109  -0.367  0.00  0.00    +0.090 C 
ATOM     24  C   LIG    1        8.007   5.688  -1.772  0.00  0.00    -0.120 A 
BRANCH  16  25
ATOM     25  O   LIG    1        9.390   7.140  -3.053  0.00  0.00    -0.310 OA
BRANCH  25  27
ATOM     26  C   LIG    1       10.852   8.680  -4.208  0.00  0.00    +0.070 C 
ATOM     27  C   LIG    1        9.811   7.568  -4.350  0.00  0.00    +0.170 C 
ENDBRANCH  25  27
ENDBRANCH  16  25
ENDBRANCH   1  21
TORSDOF 4
