REMARK  Name = ZINCpe00000gM4T6.0
REMARK                            x       y       z     vdW  Elec       q    Type
REMARK                         _______ _______ _______ _____ _____    ______ ____
ROOT
ATOM      1  N   LIG    1       -1.357   3.425   0.039  0.00  0.00    -0.460 N 
ATOM      2  C   LIG    1       -0.603   3.992   1.165  0.00  0.00    +0.210 C 
ATOM      3  C   LIG    1       -0.571   5.519   1.038  0.00  0.00    +0.340 C 
ATOM      4  N   LIG    1       -1.953   6.005   0.906  0.00  0.00    -1.000 NA
ATOM      5  C   LIG    1       -2.815   5.386  -0.113  0.00  0.00    +0.310 C 
ATOM      6  C   LIG    1       -2.758   3.865   0.061  0.00  0.00    +0.230 C 
ENDROOT
BRANCH   1  11
ATOM      7  N   LIG    1        1.321  -0.364  -0.013  0.00  0.00    -0.370 N 
ATOM      8  N   LIG    1        2.062   0.827  -0.013  0.00  0.00    +0.010 NA
ATOM      9  N   LIG    1        1.256   1.831  -0.000  0.00  0.00    -0.180 NA
ATOM     10  C   LIG    1       -0.017   1.402   0.010  0.00  0.00    -0.130 A 
ATOM     11  C   LIG    1       -1.271   2.046   0.030  0.00  0.00    +0.470 A 
ATOM     12  N   LIG    1       -2.367   1.297   0.032  0.00  0.00    -0.570 NA
ATOM     13  C   LIG    1       -2.297  -0.022   0.024  0.00  0.00    +0.590 A 
ATOM     14  N   LIG    1       -1.151  -0.668   0.009  0.00  0.00    -0.540 NA
ATOM     15  C   LIG    1        0.002  -0.004   0.002  0.00  0.00    +0.320 A 
BRANCH   7  17
ATOM     16  C   LIG    1        2.028  -2.194  -1.473  0.00  0.00    +0.050 C 
ATOM     17  C   LIG    1        1.855  -1.728  -0.026  0.00  0.00    +0.350 C 
ENDBRANCH   7  17
ENDBRANCH   1  11
BRANCH   4  18
ATOM     18  S   LIG    1       -2.524   7.218   1.879  0.00  0.00    +2.720 S 
ATOM     19  O   LIG    1       -3.607   7.816   1.182  0.00  0.00    -0.940 OA
ATOM     20  O   LIG    1       -1.386   7.947   2.321  0.00  0.00    -0.940 OA
BRANCH  18  21
ATOM     21  C   LIG    1       -3.213   6.457   3.311  0.00  0.00    -0.800 A 
ATOM     22  C   LIG    1       -2.544   6.177   4.431  0.00  0.00    +0.160 A 
ATOM     23  C   LIG    1       -3.297   5.579   5.427  0.00  0.00    -0.010 A 
ATOM     24  C   LIG    1       -4.576   5.366   5.112  0.00  0.00    +0.000 A 
ATOM     25  S   LIG    1       -4.887   5.943   3.480  0.00  0.00    +0.220 S 
ENDBRANCH  18  21
ENDBRANCH   4  18
TORSDOF 4
