REMARK  Name = ZINCqH0000002HZi.0
REMARK                            x       y       z     vdW  Elec       q    Type
REMARK                         _______ _______ _______ _____ _____    ______ ____
ROOT
ATOM      1  C   LIG    1       -0.945   1.720  -6.008  0.00  0.00    +0.560 C 
ATOM      2  N   LIG    1       -0.433   1.368  -7.204  0.00  0.00    -0.730 N 
ATOM      3  H   LIG    1        0.365   0.819  -7.248  0.00  0.00    +0.400 HD
ATOM      4  O   LIG    1       -1.945   2.408  -5.953  0.00  0.00    -0.530 OA
ENDROOT
BRANCH   1   9
ATOM      5  C   LIG    1       -0.194   1.208  -2.360  0.00  0.00    +0.130 A 
ATOM      6  C   LIG    1        0.952   0.427  -2.429  0.00  0.00    -0.050 A 
ATOM      7  C   LIG    1        1.472   0.062  -3.657  0.00  0.00    +0.050 A 
ATOM      8  C   LIG    1        0.862   0.480  -4.822  0.00  0.00    +0.000 A 
ATOM      9  C   LIG    1       -0.288   1.270  -4.762  0.00  0.00    -0.100 A 
ATOM     10  C   LIG    1       -0.815   1.633  -3.522  0.00  0.00    +0.060 A 
BRANCH   5  11
ATOM     11  O   LIG    1       -0.704   1.559  -1.150  0.00  0.00    -0.310 OA
BRANCH  11  12
ATOM     12  C   LIG    1       -0.013   1.086   0.008  0.00  0.00    +0.180 C 
BRANCH  12  14
ATOM     13  C   LIG    1        0.011   1.072   2.506  0.00  0.00    +0.040 C 
ATOM     14  C   LIG    1       -0.729   1.579   1.267  0.00  0.00    +0.020 C 
ENDBRANCH  12  14
ENDBRANCH  11  12
ENDBRANCH   5  11
ENDBRANCH   1   9
BRANCH   2  15
ATOM     15  C   LIG    1       -1.084   1.814  -8.438  0.00  0.00    +0.280 C 
BRANCH  15  16
ATOM     16  C   LIG    1       -0.309   1.281  -9.645  0.00  0.00    +0.260 C 
BRANCH  16  17
ATOM     17  N   LIG    1       -0.187  -0.176  -9.542  0.00  0.00    -0.710 N 
ATOM     18  H   LIG    1       -0.838  -0.682  -9.031  0.00  0.00    +0.410 HD
ATOM     19  C   LIG    1        0.829  -0.812 -10.158  0.00  0.00    +0.650 C 
ATOM     20  O   LIG    1        1.644  -0.178 -10.798  0.00  0.00    -0.560 OA
BRANCH  19  21
ATOM     21  O   LIG    1        0.941  -2.150 -10.063  0.00  0.00    -0.370 OA
BRANCH  21  22
ATOM     22  C   LIG    1        2.060  -2.768 -10.752  0.00  0.00    +0.140 C 
ATOM     23  C   LIG    1        1.967  -2.468 -12.249  0.00  0.00    +0.040 C 
ATOM     24  C   LIG    1        2.022  -4.282 -10.531  0.00  0.00    +0.080 C 
ATOM     25  C   LIG    1        3.372  -2.206 -10.200  0.00  0.00    +0.040 C 
ENDBRANCH  21  22
ENDBRANCH  19  21
ENDBRANCH  16  17
BRANCH  16  26
ATOM     26  C   LIG    1       -1.056   1.641 -10.931  0.00  0.00    -0.020 C 
ATOM     27  C   LIG    1       -0.281   1.107 -12.137  0.00  0.00    +0.030 C 
ATOM     28  C   LIG    1       -1.183   3.161 -11.038  0.00  0.00    +0.030 C 
ENDBRANCH  16  26
ENDBRANCH  15  16
ENDBRANCH   2  15
TORSDOF 10
