REMARK  Name = ZINCqH0000005QZj.0
REMARK                            x       y       z     vdW  Elec       q    Type
REMARK                         _______ _______ _______ _____ _____    ______ ____
ROOT
ATOM      1  N   LIG    1       -2.103  -3.905  -1.815  0.00  0.00    -0.650 N 
ATOM      2  H   LIG    1       -2.451  -3.975  -0.912  0.00  0.00    +0.430 HD
ATOM      3  C   LIG    1       -1.315  -2.865  -2.155  0.00  0.00    +0.600 C 
ATOM      4  O   LIG    1       -0.798  -2.829  -3.255  0.00  0.00    -0.480 OA
ENDROOT
BRANCH   1   8
ATOM      5  C   LIG    1       -3.046  -6.820  -4.640  0.00  0.00    -0.170 A 
ATOM      6  C   LIG    1       -3.072  -7.130  -3.276  0.00  0.00    +0.170 A 
ATOM      7  C   LIG    1       -2.755  -6.166  -2.346  0.00  0.00    -0.100 A 
ATOM      8  C   LIG    1       -2.418  -4.879  -2.760  0.00  0.00    +0.230 A 
ATOM      9  C   LIG    1       -2.390  -4.565  -4.115  0.00  0.00    +0.010 A 
ATOM     10 CL   LIG    1       -2.781  -6.552  -0.654  0.00  0.00    -0.040 Cl
ATOM     11  C   LIG    1       -2.702  -5.527  -5.054  0.00  0.00    +0.200 A 
ATOM     12  F   LIG    1       -2.674  -5.222  -6.370  0.00  0.00    -0.100 F 
BRANCH   5  13
ATOM     13  C   LIG    1       -3.379  -7.851  -5.638  0.00  0.00    +0.510 C 
ATOM     14  O   LIG    1       -3.355  -7.580  -6.822  0.00  0.00    -0.490 OA
BRANCH  13  16
ATOM     15  C   LIG    1       -4.026 -10.059  -6.276  0.00  0.00    +0.290 C 
ATOM     16  O   LIG    1       -3.710  -9.095  -5.238  0.00  0.00    -0.350 OA
ENDBRANCH  13  16
ENDBRANCH   5  13
ENDBRANCH   1   8
BRANCH   3  17
ATOM     17  C   LIG    1       -1.081  -1.772  -1.193  0.00  0.00    +0.040 C 
ATOM     18  N   LIG    1       -1.570  -1.695  -0.002  0.00  0.00    -0.230 NA
ATOM     19  O   LIG    1       -1.171  -0.524   0.682  0.00  0.00    -0.160 OA
ATOM     20  C   LIG    1       -0.022   0.012  -0.005  0.00  0.00    +0.200 C 
ATOM     21  C   LIG    1       -0.221  -0.545  -1.435  0.00  0.00    +0.120 C 
BRANCH  20  22
ATOM     22  C   LIG    1       -0.047   1.519  -0.004  0.00  0.00    -0.100 A 
ATOM     23  C   LIG    1       -1.256   2.190  -0.005  0.00  0.00    +0.030 A 
ATOM     24  C   LIG    1       -1.279   3.572   0.000  0.00  0.00    +0.010 A 
ATOM     25  C   LIG    1       -0.094   4.283  -0.004  0.00  0.00    +0.020 A 
ATOM     26  C   LIG    1        1.115   3.612  -0.008  0.00  0.00    +0.010 A 
ATOM     27  C   LIG    1        1.138   2.230  -0.008  0.00  0.00    +0.030 A 
ENDBRANCH  20  22
ENDBRANCH   3  17
TORSDOF 5
