REMARK  Name = ZINCrD0000071xD1.1
REMARK                            x       y       z     vdW  Elec       q    Type
REMARK                         _______ _______ _______ _____ _____    ______ ____
ROOT
ATOM      1  N   LIG    1        1.670   1.466   1.726  0.00  0.00    -0.670 N 
ATOM      2  H   LIG    1        2.050   1.094   0.914  0.00  0.00    +0.410 HD
ATOM      3  C   LIG    1        2.466   1.736   2.779  0.00  0.00    +0.560 C 
ATOM      4  O   LIG    1        2.010   2.294   3.758  0.00  0.00    -0.510 OA
ENDROOT
BRANCH   1   9
ATOM      5  C   LIG    1       -1.736   1.814   3.077  0.00  0.00    +0.160 A 
ATOM      6  C   LIG    1       -2.423   2.233   1.945  0.00  0.00    +0.000 A 
ATOM      7  C   LIG    1       -1.750   2.401   0.749  0.00  0.00    +0.050 A 
ATOM      8  C   LIG    1       -0.396   2.142   0.673  0.00  0.00    -0.120 A 
ATOM      9  C   LIG    1        0.298   1.723   1.802  0.00  0.00    +0.160 A 
ATOM     10  C   LIG    1        0.332   2.320  -0.634  0.00  0.00    +0.090 C 
ATOM     11  C   LIG    1       -0.373   1.559   3.005  0.00  0.00    +0.000 A 
BRANCH   5  13
ATOM     12  C   LIG    1       -3.689   1.206   4.291  0.00  0.00    +0.510 C 
ATOM     13  N   LIG    1       -2.416   1.650   4.288  0.00  0.00    -0.680 N 
ATOM     14  H   LIG    1       -1.972   1.854   5.126  0.00  0.00    +0.410 HD
ATOM     15  O   LIG    1       -4.212   0.856   3.255  0.00  0.00    -0.520 OA
BRANCH  12  17
ATOM     16  C   LIG    1       -5.870   0.611   5.310  0.00  0.00    +0.040 C 
ATOM     17  C   LIG    1       -4.463   1.146   5.583  0.00  0.00    +0.060 C 
ENDBRANCH  12  17
ENDBRANCH   5  13
ENDBRANCH   1   9
BRANCH   3  18
ATOM     18  C   LIG    1        3.893   1.353   2.744  0.00  0.00    -0.140 A 
ATOM     19  C   LIG    1        4.419   0.707   1.624  0.00  0.00    +0.040 A 
ATOM     20  C   LIG    1        5.753   0.358   1.596  0.00  0.00    +0.020 A 
ATOM     21  C   LIG    1        6.567   0.637   2.679  0.00  0.00    -0.050 A 
ATOM     22  C   LIG    1        6.052   1.271   3.795  0.00  0.00    +0.030 A 
ATOM     23  C   LIG    1        4.720   1.631   3.834  0.00  0.00    +0.080 A 
BRANCH  21  24
ATOM     24  C   LIG    1        8.023   0.247   2.644  0.00  0.00    +0.220 C 
BRANCH  24  25
ATOM     25  C   LIG    1        8.184  -1.144   3.200  0.00  0.00    +0.230 A 
ATOM     26  N   LIG    1        8.133  -2.250   2.505  0.00  0.00    -0.310 NA
ATOM     27  N   LIG    1        8.332  -3.307   3.409  0.00  0.00    -0.480 N 
ATOM     28  H   LIG    1        8.350  -4.254   3.202  0.00  0.00    +0.440 HD
ATOM     29  C   LIG    1        8.494  -2.744   4.619  0.00  0.00    +0.490 A 
ATOM     30  N   LIG    1        8.408  -1.446   4.478  0.00  0.00    -0.540 NA
ENDBRANCH  24  25
ENDBRANCH  21  24
ENDBRANCH   3  18
TORSDOF 6
