REMARK  Name = ZINCpk00000y6uZK.0
REMARK                            x       y       z     vdW  Elec       q    Type
REMARK                         _______ _______ _______ _____ _____    ______ ____
ROOT
ATOM      1  C   LIG    1       -1.839   2.640  -1.173  0.00  0.00    +0.610 C 
ATOM      2  N   LIG    1       -0.596   2.119  -1.202  0.00  0.00    -0.700 N 
ATOM      3  H   LIG    1       -0.084   2.132  -2.026  0.00  0.00    +0.410 HD
ATOM      4  O   LIG    1       -2.481   2.624  -0.141  0.00  0.00    -0.520 OA
ENDROOT
BRANCH   1  10
ATOM      5  C   LIG    1       -4.749   3.954  -1.441  0.00  0.00    +0.140 C 
ATOM      6  C   LIG    1       -3.705   3.812  -2.518  0.00  0.00    -0.130 A 
ATOM      7  C   LIG    1       -3.799   4.214  -3.808  0.00  0.00    +0.170 A 
ATOM      8  N   LIG    1       -2.629   3.886  -4.415  0.00  0.00    -0.230 N 
ATOM      9  N   LIG    1       -1.839   3.320  -3.575  0.00  0.00    -0.260 NA
ATOM     10  C   LIG    1       -2.421   3.231  -2.395  0.00  0.00    -0.010 A 
BRANCH   8  11
ATOM     11  C   LIG    1       -2.326   4.134  -5.761  0.00  0.00    +0.130 A 
ATOM     12  C   LIG    1       -3.260   4.754  -6.581  0.00  0.00    +0.000 A 
ATOM     13  C   LIG    1       -2.956   5.002  -7.905  0.00  0.00    +0.040 A 
ATOM     14  C   LIG    1       -1.729   4.623  -8.418  0.00  0.00    +0.010 A 
ATOM     15  C   LIG    1       -0.799   4.000  -7.604  0.00  0.00    +0.040 A 
ATOM     16  C   LIG    1       -1.095   3.755  -6.278  0.00  0.00    +0.030 A 
ENDBRANCH   8  11
ENDBRANCH   1  10
BRANCH   2  17
ATOM     17  C   LIG    1       -0.019   1.534   0.011  0.00  0.00    +0.260 C 
ATOM     18  C   LIG    1        0.002  -0.004   0.002  0.00  0.00    +0.020 C 
ATOM     19  C   LIG    1        1.394   0.090   0.649  0.00  0.00    +0.180 C 
ATOM     20  C   LIG    1        1.518   1.476  -0.004  0.00  0.00    +0.270 C 
BRANCH  20  21
ATOM     21  N   LIG    1        2.151   2.477   0.858  0.00  0.00    -0.360 N 
ATOM     22  C   LIG    1        2.390   2.349   2.180  0.00  0.00    +0.220 A 
ATOM     23  C   LIG    1        2.986   3.487   2.604  0.00  0.00    -0.120 A 
ATOM     24  C   LIG    1        3.116   4.340   1.503  0.00  0.00    +0.230 A 
ATOM     25  N   LIG    1        2.620   3.734   0.455  0.00  0.00    -0.290 NA
ENDBRANCH  20  21
BRANCH  19  26
ATOM     26  O   LIG    1        2.326  -0.869   0.143  0.00  0.00    -0.550 OA
ATOM     27  H   LIG    1        2.222  -1.754   0.518  0.00  0.00    +0.390 HD
ENDBRANCH  19  26
ENDBRANCH   2  17
TORSDOF 5
