REMARK  Name = ZINCrH000004pzEy.0
REMARK                            x       y       z     vdW  Elec       q    Type
REMARK                         _______ _______ _______ _____ _____    ______ ____
ROOT
ATOM      1  C   LIG    1       -3.694   6.144   0.190  0.00  0.00    +0.020 A 
ATOM      2  N   LIG    1       -2.454   5.854  -0.154  0.00  0.00    -0.240 NA
ATOM      3  N   LIG    1       -2.275   4.582  -0.127  0.00  0.00    -0.220 N 
ATOM      4  C   LIG    1       -3.425   3.955   0.242  0.00  0.00    -0.020 A 
ATOM      5  C   LIG    1       -4.026   2.591   0.496  0.00  0.00    +0.130 C 
ATOM      6  C   LIG    1       -5.554   2.816   0.474  0.00  0.00    +0.060 C 
ATOM      7  C   LIG    1       -5.662   4.306   0.878  0.00  0.00    +0.110 C 
ATOM      8  C   LIG    1       -4.347   4.918   0.457  0.00  0.00    -0.150 A 
ENDROOT
BRANCH   3   9
ATOM      9  C   LIG    1       -1.072   3.934  -0.439  0.00  0.00    +0.120 A 
ATOM     10  C   LIG    1       -0.992   2.550  -0.382  0.00  0.00    +0.060 A 
ATOM     11  C   LIG    1        0.198   1.913  -0.684  0.00  0.00    -0.030 A 
ATOM     12  C   LIG    1        1.306   2.655  -1.054  0.00  0.00    +0.070 A 
ATOM     13  C   LIG    1        1.229   4.034  -1.118  0.00  0.00    +0.040 A 
ATOM     14 CL   LIG    1        0.299   0.182  -0.606  0.00  0.00    -0.040 Cl
ATOM     15  C   LIG    1        0.044   4.677  -0.811  0.00  0.00    +0.120 A 
ATOM     16  F   LIG    1       -0.030   6.024  -0.872  0.00  0.00    -0.110 F 
ENDBRANCH   3   9
BRANCH   1  18
ATOM     17  N   LIG    1       -3.510   8.583   0.131  0.00  0.00    -0.590 N 
ATOM     18  C   LIG    1       -4.288   7.492   0.280  0.00  0.00    +0.600 C 
ATOM     19  O   LIG    1       -5.479   7.620   0.488  0.00  0.00    -0.530 OA
ATOM     20  C   LIG    1       -2.090   8.430  -0.195  0.00  0.00    +0.300 C 
BRANCH  17  22
ATOM     21  C   LIG    1       -3.763  10.768  -0.938  0.00  0.00    +0.040 C 
ATOM     22  C   LIG    1       -4.084   9.921   0.295  0.00  0.00    +0.250 C 
BRANCH  22  23
ATOM     23  C   LIG    1       -3.487  10.583   1.539  0.00  0.00    +0.150 C 
ATOM     24  C   LIG    1       -3.691   9.673   2.766  0.00  0.00    +0.010 C 
ATOM     25  C   LIG    1       -2.256   9.407   3.284  0.00  0.00    +0.000 C 
ATOM     26  C   LIG    1       -1.464  10.588   2.666  0.00  0.00    +0.200 C 
ATOM     27  O   LIG    1       -2.071  10.761   1.365  0.00  0.00    -0.370 OA
ENDBRANCH  22  23
ENDBRANCH  17  22
ENDBRANCH   1  18
TORSDOF 4
