REMARK  Name = ZINCvU0000000Fhy.0
REMARK                            x       y       z     vdW  Elec       q    Type
REMARK                         _______ _______ _______ _____ _____    ______ ____
ROOT
ATOM      1  C   LIG    1        1.429  -2.291  -1.628  0.00  0.00    +0.560 C 
ATOM      2  N   LIG    1        0.508  -1.551  -0.743  0.00  0.00    -0.740 N 
ATOM      3  H   LIG    1       -0.333  -1.932  -0.444  0.00  0.00    +0.430 HD
ATOM      4  C   LIG    1        0.915  -0.271  -0.360  0.00  0.00    +0.240 A 
ATOM      5  C   LIG    1        0.029   0.775  -0.200  0.00  0.00    -0.010 A 
ATOM      6  C   LIG    1        0.505   2.021   0.168  0.00  0.00    +0.130 A 
ATOM      7  C   LIG    1        1.861   2.224   0.373  0.00  0.00    -0.130 A 
ATOM      8  C   LIG    1        2.759   1.185   0.219  0.00  0.00    +0.170 A 
ATOM      9 BR   LIG    1        2.487   3.939   0.867  0.00  0.00    -0.030 Br
ATOM     10  C   LIG    1        2.292  -0.074  -0.144  0.00  0.00    -0.130 A 
ATOM     11  C   LIG    1        3.197  -1.228  -0.306  0.00  0.00    +0.450 A 
ATOM     12  N   LIG    1        4.404  -1.194   0.230  0.00  0.00    -0.560 NA
ATOM     13  C   LIG    1        5.210  -2.260   0.111  0.00  0.00    +0.490 A 
ATOM     14  C   LIG    1        4.691  -3.436  -0.612  0.00  0.00    +0.060 A 
ATOM     15  N   LIG    1        3.483  -3.377  -1.120  0.00  0.00    -0.210 NA
ATOM     16  O   LIG    1        6.335  -2.256   0.584  0.00  0.00    -0.470 OA
ATOM     17  N   LIG    1        2.759  -2.320  -0.999  0.00  0.00    -0.370 N 
ENDROOT
BRANCH  14  18
ATOM     18  C   LIG    1        5.517  -4.657  -0.762  0.00  0.00    -0.040 A 
ATOM     19  C   LIG    1        5.318  -5.507  -1.849  0.00  0.00    +0.050 A 
ATOM     20  C   LIG    1        6.094  -6.640  -1.985  0.00  0.00    +0.000 A 
ATOM     21  C   LIG    1        7.060  -6.939  -1.041  0.00  0.00    +0.030 A 
ATOM     22  C   LIG    1        7.257  -6.102   0.043  0.00  0.00    +0.010 A 
ATOM     23  C   LIG    1        6.492  -4.963   0.187  0.00  0.00    +0.070 A 
ENDBRANCH  14  18
BRANCH   1  26
ATOM     24  C   LIG    1        0.995  -3.750  -4.020  0.00  0.00    +0.100 C 
ATOM     25  C   LIG    1        1.253  -2.267  -4.076  0.00  0.00    -0.020 C 
ATOM     26  C   LIG    1        1.515  -1.597  -2.963  0.00  0.00    -0.070 C 
BRANCH  25  27
ATOM     27  C   LIG    1        1.214  -1.558  -5.373  0.00  0.00    -0.070 A 
ATOM     28  C   LIG    1        0.233  -0.597  -5.617  0.00  0.00    +0.020 A 
ATOM     29  C   LIG    1        0.205   0.064  -6.828  0.00  0.00    +0.010 A 
ATOM     30  C   LIG    1        1.141  -0.232  -7.803  0.00  0.00    +0.010 A 
ATOM     31  C   LIG    1        2.114  -1.188  -7.569  0.00  0.00    +0.010 A 
ATOM     32  C   LIG    1        2.155  -1.852  -6.360  0.00  0.00    +0.020 A 
ENDBRANCH  25  27
ENDBRANCH   1  26
TORSDOF 3
