REMARK  Name = ZINCqH0000006V2v.1
REMARK                            x       y       z     vdW  Elec       q    Type
REMARK                         _______ _______ _______ _____ _____    ______ ____
ROOT
ATOM      1  N   LIG    1       -0.018   1.465   0.010  0.00  0.00    -0.680 NA
ATOM      2  H   LIG    1        0.919   1.839   0.003  0.00  0.00    +0.340 HD
ENDROOT
BRANCH   1   3
ATOM      3  C   LIG    1        0.002  -0.004   0.002  0.00  0.00    +0.200 C 
ATOM      4  C   LIG    1       -1.246  -0.535   0.710  0.00  0.00    +0.060 C 
BRANCH   3   7
ATOM      5  C   LIG    1        3.068  -2.027   0.889  0.00  0.00    +0.140 A 
ATOM      6  C   LIG    1        1.932  -1.580   0.230  0.00  0.00    +0.060 A 
ATOM      7  C   LIG    1        1.233  -0.494   0.720  0.00  0.00    -0.050 A 
ATOM      8  C   LIG    1        1.658   0.141   1.873  0.00  0.00    +0.090 A 
ATOM      9  C   LIG    1        2.787  -0.307   2.535  0.00  0.00    -0.000 A 
ATOM     10  C   LIG    1        3.493  -1.389   2.046  0.00  0.00    +0.010 A 
BRANCH   9  11
ATOM     11  N   LIG    1        3.239   0.374   3.768  0.00  0.00    +0.030 N 
ATOM     12  O   LIG    1        4.233  -0.019   4.352  0.00  0.00    -0.160 OA
ATOM     13  O   LIG    1        2.618   1.329   4.200  0.00  0.00    -0.150 OA
ENDBRANCH   9  11
BRANCH   5  15
ATOM     14  C   LIG    1        4.917  -3.501   1.139  0.00  0.00    +0.250 C 
ATOM     15  O   LIG    1        3.761  -3.092   0.406  0.00  0.00    -0.300 OA
ENDBRANCH   5  15
ENDBRANCH   3   7
ENDBRANCH   1   3
BRANCH   1  16
ATOM     16  C   LIG    1       -0.802   1.987  -1.117  0.00  0.00    +0.240 C 
BRANCH  16  17
ATOM     17  C   LIG    1       -0.799   3.493  -1.076  0.00  0.00    -0.110 A 
ATOM     18  C   LIG    1       -1.888   4.171  -0.560  0.00  0.00    +0.070 A 
ATOM     19  C   LIG    1       -1.891   5.553  -0.519  0.00  0.00    -0.070 A 
ATOM     20  C   LIG    1       -0.800   6.262  -0.997  0.00  0.00    +0.120 A 
ATOM     21  C   LIG    1        0.296   5.580  -1.517  0.00  0.00    +0.060 A 
ATOM     22  C   LIG    1        0.294   4.195  -1.549  0.00  0.00    -0.060 A 
ATOM     23  C   LIG    1        1.483   3.453  -2.104  0.00  0.00    +0.100 C 
BRANCH  21  24
ATOM     24  O   LIG    1        1.369   6.271  -1.986  0.00  0.00    -0.320 OA
ATOM     25  C   LIG    1        2.409   6.568  -1.052  0.00  0.00    +0.210 C 
ENDBRANCH  21  24
BRANCH  20  26
ATOM     26  O   LIG    1       -0.801   7.621  -0.958  0.00  0.00    -0.310 OA
ATOM     27  C   LIG    1       -1.960   8.254  -0.411  0.00  0.00    +0.240 C 
ENDBRANCH  20  26
ENDBRANCH  16  17
ENDBRANCH   1  16
TORSDOF 8
