REMARK  Name = ZINCtV00001bB3PS.0
REMARK                            x       y       z     vdW  Elec       q    Type
REMARK                         _______ _______ _______ _____ _____    ______ ____
ROOT
ATOM      1  C   LIG    1        5.885  -1.358   0.367  0.00  0.00    -0.000 C 
ATOM      2  C   LIG    1        5.676  -2.674   0.354  0.00  0.00    -0.120 C 
ATOM      3  C   LIG    1        6.769  -3.689   0.518  0.00  0.00    +0.100 C 
ATOM      4  C   LIG    1        8.133  -3.039   0.282  0.00  0.00    +0.020 C 
ATOM      5  C   LIG    1        8.217  -1.760   1.125  0.00  0.00    +0.020 C 
ATOM      6  C   LIG    1        7.237  -0.734   0.550  0.00  0.00    +0.110 C 
ENDROOT
BRANCH   1   8
ATOM      7  N   LIG    1        4.946   0.793   0.107  0.00  0.00    -0.310 NA
ATOM      8  C   LIG    1        4.769  -0.502   0.205  0.00  0.00    +0.270 C 
BRANCH   7  19
ATOM      9  C   LIG    1        1.666   3.529  -0.508  0.00  0.00    +0.330 C 
ATOM     10  N   LIG    1        3.090   3.875  -0.527  0.00  0.00    -0.510 N 
ATOM     11  C   LIG    1        3.503   5.180  -0.726  0.00  0.00    +0.140 A 
ATOM     12  C   LIG    1        2.700   6.315  -0.916  0.00  0.00    +0.010 A 
ATOM     13  C   LIG    1        3.266   7.556  -1.096  0.00  0.00    +0.060 A 
ATOM     14  C   LIG    1        4.641   7.715  -1.087  0.00  0.00    +0.010 A 
ATOM     15  C   LIG    1        5.451   6.613  -0.894  0.00  0.00    +0.100 A 
ATOM     16  C   LIG    1        4.886   5.362  -0.714  0.00  0.00    -0.160 A 
ATOM     17  S   LIG    1        5.600   3.766  -0.448  0.00  0.00    +0.040 S 
ATOM     18  C   LIG    1        4.046   2.921  -0.355  0.00  0.00    +0.410 A 
ATOM     19  N   LIG    1        3.855   1.630  -0.158  0.00  0.00    -0.420 NA
ENDBRANCH   7  19
ENDBRANCH   1   8
BRANCH   2  20
ATOM     20  S   LIG    1        4.028  -3.254   0.125  0.00  0.00    +0.090 S 
BRANCH  20  21
ATOM     21  C   LIG    1        3.747  -4.005   1.694  0.00  0.00    +0.080 A 
ATOM     22  N   LIG    1        4.567  -3.963   2.688  0.00  0.00    -0.450 NA
ATOM     23  C   LIG    1        4.208  -4.584   3.828  0.00  0.00    +0.090 A 
ATOM     24  C   LIG    1        4.918  -4.678   5.044  0.00  0.00    +0.080 A 
ATOM     25  C   LIG    1        4.388  -5.365   6.107  0.00  0.00    +0.040 A 
ATOM     26  C   LIG    1        3.148  -5.977   6.005  0.00  0.00    +0.040 A 
ATOM     27  C   LIG    1        2.437  -5.899   4.827  0.00  0.00    +0.060 A 
ATOM     28  C   LIG    1        2.958  -5.206   3.739  0.00  0.00    -0.170 A 
ATOM     29  S   LIG    1        2.311  -4.925   2.124  0.00  0.00    +0.100 S 
ENDBRANCH  20  21
ENDBRANCH   2  20
TORSDOF 4
