REMARK  Name = ZINCpk00000eaF7S.0
REMARK                            x       y       z     vdW  Elec       q    Type
REMARK                         _______ _______ _______ _____ _____    ______ ____
ROOT
ATOM      1  C   LIG    1        3.590   1.798  -0.396  0.00  0.00    +0.090 C 
ATOM      2  C   LIG    1        2.436   0.869  -0.016  0.00  0.00    +0.240 C 
ENDROOT
BRANCH   2   3
ATOM      3  C   LIG    1        1.147   1.649   0.000  0.00  0.00    +0.450 A 
ATOM      4  N   LIG    1        1.213   2.951   0.006  0.00  0.00    -0.570 NA
ATOM      5  C   LIG    1        0.105   3.717   0.021  0.00  0.00    +0.530 A 
ATOM      6  C   LIG    1       -1.205   3.042   0.030  0.00  0.00    -0.210 A 
ATOM      7  C   LIG    1       -2.403   3.751   0.045  0.00  0.00    +0.110 A 
ATOM      8  C   LIG    1       -3.597   3.064   0.036  0.00  0.00    -0.010 A 
ATOM      9  C   LIG    1       -3.611   1.677   0.028  0.00  0.00    +0.090 A 
ATOM     10  C   LIG    1       -2.432   0.961   0.019  0.00  0.00    -0.020 A 
ATOM     11  C   LIG    1       -1.219   1.635   0.017  0.00  0.00    +0.170 A 
ATOM     12  O   LIG    1        0.184   4.934   0.027  0.00  0.00    -0.470 OA
ATOM     13  N   LIG    1       -0.011   0.966   0.007  0.00  0.00    -0.620 N 
ATOM     14  H   LIG    1        0.002  -0.004   0.002  0.00  0.00    +0.420 HD
ENDBRANCH   2   3
BRANCH   2  15
ATOM     15  O   LIG    1        2.679   0.308   1.301  0.00  0.00    -0.350 OA
BRANCH  15  16
ATOM     16  C   LIG    1        3.359  -0.848   1.356  0.00  0.00    +0.450 C 
ATOM     17  O   LIG    1        3.739  -1.374   0.337  0.00  0.00    -0.490 OA
BRANCH  16  18
ATOM     18  C   LIG    1        3.649  -1.490   2.688  0.00  0.00    +0.410 C 
BRANCH  18  19
ATOM     19  N   LIG    1        4.397  -2.732   2.480  0.00  0.00    -0.570 N 
ATOM     20  C   LIG    1        3.681  -3.997   2.302  0.00  0.00    +0.320 C 
BRANCH  19  21
ATOM     21  C   LIG    1        5.781  -2.709   2.450  0.00  0.00    +0.570 A 
ATOM     22  N   LIG    1        6.412  -1.555   2.607  0.00  0.00    -0.570 NA
ATOM     23  C   LIG    1        7.734  -1.500   2.590  0.00  0.00    +0.360 A 
ATOM     24  C   LIG    1        8.457  -2.666   2.393  0.00  0.00    -0.140 A 
ATOM     25  C   LIG    1        7.764  -3.855   2.227  0.00  0.00    +0.360 A 
ATOM     26  N   LIG    1        6.442  -3.841   2.261  0.00  0.00    -0.560 NA
ENDBRANCH  19  21
ENDBRANCH  18  19
ENDBRANCH  16  18
ENDBRANCH  15  16
ENDBRANCH   2  15
TORSDOF 6
