REMARK  Name = ZINCvU000000044X.0
REMARK                            x       y       z     vdW  Elec       q    Type
REMARK                         _______ _______ _______ _____ _____    ______ ____
ROOT
ATOM      1  N   LIG    1       -0.071   7.958  -1.641  0.00  0.00    -0.740 N 
ATOM      2  H   LIG    1        0.894   7.857  -1.629  0.00  0.00    +0.400 HD
ATOM      3  C   LIG    1       -0.856   7.004  -1.102  0.00  0.00    +0.710 C 
ATOM      4  N   LIG    1       -0.300   5.909  -0.547  0.00  0.00    -0.730 N 
ATOM      5  H   LIG    1        0.665   5.807  -0.535  0.00  0.00    +0.410 HD
ATOM      6  O   LIG    1       -2.065   7.131  -1.117  0.00  0.00    -0.570 OA
ENDROOT
BRANCH   4   7
ATOM      7  C   LIG    1       -1.153   4.872   0.039  0.00  0.00    +0.360 C 
ATOM      8  C   LIG    1       -1.497   5.249   1.482  0.00  0.00    +0.060 C 
BRANCH   7   9
ATOM      9  C   LIG    1       -0.423   3.554   0.025  0.00  0.00    +0.280 A 
ATOM     10  N   LIG    1        0.871   3.419   0.012  0.00  0.00    -0.490 NA
ATOM     11  C   LIG    1        1.193   2.099   0.002  0.00  0.00    +0.050 A 
ATOM     12  C   LIG    1        2.404   1.403  -0.013  0.00  0.00    +0.070 A 
ATOM     13  C   LIG    1        2.403   0.036  -0.021  0.00  0.00    +0.000 A 
ATOM     14  C   LIG    1        1.209  -0.671  -0.013  0.00  0.00    +0.030 A 
ATOM     15  C   LIG    1        0.002  -0.004   0.002  0.00  0.00    +0.010 A 
ATOM     16  C   LIG    1       -0.017   1.384   0.010  0.00  0.00    +0.050 A 
ATOM     17  N   LIG    1       -1.020   2.332   0.019  0.00  0.00    -0.590 N 
ATOM     18  H   LIG    1       -1.975   2.159   0.021  0.00  0.00    +0.420 HD
ENDBRANCH   7   9
ENDBRANCH   4   7
BRANCH   1  19
ATOM     19  C   LIG    1       -0.675   9.149  -2.245  0.00  0.00    +0.320 C 
BRANCH  19  24
ATOM     20  C   LIG    1        3.114  13.509  -2.109  0.00  0.00    +0.090 C 
ATOM     21  C   LIG    1        2.126  12.372  -2.144  0.00  0.00    -0.080 A 
ATOM     22  C   LIG    1        2.556  11.092  -2.440  0.00  0.00    +0.010 A 
ATOM     23  C   LIG    1        1.650  10.048  -2.468  0.00  0.00    +0.010 A 
ATOM     24  C   LIG    1        0.313  10.286  -2.209  0.00  0.00    -0.100 A 
ATOM     25  C   LIG    1       -0.116  11.566  -1.913  0.00  0.00    +0.020 A 
ATOM     26  C   LIG    1        0.790  12.609  -1.881  0.00  0.00    -0.080 A 
ATOM     27  C   LIG    1        0.321  14.005  -1.558  0.00  0.00    +0.090 C 
ENDBRANCH  19  24
BRANCH  19  28
ATOM     28  C   LIG    1       -1.054   8.848  -3.696  0.00  0.00    +0.060 C 
BRANCH  28  29
ATOM     29  C   LIG    1       -2.133   7.795  -3.725  0.00  0.00    -0.060 A 
ATOM     30  C   LIG    1       -1.791   6.457  -3.785  0.00  0.00    +0.010 A 
ATOM     31  C   LIG    1       -2.780   5.492  -3.807  0.00  0.00    -0.010 A 
ATOM     32  C   LIG    1       -4.111   5.864  -3.779  0.00  0.00    -0.010 A 
ATOM     33  C   LIG    1       -4.453   7.203  -3.724  0.00  0.00    +0.010 A 
ATOM     34  C   LIG    1       -3.464   8.168  -3.697  0.00  0.00    +0.010 A 
ENDBRANCH  28  29
ENDBRANCH  19  28
ENDBRANCH   1  19
TORSDOF 6
