REMARK  Name = ZINCfA000000bicU.2
REMARK                            x       y       z     vdW  Elec       q    Type
REMARK                         _______ _______ _______ _____ _____    ______ ____
ROOT
ATOM      1  C   LIG    1        1.684  -1.849  -0.024  0.00  0.00    +0.370 C 
ENDROOT
BRANCH   1   2
ATOM      2  N   LIG    1        1.919  -2.281  -1.408  0.00  0.00    -0.380 N 
ATOM      3  C   LIG    1        3.068  -1.552  -1.958  0.00  0.00    +0.250 C 
ATOM      4  C   LIG    1        3.267  -1.938  -3.426  0.00  0.00    +0.050 C 
ATOM      5  C   LIG    1        3.524  -3.445  -3.521  0.00  0.00    +0.030 C 
ATOM      6  C   LIG    1        2.353  -4.194  -2.877  0.00  0.00    +0.060 C 
ATOM      7  C   LIG    1        2.188  -3.724  -1.430  0.00  0.00    +0.170 C 
ATOM      8  C   LIG    1        1.019  -4.470  -0.783  0.00  0.00    +0.080 C 
ATOM      9  H   LIG    1        1.100  -2.085  -1.964  0.00  0.00    +0.420 HD
ENDBRANCH   1   2
BRANCH   1  12
ATOM     10  C   LIG    1        1.688   1.789  -0.004  0.00  0.00    +0.060 A 
ATOM     11  N   LIG    1        2.155   0.587  -0.015  0.00  0.00    -0.470 NA
ATOM     12  C   LIG    1        1.279  -0.398  -0.012  0.00  0.00    +0.000 A 
ATOM     13  C   LIG    1        0.002  -0.004   0.002  0.00  0.00    -0.050 A 
ATOM     14  S   LIG    1       -0.022   1.758   0.012  0.00  0.00    +0.210 S 
BRANCH  10  16
ATOM     15  C   LIG    1        2.797   3.472  -1.450  0.00  0.00    +0.050 C 
ATOM     16  C   LIG    1        2.527   3.041  -0.006  0.00  0.00    +0.140 C 
ENDBRANCH  10  16
ENDBRANCH   1  12
TORSDOF 3
