REMARK  Name = ZINCfA000000bicU.1
REMARK                            x       y       z     vdW  Elec       q    Type
REMARK                         _______ _______ _______ _____ _____    ______ ____
ROOT
ATOM      1  C   LIG    1       -1.374  -0.511   0.091  0.00  0.00    +0.360 C 
ENDROOT
BRANCH   1   2
ATOM      2  N   LIG    1        0.002  -0.004   0.002  0.00  0.00    -0.380 N 
ATOM      3  C   LIG    1       -0.018   1.464   0.010  0.00  0.00    +0.230 C 
ATOM      4  C   LIG    1        1.416   1.997  -0.001  0.00  0.00    +0.060 C 
ATOM      5  C   LIG    1        2.130   1.502  -1.262  0.00  0.00    +0.030 C 
ATOM      6  C   LIG    1        2.079  -0.029  -1.297  0.00  0.00    +0.060 C 
ATOM      7  C   LIG    1        0.621  -0.487  -1.238  0.00  0.00    +0.170 C 
ATOM      8  C   LIG    1       -0.139   0.078  -2.440  0.00  0.00    +0.080 C 
ATOM      9  H   LIG    1        0.534  -0.337   0.792  0.00  0.00    +0.430 HD
ENDBRANCH   1   2
BRANCH   1  12
ATOM     10  C   LIG    1       -2.344  -0.413   3.597  0.00  0.00    +0.060 A 
ATOM     11  N   LIG    1       -1.792  -0.846   2.514  0.00  0.00    -0.470 NA
ATOM     12  C   LIG    1       -1.966  -0.127   1.423  0.00  0.00    +0.010 A 
ATOM     13  C   LIG    1       -2.714   0.967   1.593  0.00  0.00    -0.060 A 
ATOM     14  S   LIG    1       -3.197   1.036   3.286  0.00  0.00    +0.210 S 
BRANCH  10  16
ATOM     15  C   LIG    1       -1.040  -0.557   5.701  0.00  0.00    +0.050 C 
ATOM     16  C   LIG    1       -2.255  -1.091   4.940  0.00  0.00    +0.140 C 
ENDBRANCH  10  16
ENDBRANCH   1  12
TORSDOF 3
