REMARK  Name = ZINCrD00000hQ5Gp.0
REMARK                            x       y       z     vdW  Elec       q    Type
REMARK                         _______ _______ _______ _____ _____    ______ ____
ROOT
ATOM      1  N   LIG    1       -2.007   8.395  -2.038  0.00  0.00    -0.620 NA
ATOM      2  C   LIG    1       -1.826   8.403  -0.597  0.00  0.00    +0.340 C 
ATOM      3  C   LIG    1       -0.913   7.249  -0.219  0.00  0.00    -0.270 A 
ATOM      4  C   LIG    1       -1.235   5.953  -0.411  0.00  0.00    +0.130 A 
ATOM      5  N   LIG    1       -0.211   5.190   0.030  0.00  0.00    -0.320 N 
ATOM      6  N   LIG    1        0.777   6.068   0.513  0.00  0.00    -0.300 NA
ATOM      7  C   LIG    1       -2.551   5.502  -1.032  0.00  0.00    +0.140 C 
ATOM      8  C   LIG    1       -2.490   5.930  -2.515  0.00  0.00    -0.090 C 
ATOM      9  C   LIG    1       -3.548   5.129  -3.288  0.00  0.00    +0.040 C 
ATOM     10  C   LIG    1       -1.116   5.614  -3.096  0.00  0.00    +0.020 C 
ATOM     11  C   LIG    1        0.350   7.300   0.362  0.00  0.00    +0.290 A 
ATOM     12  C   LIG    1       -2.807   7.400  -2.656  0.00  0.00    +0.250 C 
ENDROOT
BRANCH   5  13
ATOM     13  C   LIG    1       -0.132   3.795   0.023  0.00  0.00    +0.380 A 
ATOM     14  C   LIG    1        1.111   3.176   0.008  0.00  0.00    -0.020 A 
ATOM     15  C   LIG    1        1.175   1.793   0.001  0.00  0.00    +0.090 A 
ATOM     16  C   LIG    1       -0.013   1.076   0.008  0.00  0.00    -0.040 A 
ATOM     17  C   LIG    1       -1.214   1.758   0.017  0.00  0.00    +0.300 A 
ATOM     18  N   LIG    1       -1.243   3.076   0.029  0.00  0.00    -0.500 NA
ENDBRANCH   5  13
BRANCH   1  19
ATOM     19  C   LIG    1       -0.916   8.946  -2.817  0.00  0.00    +0.340 C 
BRANCH  19  23
ATOM     20  C   LIG    1        1.143  11.477  -0.581  0.00  0.00    -0.260 A 
ATOM     21  C   LIG    1        1.634  10.235  -0.533  0.00  0.00    +0.210 A 
ATOM     22  N   LIG    1        0.974   9.357  -1.261  0.00  0.00    -0.450 NA
ATOM     23  C   LIG    1       -0.042   9.792  -1.928  0.00  0.00    +0.050 A 
ATOM     24  S   LIG    1       -0.256  11.466  -1.651  0.00  0.00    +0.160 S 
BRANCH  20  26
ATOM     25  C   LIG    1        1.211  12.646   1.605  0.00  0.00    +0.020 C 
ATOM     26  C   LIG    1        1.689  12.675   0.152  0.00  0.00    +0.290 C 
BRANCH  26  27
ATOM     27  O   LIG    1        3.118  12.642   0.120  0.00  0.00    -0.550 OA
ATOM     28  H   LIG    1        3.502  11.857   0.532  0.00  0.00    +0.380 HD
ENDBRANCH  26  27
ENDBRANCH  20  26
ENDBRANCH  19  23
ENDBRANCH   1  19
TORSDOF 5
