REMARK  Name = ZINCvU00000003O7.0
REMARK                            x       y       z     vdW  Elec       q    Type
REMARK                         _______ _______ _______ _____ _____    ______ ____
ROOT
ATOM      1  N   LIG    1       -0.727   2.015  -1.175  0.00  0.00    -0.740 N 
ATOM      2  H   LIG    1       -0.229   2.260  -1.970  0.00  0.00    +0.390 HD
ATOM      3  C   LIG    1       -2.070   2.122  -1.161  0.00  0.00    +0.710 C 
ATOM      4  N   LIG    1       -2.714   2.662  -2.215  0.00  0.00    -0.630 N 
ATOM      5  C   LIG    1       -1.977   3.040  -3.428  0.00  0.00    +0.280 C 
ATOM      6  C   LIG    1       -2.645   2.365  -4.636  0.00  0.00    +0.000 C 
ATOM      7  C   LIG    1       -4.130   2.733  -4.662  0.00  0.00    +0.180 C 
ATOM      8  C   LIG    1       -4.807   2.221  -3.389  0.00  0.00    +0.050 C 
ATOM      9  C   LIG    1       -4.165   2.889  -2.169  0.00  0.00    +0.310 C 
ATOM     10  O   LIG    1       -2.702   1.730  -0.199  0.00  0.00    -0.580 OA
ENDROOT
BRANCH   7  11
ATOM     11  C   LIG    1       -4.783   2.103  -5.866  0.00  0.00    -0.080 A 
ATOM     12  C   LIG    1       -4.827   2.789  -7.065  0.00  0.00    +0.010 A 
ATOM     13  C   LIG    1       -5.425   2.212  -8.171  0.00  0.00    +0.060 A 
ATOM     14  C   LIG    1       -5.979   0.950  -8.077  0.00  0.00    -0.010 A 
ATOM     15  C   LIG    1       -5.934   0.262  -6.876  0.00  0.00    +0.100 A 
ATOM     16  F   LIG    1       -6.475  -0.973  -6.784  0.00  0.00    -0.140 F 
ATOM     17  C   LIG    1       -5.331   0.838  -5.771  0.00  0.00    -0.010 A 
ENDBRANCH   7  11
BRANCH   7  18
ATOM     18  O   LIG    1       -4.267   4.154  -4.735  0.00  0.00    -0.540 OA
ATOM     19  H   LIG    1       -3.860   4.548  -5.519  0.00  0.00    +0.380 HD
ENDBRANCH   7  18
BRANCH   1  20
ATOM     20  C   LIG    1       -0.019   1.529   0.012  0.00  0.00    +0.310 C 
BRANCH  20  21
ATOM     21  C   LIG    1        1.393   2.055   0.005  0.00  0.00    -0.050 A 
ATOM     22  C   LIG    1        2.106   2.105  -1.178  0.00  0.00    +0.010 A 
ATOM     23  C   LIG    1        3.400   2.592  -1.186  0.00  0.00    +0.070 A 
ATOM     24  C   LIG    1        3.985   3.020  -0.008  0.00  0.00    -0.180 A 
ATOM     25  C   LIG    1        3.273   2.965   1.176  0.00  0.00    +0.080 A 
ATOM     26  C   LIG    1        1.978   2.482   1.183  0.00  0.00    +0.030 A 
BRANCH  24  27
ATOM     27  C   LIG    1        5.396   3.547  -0.016  0.00  0.00    +0.510 C 
ATOM     28  F   LIG    1        5.545   4.497   1.000  0.00  0.00    -0.180 F 
ATOM     29  F   LIG    1        5.666   4.141  -1.253  0.00  0.00    -0.180 F 
ATOM     30  F   LIG    1        6.289   2.491   0.199  0.00  0.00    -0.180 F 
ENDBRANCH  24  27
ENDBRANCH  20  21
BRANCH  20  32
ATOM     31  C   LIG    1        0.833  -0.488  -1.191  0.00  0.00    +0.020 C 
ATOM     32  C   LIG    1        0.007  -0.000   0.001  0.00  0.00    -0.010 C 
ATOM     33  C   LIG    1        0.635  -0.510   1.299  0.00  0.00    +0.030 C 
ENDBRANCH  20  32
ENDBRANCH   1  20
TORSDOF 6
