REMARK  Name = ZINCvU0000000DeY.0
REMARK                            x       y       z     vdW  Elec       q    Type
REMARK                         _______ _______ _______ _____ _____    ______ ____
ROOT
ATOM      1  C   LIG    1        2.890  -3.318  -7.058  0.00  0.00    +0.020 C 
ATOM      2  C   LIG    1        3.661  -2.243  -6.290  0.00  0.00    +0.180 C 
ENDROOT
BRANCH   2   3
ATOM      3  N   LIG    1        4.162  -1.232  -7.231  0.00  0.00    -0.520 NA
ATOM      4  C   LIG    1        3.084  -0.332  -7.659  0.00  0.00    +0.190 C 
ATOM      5  C   LIG    1        3.667   0.791  -8.520  0.00  0.00    +0.060 C 
ATOM      6  C   LIG    1        4.363   0.183  -9.740  0.00  0.00    +0.100 C 
ATOM      7  C   LIG    1        5.449  -0.788  -9.267  0.00  0.00    +0.060 C 
ATOM      8  C   LIG    1        4.814  -1.865  -8.384  0.00  0.00    +0.190 C 
BRANCH   6   9
ATOM      9  C   LIG    1        4.991   1.279 -10.562  0.00  0.00    +0.260 A 
ATOM     10  N   LIG    1        5.894   2.106 -10.130  0.00  0.00    -0.470 NA
ATOM     11  C   LIG    1        6.232   2.954 -11.139  0.00  0.00    +0.040 A 
ATOM     12  C   LIG    1        7.128   4.018 -11.248  0.00  0.00    +0.100 A 
ATOM     13  C   LIG    1        7.236   4.701 -12.441  0.00  0.00    -0.040 A 
ATOM     14  C   LIG    1        6.460   4.336 -13.531  0.00  0.00    +0.060 A 
ATOM     15  C   LIG    1        5.570   3.286 -13.437  0.00  0.00    +0.070 A 
ATOM     16 CL   LIG    1        8.350   6.025 -12.578  0.00  0.00    -0.050 Cl
ATOM     17  C   LIG    1        5.449   2.588 -12.246  0.00  0.00    +0.010 A 
ATOM     18  O   LIG    1        4.692   1.543 -11.844  0.00  0.00    -0.210 OA
ENDBRANCH   6   9
ENDBRANCH   2   3
BRANCH   2  19
ATOM     19  C   LIG    1        4.822  -2.876  -5.568  0.00  0.00    +0.520 C 
ATOM     20  N   LIG    1        4.606  -3.620  -4.465  0.00  0.00    -0.670 N 
ATOM     21  H   LIG    1        3.699  -3.812  -4.180  0.00  0.00    +0.410 HD
ATOM     22  O   LIG    1        5.952  -2.717  -5.980  0.00  0.00    -0.500 OA
BRANCH  20  23
ATOM     23  C   LIG    1        5.691  -4.117  -3.731  0.00  0.00    +0.130 A 
ATOM     24  C   LIG    1        6.865  -3.381  -3.643  0.00  0.00    +0.070 A 
ATOM     25  C   LIG    1        7.934  -3.871  -2.919  0.00  0.00    +0.030 A 
ATOM     26  C   LIG    1        7.836  -5.098  -2.281  0.00  0.00    +0.090 A 
ATOM     27  C   LIG    1        6.665  -5.837  -2.373  0.00  0.00    -0.030 A 
ATOM     28  C   LIG    1        5.593  -5.345  -3.091  0.00  0.00    +0.020 A 
BRANCH  26  29
ATOM     29  O   LIG    1        8.889  -5.580  -1.569  0.00  0.00    -0.320 OA
BRANCH  29  30
ATOM     30  C   LIG    1        8.718  -6.851  -0.937  0.00  0.00    +0.590 C 
ATOM     31  F   LIG    1        8.444  -7.821  -1.907  0.00  0.00    -0.200 F 
ATOM     32  F   LIG    1        7.653  -6.782  -0.033  0.00  0.00    -0.200 F 
ENDBRANCH  29  30
ENDBRANCH  26  29
ENDBRANCH  20  23
ENDBRANCH   2  19
TORSDOF 6
