REMARK  Name = ZINCrH000004rnxG.0
REMARK                            x       y       z     vdW  Elec       q    Type
REMARK                         _______ _______ _______ _____ _____    ______ ____
ROOT
ATOM      1  N   LIG    1       -0.729   1.997   1.203  0.00  0.00    -1.120 NA
ATOM      2  H   LIG    1       -1.272   1.383   1.722  0.00  0.00    +0.420 HD
ENDROOT
BRANCH   1   3
ATOM      3  S   LIG    1       -0.589   3.579   1.672  0.00  0.00    +2.700 S 
ATOM      4  O   LIG    1        0.798   3.884   1.648  0.00  0.00    -0.950 OA
ATOM      5  O   LIG    1       -1.397   3.726   2.832  0.00  0.00    -0.960 OA
BRANCH   3   6
ATOM      6  C   LIG    1       -1.337   4.564   0.417  0.00  0.00    -0.670 A 
ATOM      7  C   LIG    1       -2.662   4.864   0.501  0.00  0.00    +0.170 A 
ATOM      8  C   LIG    1       -3.262   5.649  -0.498  0.00  0.00    -0.080 A 
ATOM      9  C   LIG    1       -4.627   5.980  -0.446  0.00  0.00    +0.040 A 
ATOM     10  C   LIG    1       -5.173   6.743  -1.431  0.00  0.00    +0.010 A 
ATOM     11  C   LIG    1       -4.399   7.203  -2.495  0.00  0.00    +0.040 A 
ATOM     12  C   LIG    1       -3.074   6.902  -2.579  0.00  0.00    +0.010 A 
ATOM     13  C   LIG    1       -2.475   6.117  -1.580  0.00  0.00    -0.010 A 
ATOM     14  C   LIG    1       -1.110   5.787  -1.632  0.00  0.00    +0.020 A 
ATOM     15  C   LIG    1       -0.562   5.029  -0.643  0.00  0.00    +0.090 A 
ENDBRANCH   3   6
ENDBRANCH   1   3
BRANCH   1  16
ATOM     16  C   LIG    1       -0.033   1.525   0.003  0.00  0.00    +0.300 C 
BRANCH  16  17
ATOM     17  C   LIG    1       -0.011  -0.005  -0.005  0.00  0.00    +0.070 C 
BRANCH  17  20
ATOM     18  N   LIG    1        0.847  -1.812  -1.460  0.00  0.00    -0.670 N 
ATOM     19  H   LIG    1        0.560  -2.450  -0.787  0.00  0.00    +0.410 HD
ATOM     20  C   LIG    1        0.705  -0.490  -1.239  0.00  0.00    +0.520 C 
ATOM     21  O   LIG    1        1.153   0.309  -2.034  0.00  0.00    -0.510 OA
BRANCH  18  26
ATOM     22  C   LIG    1        3.120  -3.649  -6.322  0.00  0.00    +0.100 C 
ATOM     23  C   LIG    1        2.516  -3.161  -5.030  0.00  0.00    -0.100 A 
ATOM     24  C   LIG    1        1.907  -1.921  -4.979  0.00  0.00    +0.020 A 
ATOM     25  C   LIG    1        1.347  -1.474  -3.798  0.00  0.00    +0.030 A 
ATOM     26  C   LIG    1        1.407  -2.265  -2.659  0.00  0.00    +0.140 A 
ATOM     27  C   LIG    1        2.021  -3.510  -2.714  0.00  0.00    -0.110 A 
ATOM     28  C   LIG    1        2.083  -4.375  -1.481  0.00  0.00    +0.080 C 
ATOM     29  C   LIG    1        2.573  -3.954  -3.899  0.00  0.00    +0.030 A 
ENDBRANCH  18  26
ENDBRANCH  17  20
ENDBRANCH  16  17
ENDBRANCH   1  16
TORSDOF 6
