REMARK  Name = ZINCtj00001UqOwG.1
REMARK                            x       y       z     vdW  Elec       q    Type
REMARK                         _______ _______ _______ _____ _____    ______ ____
ROOT
ATOM      1  C   LIG    1        3.539   3.042  -0.017  0.00  0.00    -0.790 A 
ATOM      2  C   LIG    1        2.353   3.763  -0.002  0.00  0.00    +0.210 A 
ATOM      3  C   LIG    1        1.157   3.068   0.002  0.00  0.00    -0.120 A 
ATOM      4  C   LIG    1        1.183   1.677  -0.000  0.00  0.00    +0.440 A 
ATOM      5  N   LIG    1        2.336   1.025  -0.015  0.00  0.00    -0.550 NA
ATOM      6  C   LIG    1        3.491   1.662  -0.023  0.00  0.00    +0.430 A 
ENDROOT
BRANCH   1   7
ATOM      7  S   LIG    1        5.090   3.878  -0.029  0.00  0.00    +2.720 S 
ATOM      8  O   LIG    1        6.042   2.966   0.501  0.00  0.00    -0.950 OA
ATOM      9  O   LIG    1        4.855   5.166   0.524  0.00  0.00    -0.950 OA
BRANCH   7  13
ATOM     10  C   LIG    1        5.885   3.524  -3.904  0.00  0.00    +0.240 C 
ATOM     11  C   LIG    1        5.729   5.066  -3.837  0.00  0.00    +0.040 C 
ATOM     12  C   LIG    1        5.153   5.294  -2.423  0.00  0.00    +0.260 C 
ATOM     13  N   LIG    1        5.505   4.118  -1.614  0.00  0.00    -1.010 NA
ATOM     14  C   LIG    1        6.294   3.191  -2.445  0.00  0.00    +0.290 C 
BRANCH  10  17
ATOM     15  C   LIG    1        2.971   2.071  -5.917  0.00  0.00    +0.100 C 
ATOM     16  C   LIG    1        4.276   2.730  -5.553  0.00  0.00    +0.510 C 
ATOM     17  N   LIG    1        4.616   2.883  -4.258  0.00  0.00    -0.720 N 
ATOM     18  H   LIG    1        4.020   2.569  -3.560  0.00  0.00    +0.400 HD
ATOM     19  O   LIG    1        5.021   3.123  -6.426  0.00  0.00    -0.540 OA
ENDBRANCH  10  17
ENDBRANCH   7  13
ENDBRANCH   1   7
BRANCH   4  20
ATOM     20  N   LIG    1       -0.011   0.966   0.007  0.00  0.00    -0.720 N 
ATOM     21  H   LIG    1        0.002  -0.004   0.002  0.00  0.00    +0.410 HD
BRANCH  20  22
ATOM     22  C   LIG    1       -1.290   1.681   0.017  0.00  0.00    +0.260 C 
BRANCH  22  23
ATOM     23  C   LIG    1       -2.439   0.671   0.017  0.00  0.00    +0.030 C 
BRANCH  23  24
ATOM     24  C   LIG    1       -3.774   1.418   0.028  0.00  0.00    +0.030 C 
BRANCH  24  25
ATOM     25  C   LIG    1       -4.923   0.408   0.028  0.00  0.00    +0.340 C 
BRANCH  25  26
ATOM     26  N   LIG    1       -6.202   1.123   0.038  0.00  0.00    -0.410 N 
ATOM     27  C   LIG    1       -6.952   1.430   1.141  0.00  0.00    +0.240 C 
ATOM     28  C   LIG    1       -8.043   2.086   0.700  0.00  0.00    +0.230 C 
ATOM     29  N   LIG    1       -7.960   2.177  -0.636  0.00  0.00    -0.480 N 
ATOM     30  H   LIG    1       -8.615   2.603  -1.211  0.00  0.00    +0.460 HD
ATOM     31  C   LIG    1       -6.858   1.608  -1.039  0.00  0.00    +0.310 C 
ATOM     32  C   LIG    1       -6.394   1.504  -2.469  0.00  0.00    +0.230 C 
ENDBRANCH  25  26
ENDBRANCH  24  25
ENDBRANCH  23  24
ENDBRANCH  22  23
ENDBRANCH  20  22
ENDBRANCH   4  20
TORSDOF 9
