REMARK  Name = ZINCkj00000dDiw1.0
REMARK                            x       y       z     vdW  Elec       q    Type
REMARK                         _______ _______ _______ _____ _____    ______ ____
ROOT
ATOM      1  C   LIG    1       -3.902   2.756  -1.901  0.00  0.00    +0.290 C 
ATOM      2  N   LIG    1       -3.083   3.826  -1.325  0.00  0.00    -0.620 N 
ATOM      3  C   LIG    1       -2.792   4.920  -2.057  0.00  0.00    +0.710 C 
ATOM      4  N   LIG    1       -3.255   5.029  -3.318  0.00  0.00    -0.720 N 
ATOM      5  H   LIG    1       -3.797   4.321  -3.699  0.00  0.00    +0.400 HD
ATOM      6  O   LIG    1       -2.112   5.808  -1.580  0.00  0.00    -0.580 OA
ENDROOT
BRANCH   4   7
ATOM      7  C   LIG    1       -2.939   6.218  -4.114  0.00  0.00    +0.270 C 
ATOM      8  C   LIG    1       -2.526   6.004  -5.572  0.00  0.00    +0.060 C 
ATOM      9  C   LIG    1       -3.899   6.586  -5.244  0.00  0.00    -0.170 C 
ATOM     10  C   LIG    1       -4.132   8.074  -5.528  0.00  0.00    +0.120 C 
ATOM     11  C   LIG    1       -5.385   8.525  -4.768  0.00  0.00    +0.260 C 
ATOM     12  N   LIG    1       -6.523   7.684  -5.156  0.00  0.00    -0.500 N 
ATOM     13  C   LIG    1       -6.311   6.304  -4.704  0.00  0.00    +0.270 C 
ATOM     14  H   LIG    1       -7.364   8.049  -4.734  0.00  0.00    +0.430 HD
ATOM     15  H   LIG    1       -6.620   7.696  -6.160  0.00  0.00    +0.430 HD
ATOM     16  C   LIG    1       -5.126   5.694  -5.459  0.00  0.00    +0.090 C 
ENDBRANCH   4   7
BRANCH   2  17
ATOM     17  C   LIG    1       -2.580   3.707   0.045  0.00  0.00    +0.380 C 
BRANCH  17  18
ATOM     18  C   LIG    1       -1.234   3.029   0.029  0.00  0.00    +0.090 A 
ATOM     19  C   LIG    1       -0.084   3.795   0.022  0.00  0.00    -0.010 A 
ATOM     20  C   LIG    1        1.150   3.161   0.008  0.00  0.00    +0.060 A 
ATOM     21  C   LIG    1        1.180   1.775   0.000  0.00  0.00    -0.020 A 
ATOM     22  C   LIG    1       -0.013   1.076   0.008  0.00  0.00    +0.260 A 
ATOM     23  N   LIG    1       -1.167   1.712   0.017  0.00  0.00    -0.480 NA
ENDBRANCH  17  18
ENDBRANCH   2  17
TORSDOF 3
