REMARK  Name = ZINCvU0000000960.0
REMARK                            x       y       z     vdW  Elec       q    Type
REMARK                         _______ _______ _______ _____ _____    ______ ____
ROOT
ATOM      1  N   LIG    1       -2.441   3.860   0.069  0.00  0.00    -0.400 N 
ATOM      2  C   LIG    1       -2.914   4.728  -0.877  0.00  0.00    +0.160 A 
ATOM      3  N   LIG    1       -4.121   5.089  -0.505  0.00  0.00    -0.280 NA
ATOM      4  N   LIG    1       -4.434   4.513   0.600  0.00  0.00    -0.240 NA
ATOM      5  C   LIG    1       -3.449   3.742   1.000  0.00  0.00    +0.230 A 
ENDROOT
BRANCH   5   6
ATOM      6  C   LIG    1       -3.425   2.909   2.220  0.00  0.00    -0.020 A 
ATOM      7  C   LIG    1       -2.316   2.937   3.066  0.00  0.00    +0.050 A 
ATOM      8  C   LIG    1       -2.302   2.160   4.207  0.00  0.00    +0.030 A 
ATOM      9  C   LIG    1       -3.380   1.346   4.507  0.00  0.00    +0.050 A 
ATOM     10  C   LIG    1       -4.481   1.309   3.670  0.00  0.00    +0.030 A 
ATOM     11  C   LIG    1       -4.511   2.085   2.529  0.00  0.00    +0.000 A 
ATOM     12 CL   LIG    1       -5.893   2.037   1.480  0.00  0.00    -0.040 Cl
ENDBRANCH   5   6
BRANCH   1  16
ATOM     13  C   LIG    1        1.271   1.956   0.115  0.00  0.00    +0.160 A 
ATOM     14  C   LIG    1        0.112   1.212  -0.049  0.00  0.00    +0.010 A 
ATOM     15  C   LIG    1       -1.117   1.842  -0.069  0.00  0.00    +0.090 A 
ATOM     16  C   LIG    1       -1.192   3.220   0.085  0.00  0.00    +0.050 A 
ATOM     17  C   LIG    1       -0.032   3.964   0.249  0.00  0.00    +0.090 A 
ATOM     18  C   LIG    1        1.196   3.334   0.265  0.00  0.00    -0.060 A 
BRANCH  13  19
ATOM     19  O   LIG    1        2.481   1.336   0.130  0.00  0.00    -0.310 OA
BRANCH  19  21
ATOM     20  C   LIG    1        4.891   1.295   0.293  0.00  0.00    +0.070 C 
ATOM     21  C   LIG    1        3.632   2.164   0.303  0.00  0.00    +0.190 C 
ENDBRANCH  19  21
ENDBRANCH  13  19
ENDBRANCH   1  16
BRANCH   2  22
ATOM     22  S   LIG    1       -2.063   5.261  -2.325  0.00  0.00    +0.060 S 
BRANCH  22  23
ATOM     23  C   LIG    1       -3.311   6.362  -3.036  0.00  0.00    +0.160 C 
ATOM     24  C   LIG    1       -3.529   7.555  -2.102  0.00  0.00    +0.100 C 
BRANCH  23  25
ATOM     25  C   LIG    1       -2.839   6.856  -4.379  0.00  0.00    +0.190 A 
ATOM     26  N   LIG    1       -3.549   6.924  -5.480  0.00  0.00    -0.460 NA
ATOM     27  C   LIG    1       -2.720   7.421  -6.415  0.00  0.00    +0.180 A 
ATOM     28  N   LIG    1       -1.570   7.626  -5.846  0.00  0.00    -0.370 NA
ATOM     29  O   LIG    1       -1.619   7.314  -4.675  0.00  0.00    +0.090 OA
BRANCH  27  30
ATOM     30  C   LIG    1       -3.063   7.691  -7.858  0.00  0.00    +0.160 C 
ATOM     31  C   LIG    1       -3.589   9.120  -7.998  0.00  0.00    +0.040 C 
ENDBRANCH  27  30
ENDBRANCH  23  25
ENDBRANCH  22  23
ENDBRANCH   2  22
TORSDOF 8
