REMARK  Name = ZINCvU000000094d.0
REMARK                            x       y       z     vdW  Elec       q    Type
REMARK                         _______ _______ _______ _____ _____    ______ ____
ROOT
ATOM      1  C   LIG    1        3.203  -0.060  -3.422  0.00  0.00    +0.150 A 
ATOM      2  N   LIG    1        3.818   1.096  -3.341  0.00  0.00    -0.290 NA
ATOM      3  N   LIG    1        3.645   1.604  -2.173  0.00  0.00    -0.270 NA
ATOM      4  C   LIG    1        2.915   0.810  -1.442  0.00  0.00    +0.210 A 
ATOM      5  N   LIG    1        2.610  -0.283  -2.209  0.00  0.00    -0.420 N 
ENDROOT
BRANCH   5   6
ATOM      6  C   LIG    1        1.847  -1.398  -1.831  0.00  0.00    +0.110 A 
ATOM      7  C   LIG    1        2.306  -2.249  -0.835  0.00  0.00    +0.050 A 
ATOM      8  C   LIG    1        1.550  -3.343  -0.461  0.00  0.00    +0.060 A 
ATOM      9  C   LIG    1        0.342  -3.597  -1.085  0.00  0.00    -0.020 A 
ATOM     10  C   LIG    1       -0.116  -2.752  -2.081  0.00  0.00    +0.060 A 
ATOM     11 CL   LIG    1       -0.602  -4.977  -0.618  0.00  0.00    -0.050 Cl
ATOM     12  C   LIG    1        0.634  -1.654  -2.455  0.00  0.00    +0.060 A 
ENDBRANCH   5   6
BRANCH   1  13
ATOM     13  S   LIG    1        3.154  -1.127  -4.824  0.00  0.00    +0.090 S 
BRANCH  13  14
ATOM     14  C   LIG    1        4.149  -0.161  -5.987  0.00  0.00    +0.110 C 
BRANCH  14  17
ATOM     15  N   LIG    1        4.946  -0.368  -8.320  0.00  0.00    -0.720 N 
ATOM     16  H   LIG    1        5.385   0.490  -8.213  0.00  0.00    +0.410 HD
ATOM     17  C   LIG    1        4.248  -0.900  -7.297  0.00  0.00    +0.540 C 
ATOM     18  O   LIG    1        3.699  -1.973  -7.431  0.00  0.00    -0.520 OA
BRANCH  15  20
ATOM     19  C   LIG    1        6.191  -2.093  -9.525  0.00  0.00    +0.040 C 
ATOM     20  C   LIG    1        5.042  -1.086  -9.593  0.00  0.00    +0.350 C 
BRANCH  20  21
ATOM     21  C   LIG    1        5.300  -0.103 -10.706  0.00  0.00    -0.030 A 
ATOM     22  C   LIG    1        4.751  -0.142 -11.933  0.00  0.00    -0.040 A 
ATOM     23  C   LIG    1        5.268   0.962 -12.649  0.00  0.00    -0.060 A 
ATOM     24  C   LIG    1        6.102   1.610 -11.816  0.00  0.00    +0.180 A 
ATOM     25  O   LIG    1        6.113   0.964 -10.638  0.00  0.00    -0.170 OA
ENDBRANCH  20  21
ENDBRANCH  15  20
ENDBRANCH  14  17
ENDBRANCH  13  14
ENDBRANCH   1  13
BRANCH   4  26
ATOM     26  C   LIG    1        2.490   1.048  -0.016  0.00  0.00    +0.210 C 
BRANCH  26  27
ATOM     27  C   LIG    1        1.175   1.783   0.000  0.00  0.00    -0.090 A 
ATOM     28  C   LIG    1       -0.013   1.076   0.008  0.00  0.00    +0.010 A 
ATOM     29  C   LIG    1       -1.219   1.751   0.017  0.00  0.00    +0.000 A 
ATOM     30  C   LIG    1       -1.238   3.133   0.030  0.00  0.00    +0.010 A 
ATOM     31  C   LIG    1       -0.050   3.840   0.022  0.00  0.00    +0.010 A 
ATOM     32  C   LIG    1        1.156   3.165   0.008  0.00  0.00    +0.030 A 
ENDBRANCH  26  27
ENDBRANCH   4  26
TORSDOF 8
