REMARK  Name = ZINCqH0000005klf.0
REMARK                            x       y       z     vdW  Elec       q    Type
REMARK                         _______ _______ _______ _____ _____    ______ ____
ROOT
ATOM      1  C   LIG    1       -0.001  -0.654  -1.238  0.00  0.00    +0.170 A 
ATOM      2  C   LIG    1       -0.402  -1.983  -1.263  0.00  0.00    +0.000 A 
ATOM      3  C   LIG    1       -0.409  -2.679  -2.456  0.00  0.00    +0.060 A 
ATOM      4  C   LIG    1       -0.004  -2.054  -3.627  0.00  0.00    +0.060 A 
ATOM      5  C   LIG    1        0.402  -0.728  -3.601  0.00  0.00    +0.040 A 
ATOM      6  C   LIG    1        0.404  -0.029  -2.410  0.00  0.00    +0.010 A 
ENDROOT
BRANCH   1   8
ATOM      7  C   LIG    1       -0.115   1.514  -0.038  0.00  0.00    +0.320 C 
ATOM      8  N   LIG    1        0.001   0.054  -0.031  0.00  0.00    -0.940 N 
BRANCH   8   9
ATOM      9  S   LIG    1        0.134  -0.760   1.405  0.00  0.00    +2.690 S 
ATOM     10  O   LIG    1        0.652   0.170   2.346  0.00  0.00    -0.930 OA
ATOM     11  O   LIG    1        0.765  -1.998   1.108  0.00  0.00    -0.930 OA
BRANCH   9  12
ATOM     12  C   LIG    1       -1.500  -1.149   1.938  0.00  0.00    -0.720 A 
ATOM     13  C   LIG    1       -1.904  -2.467   2.021  0.00  0.00    +0.160 A 
ATOM     14  C   LIG    1       -3.186  -2.773   2.440  0.00  0.00    +0.000 A 
ATOM     15  C   LIG    1       -4.065  -1.760   2.774  0.00  0.00    +0.120 A 
ATOM     16  C   LIG    1       -3.663  -0.440   2.691  0.00  0.00    -0.020 A 
ATOM     17  C   LIG    1       -2.378  -0.133   2.278  0.00  0.00    +0.190 A 
ATOM     18  F   LIG    1       -1.982   1.157   2.203  0.00  0.00    -0.120 F 
ENDBRANCH   9  12
ENDBRANCH   8   9
ENDBRANCH   1   8
BRANCH   4  19
ATOM     19  O   LIG    1       -0.006  -2.742  -4.800  0.00  0.00    -0.290 OA
BRANCH  19  20
ATOM     20  C   LIG    1        1.189  -3.028  -5.340  0.00  0.00    +0.460 C 
ATOM     21  O   LIG    1        2.203  -2.769  -4.736  0.00  0.00    -0.480 OA
BRANCH  20  22
ATOM     22  C   LIG    1        1.267  -3.671  -6.701  0.00  0.00    +0.030 C 
ATOM     23  C   LIG    1        0.587  -5.055  -6.670  0.00  0.00    +0.040 C 
ATOM     24  C   LIG    1        1.468  -5.931  -7.596  0.00  0.00    +0.010 C 
ATOM     25  C   LIG    1        2.900  -5.433  -7.278  0.00  0.00    +0.010 C 
ATOM     26  C   LIG    1        2.737  -3.911  -7.087  0.00  0.00    +0.050 C 
ENDBRANCH  20  22
ENDBRANCH  19  20
ENDBRANCH   4  19
TORSDOF 6
