REMARK  Name = ZINCvU0000000Bkh.1
REMARK                            x       y       z     vdW  Elec       q    Type
REMARK                         _______ _______ _______ _____ _____    ______ ____
ROOT
ATOM      1  O   LIG    1       -1.062   6.100  -0.181  0.00  0.00    -0.500 OA
ATOM      2  C   LIG    1       -0.012   5.537   0.069  0.00  0.00    +0.650 C 
ATOM      3  N   LIG    1        0.040   4.196   0.020  0.00  0.00    -0.530 NA
ATOM      4  C   LIG    1        1.178   3.556   0.010  0.00  0.00    +0.310 C 
ATOM      5  C   LIG    1        2.481   4.314   0.002  0.00  0.00    +0.130 C 
ATOM      6  C   LIG    1        2.314   5.614   0.793  0.00  0.00    +0.330 C 
ATOM      7  N   LIG    1        1.069   6.270   0.384  0.00  0.00    -0.750 N 
ATOM      8  H   LIG    1        1.026   7.238   0.341  0.00  0.00    +0.420 HD
ENDROOT
BRANCH   5   9
ATOM      9  C   LIG    1        2.867   4.635  -1.419  0.00  0.00    +0.280 A 
ATOM     10  N   LIG    1        4.087   4.671  -1.870  0.00  0.00    -0.460 NA
ATOM     11  C   LIG    1        4.077   4.988  -3.190  0.00  0.00    +0.050 A 
ATOM     12  C   LIG    1        5.079   5.155  -4.149  0.00  0.00    +0.070 A 
ATOM     13  C   LIG    1        4.746   5.490  -5.431  0.00  0.00    +0.000 A 
ATOM     14  C   LIG    1        3.418   5.666  -5.794  0.00  0.00    +0.040 A 
ATOM     15  C   LIG    1        2.412   5.505  -4.865  0.00  0.00    +0.010 A 
ATOM     16  C   LIG    1        2.732   5.165  -3.558  0.00  0.00    +0.060 A 
ATOM     17  N   LIG    1        1.991   4.935  -2.415  0.00  0.00    -0.590 N 
ATOM     18  H   LIG    1        1.025   4.980  -2.338  0.00  0.00    +0.420 HD
ENDBRANCH   5   9
BRANCH   6  19
ATOM     19  C   LIG    1        2.260   5.303   2.267  0.00  0.00    -0.140 A 
ATOM     20  C   LIG    1        1.039   5.157   2.897  0.00  0.00    +0.100 A 
ATOM     21  C   LIG    1        0.988   4.867   4.249  0.00  0.00    -0.090 A 
ATOM     22  C   LIG    1        2.158   4.733   4.975  0.00  0.00    +0.110 A 
ATOM     23  C   LIG    1        3.381   4.883   4.349  0.00  0.00    -0.120 A 
ATOM     24 BR   LIG    1        4.981   4.699   5.341  0.00  0.00    -0.010 Br
ATOM     25 BR   LIG    1       -0.684   4.661   5.108  0.00  0.00    -0.020 Br
ATOM     26  C   LIG    1        3.435   5.169   2.992  0.00  0.00    +0.170 A 
BRANCH  26  27
ATOM     27  O   LIG    1        4.636   5.318   2.374  0.00  0.00    -0.470 OA
ATOM     28  H   LIG    1        4.970   6.225   2.377  0.00  0.00    +0.400 HD
ENDBRANCH  26  27
ENDBRANCH   6  19
BRANCH   4  29
ATOM     29  C   LIG    1        1.188   2.087   0.002  0.00  0.00    -0.100 A 
ATOM     30  C   LIG    1       -0.017   1.374   0.010  0.00  0.00    +0.090 A 
ATOM     31  C   LIG    1        0.002  -0.004   0.002  0.00  0.00    +0.000 A 
ATOM     32  C   LIG    1        1.208  -0.684  -0.013  0.00  0.00    +0.050 A 
ATOM     33  C   LIG    1        2.404   0.013  -0.021  0.00  0.00    +0.000 A 
ATOM     34  C   LIG    1        2.403   1.392  -0.013  0.00  0.00    +0.060 A 
ENDBRANCH   4  29
TORSDOF 4
