REMARK  Name = ZINCrD00000hQ4l4.2
REMARK                            x       y       z     vdW  Elec       q    Type
REMARK                         _______ _______ _______ _____ _____    ______ ____
ROOT
ATOM      1  O   LIG    1       -4.369   9.462  -2.599  0.00  0.00    -0.590 OA
ATOM      2  C   LIG    1       -5.126   9.217  -1.679  0.00  0.00    +0.710 C 
ATOM      3  N   LIG    1       -6.393   9.675  -1.710  0.00  0.00    -0.630 N 
ATOM      4  C   LIG    1       -7.297   9.489  -0.563  0.00  0.00    +0.280 C 
ATOM      5  C   LIG    1       -8.584   8.841  -1.077  0.00  0.00    +0.170 C 
ATOM      6  N   LIG    1       -9.154   9.651  -2.167  0.00  0.00    -0.520 NA
ATOM      7  C   LIG    1      -10.459   9.088  -2.550  0.00  0.00    +0.160 C 
ATOM      8  C   LIG    1      -11.122   9.949  -3.615  0.00  0.00    +0.020 C 
ATOM      9  C   LIG    1      -10.209  10.008  -4.844  0.00  0.00    +0.010 C 
ATOM     10  C   LIG    1       -8.859  10.589  -4.422  0.00  0.00    +0.030 C 
ATOM     11  C   LIG    1       -8.242   9.728  -3.314  0.00  0.00    +0.120 C 
ATOM     12  C   LIG    1       -6.917  10.382  -2.885  0.00  0.00    +0.310 C 
ATOM     13  N   LIG    1       -4.697   8.489  -0.629  0.00  0.00    -0.740 N 
ATOM     14  H   LIG    1       -5.276   8.356   0.137  0.00  0.00    +0.390 HD
ENDROOT
BRANCH  13  15
ATOM     15  C   LIG    1       -3.357   7.898  -0.646  0.00  0.00    +0.250 C 
ATOM     16  C   LIG    1       -2.875   7.685   0.790  0.00  0.00    +0.030 C 
ATOM     17  C   LIG    1       -1.476   7.067   0.773  0.00  0.00    +0.050 C 
ATOM     18  C   LIG    1       -1.521   5.722   0.045  0.00  0.00    +0.180 C 
ATOM     19  C   LIG    1       -2.002   5.935  -1.391  0.00  0.00    +0.010 C 
ATOM     20  C   LIG    1       -3.402   6.553  -1.374  0.00  0.00    +0.020 C 
BRANCH  18  21
ATOM     21  O   LIG    1       -0.213   5.146   0.029  0.00  0.00    -0.290 OA
BRANCH  21  22
ATOM     22  C   LIG    1       -0.138   3.791   0.022  0.00  0.00    +0.340 A 
ATOM     23  N   LIG    1       -1.248   3.073   0.029  0.00  0.00    -0.530 NA
ATOM     24  C   LIG    1       -1.220   1.753   0.016  0.00  0.00    +0.310 A 
ATOM     25  C   LIG    1       -0.020   1.071   0.006  0.00  0.00    -0.050 A 
ATOM     26  C   LIG    1        1.169   1.787  -0.002  0.00  0.00    +0.120 A 
ATOM     27  C   LIG    1        1.107   3.171   0.006  0.00  0.00    -0.110 A 
ATOM     28 CL   LIG    1        2.562   4.117  -0.005  0.00  0.00    -0.040 Cl
ENDBRANCH  21  22
ENDBRANCH  18  21
ENDBRANCH  13  15
TORSDOF 3
