REMARK  Name = ZINCrH00000No4GV.0
REMARK                            x       y       z     vdW  Elec       q    Type
REMARK                         _______ _______ _______ _____ _____    ______ ____
ROOT
ATOM      1  N   LIG    1        4.178   0.120  -2.643  0.00  0.00    -0.580 N 
ENDROOT
BRANCH   1  10
ATOM      2  C   LIG    1        5.644  -4.280  -1.043  0.00  0.00    +0.160 C 
ATOM      3  C   LIG    1        5.943  -2.899  -1.567  0.00  0.00    +0.260 A 
ATOM      4  N   LIG    1        7.193  -2.520  -1.744  0.00  0.00    -0.520 NA
ATOM      5  C   LIG    1        7.488  -1.304  -2.206  0.00  0.00    +0.370 A 
ATOM      6  C   LIG    1        8.711  -0.664  -2.480  0.00  0.00    -0.210 A 
ATOM      7  C   LIG    1        8.402   0.626  -2.952  0.00  0.00    +0.370 A 
ATOM      8  N   LIG    1        7.103   0.767  -2.967  0.00  0.00    -0.320 NA
ATOM      9  N   LIG    1        6.500  -0.412  -2.517  0.00  0.00    -0.340 N 
ATOM     10  C   LIG    1        5.189  -0.765  -2.341  0.00  0.00    +0.500 A 
ATOM     11  C   LIG    1        4.898  -2.028  -1.862  0.00  0.00    -0.150 A 
BRANCH   6  12
ATOM     12  C   LIG    1       10.020  -1.218  -2.310  0.00  0.00    +0.300 C 
ATOM     13  N   LIG    1       11.059  -1.658  -2.176  0.00  0.00    -0.440 NA
ENDBRANCH   6  12
ENDBRANCH   1  10
BRANCH   1  14
ATOM     14  C   LIG    1        2.780  -0.274  -2.455  0.00  0.00    +0.310 C 
BRANCH  14  15
ATOM     15  C   LIG    1        2.236  -0.861  -3.760  0.00  0.00    -0.080 C 
ATOM     16  C   LIG    1        0.810  -1.374  -3.536  0.00  0.00    +0.020 C 
ATOM     17  C   LIG    1        0.304  -2.027  -4.825  0.00  0.00    +0.210 C 
ATOM     18  O   LIG    1        1.190  -3.083  -5.202  0.00  0.00    -0.380 OA
ATOM     19  C   LIG    1        2.526  -2.655  -5.470  0.00  0.00    +0.200 C 
ATOM     20  C   LIG    1        2.227   0.220  -4.843  0.00  0.00    +0.020 C 
ATOM     21  C   LIG    1        3.123  -2.027  -4.208  0.00  0.00    +0.000 C 
ENDBRANCH  14  15
ENDBRANCH   1  14
BRANCH   1  22
ATOM     22  C   LIG    1        4.502   1.455  -3.150  0.00  0.00    +0.400 C 
BRANCH  22  23
ATOM     23  C   LIG    1        4.559   2.429  -2.001  0.00  0.00    -0.200 A 
ATOM     24  C   LIG    1        5.624   2.643  -1.227  0.00  0.00    +0.040 A 
ATOM     25  C   LIG    1        5.442   3.587  -0.232  0.00  0.00    +0.000 A 
ATOM     26  C   LIG    1        4.229   4.141  -0.198  0.00  0.00    -0.040 A 
ATOM     27  S   LIG    1        3.235   3.463  -1.481  0.00  0.00    +0.090 S 
ENDBRANCH  22  23
ENDBRANCH   1  22
TORSDOF 6
