REMARK  Name = ZINCpe000000Zesp.0
REMARK                            x       y       z     vdW  Elec       q    Type
REMARK                         _______ _______ _______ _____ _____    ______ ____
ROOT
ATOM      1  N   LIG    1        0.616   3.486  -1.252  0.00  0.00    -0.740 N 
ATOM      2  H   LIG    1        1.090   3.186  -0.460  0.00  0.00    +0.410 HD
ATOM      3  C   LIG    1       -0.375   2.733  -1.769  0.00  0.00    +0.720 C 
ATOM      4  N   LIG    1       -0.708   1.564  -1.186  0.00  0.00    -0.620 N 
ATOM      5  C   LIG    1       -0.013   1.086   0.008  0.00  0.00    +0.360 C 
ATOM      6  C   LIG    1       -0.704   1.564   1.254  0.00  0.00    +0.060 A 
ATOM      7  N   LIG    1        0.028   2.100   2.216  0.00  0.00    -0.450 NA
ATOM      8  C   LIG    1       -0.484   2.478   3.368  0.00  0.00    +0.230 A 
ATOM      9  C   LIG    1       -1.835   2.320   3.618  0.00  0.00    +0.010 A 
ATOM     10  C   LIG    1       -2.646   1.796   2.630  0.00  0.00    +0.000 A 
ATOM     11  C   LIG    1       -2.080   1.431   1.401  0.00  0.00    +0.110 A 
ATOM     12  N   LIG    1       -2.944   0.981   0.417  0.00  0.00    -0.480 N 
ATOM     13  C   LIG    1       -4.174   0.428   1.019  0.00  0.00    +0.190 C 
ATOM     14  C   LIG    1       -4.661  -0.713   0.112  0.00  0.00    +0.020 C 
ATOM     15  C   LIG    1       -3.646  -0.787  -1.044  0.00  0.00    +0.050 C 
ATOM     16  C   LIG    1       -2.422   0.000  -0.531  0.00  0.00    +0.140 C 
ATOM     17  C   LIG    1       -1.779   0.726  -1.723  0.00  0.00    +0.320 C 
ATOM     18  O   LIG    1       -0.969   3.108  -2.761  0.00  0.00    -0.580 OA
ENDROOT
BRANCH   1  19
ATOM     19  C   LIG    1        0.978   4.756  -1.885  0.00  0.00    +0.400 C 
BRANCH  19  24
ATOM     20  O   LIG    1        5.031   6.930   0.977  0.00  0.00    -0.530 OA
ATOM     21  C   LIG    1        4.119   6.478   0.302  0.00  0.00    +0.480 A 
ATOM     22  C   LIG    1        3.647   7.185  -0.825  0.00  0.00    -0.010 A 
ATOM     23  C   LIG    1        2.625   6.631  -1.542  0.00  0.00    +0.100 A 
ATOM     24  C   LIG    1        2.106   5.396  -1.119  0.00  0.00    +0.050 A 
ATOM     25  N   LIG    1        2.590   4.803  -0.063  0.00  0.00    -0.220 NA
ATOM     26  N   LIG    1        3.554   5.300   0.626  0.00  0.00    -0.440 N 
ATOM     27  H   LIG    1        3.879   4.816   1.401  0.00  0.00    +0.440 HD
ENDBRANCH  19  24
ENDBRANCH   1  19
TORSDOF 2
