REMARK  Name = ZINCrg00000OYsrS.0
REMARK                            x       y       z     vdW  Elec       q    Type
REMARK                         _______ _______ _______ _____ _____    ______ ____
ROOT
ATOM      1  O   LIG    1       -0.107   5.987   0.935  0.00  0.00    -0.490 OA
ATOM      2  C   LIG    1       -0.956   5.119   0.869  0.00  0.00    +0.600 C 
ATOM      3  N   LIG    1       -2.192   5.417   0.421  0.00  0.00    -0.600 N 
ATOM      4  C   LIG    1       -3.270   4.417   0.450  0.00  0.00    +0.280 C 
ATOM      5  C   LIG    1       -4.497   5.055   1.122  0.00  0.00    +0.210 C 
ATOM      6  O   LIG    1       -4.797   6.292   0.472  0.00  0.00    -0.370 OA
ATOM      7  C   LIG    1       -3.763   7.274   0.576  0.00  0.00    +0.250 C 
ATOM      8  C   LIG    1       -2.500   6.751  -0.119  0.00  0.00    +0.300 C 
ENDROOT
BRANCH   2   9
ATOM      9  C   LIG    1       -0.633   3.738   1.281  0.00  0.00    +0.060 A 
ATOM     10  N   LIG    1       -1.417   2.686   1.145  0.00  0.00    -0.220 NA
ATOM     11  N   LIG    1       -0.745   1.573   1.662  0.00  0.00    -0.410 N 
ATOM     12  C   LIG    1       -0.869   0.124   1.906  0.00  0.00    +0.330 C 
ATOM     13  C   LIG    1        0.280  -0.142   2.906  0.00  0.00    +0.270 C 
ATOM     14  O   LIG    1        1.192   0.934   2.616  0.00  0.00    -0.280 OA
ATOM     15  C   LIG    1        0.473   1.973   2.110  0.00  0.00    +0.240 A 
ATOM     16  C   LIG    1        0.565   3.314   1.890  0.00  0.00    -0.040 A 
ENDBRANCH   2   9
BRANCH   8  17
ATOM     17  C   LIG    1       -1.349   7.686   0.149  0.00  0.00    +0.310 A 
ATOM     18  N   LIG    1       -0.942   8.086   1.327  0.00  0.00    -0.510 NA
ATOM     19  C   LIG    1        0.101   8.905   1.190  0.00  0.00    +0.440 A 
ATOM     20  N   LIG    1        0.369   9.045  -0.082  0.00  0.00    -0.310 NA
ATOM     21  N   LIG    1       -0.562   8.260  -0.782  0.00  0.00    -0.330 N 
BRANCH  21  22
ATOM     22  C   LIG    1       -0.654   8.105  -2.172  0.00  0.00    +0.140 A 
ATOM     23  C   LIG    1       -0.889   6.850  -2.718  0.00  0.00    +0.000 A 
ATOM     24  C   LIG    1       -0.985   6.702  -4.088  0.00  0.00    +0.030 A 
ATOM     25  C   LIG    1       -0.835   7.799  -4.916  0.00  0.00    +0.020 A 
ATOM     26  C   LIG    1       -0.596   9.049  -4.375  0.00  0.00    +0.040 A 
ATOM     27  C   LIG    1       -0.504   9.205  -3.006  0.00  0.00    +0.030 A 
ENDBRANCH  21  22
ENDBRANCH   8  17
TORSDOF 3
