REMARK  Name = ZINCvU00000007Yq.0
REMARK                            x       y       z     vdW  Elec       q    Type
REMARK                         _______ _______ _______ _____ _____    ______ ____
ROOT
ATOM      1  N   LIG    1        2.357   3.889   0.000  0.00  0.00    -0.470 N 
ATOM      2  C   LIG    1        2.317   5.233  -0.098  0.00  0.00    +0.520 C 
ATOM      3  O   LIG    1        1.250   5.810  -0.086  0.00  0.00    -0.460 OA
ENDROOT
BRANCH   1   4
ATOM      4  C   LIG    1        3.578   3.236   0.076  0.00  0.00    +0.330 A 
ATOM      5  N   LIG    1        3.728   1.957   0.085  0.00  0.00    -0.480 NA
ATOM      6  C   LIG    1        4.982   1.470   0.159  0.00  0.00    +0.110 A 
ATOM      7  C   LIG    1        5.407   0.124   0.181  0.00  0.00    +0.070 A 
ATOM      8  C   LIG    1        6.742  -0.182   0.267  0.00  0.00    +0.040 A 
ATOM      9  C   LIG    1        7.694   0.824   0.334  0.00  0.00    +0.040 A 
ATOM     10  C   LIG    1        7.303   2.145   0.314  0.00  0.00    +0.060 A 
ATOM     11  C   LIG    1        5.953   2.474   0.227  0.00  0.00    -0.200 A 
ATOM     12  S   LIG    1        5.140   4.037   0.182  0.00  0.00    +0.100 S 
ENDBRANCH   1   4
BRANCH   1  16
ATOM     13  C   LIG    1       -1.189   1.701   0.076  0.00  0.00    -0.070 A 
ATOM     14  C   LIG    1       -0.312   1.556  -0.982  0.00  0.00    +0.020 A 
ATOM     15  C   LIG    1        0.864   2.281  -1.011  0.00  0.00    +0.040 A 
ATOM     16  C   LIG    1        1.166   3.153   0.027  0.00  0.00    +0.120 A 
ATOM     17  C   LIG    1        0.285   3.292   1.091  0.00  0.00    +0.030 A 
ATOM     18  C   LIG    1       -0.888   2.564   1.114  0.00  0.00    +0.020 A 
BRANCH  13  20
ATOM     19  C   LIG    1       -2.239  -0.422   0.811  0.00  0.00    +0.030 C 
ATOM     20  C   LIG    1       -2.473   0.913   0.102  0.00  0.00    +0.050 C 
ENDBRANCH  13  20
ENDBRANCH   1  16
BRANCH   2  21
ATOM     21  C   LIG    1        3.597   6.018  -0.224  0.00  0.00    +0.080 C 
BRANCH  21  22
ATOM     22  C   LIG    1        3.272   7.510  -0.319  0.00  0.00    +0.370 C 
BRANCH  22  23
ATOM     23  C   LIG    1        4.554   8.304  -0.322  0.00  0.00    -0.200 A 
ATOM     24  C   LIG    1        5.069   8.934   0.735  0.00  0.00    +0.030 A 
ATOM     25  C   LIG    1        6.260   9.597   0.494  0.00  0.00    +0.010 A 
ATOM     26  C   LIG    1        6.707   9.513  -0.760  0.00  0.00    -0.040 A 
ATOM     27  S   LIG    1        5.594   8.546  -1.719  0.00  0.00    +0.110 S 
ENDBRANCH  22  23
BRANCH  22  28
ATOM     28  N   LIG    1        2.534   7.772  -1.558  0.00  0.00    -0.720 N 
ATOM     29  H   LIG    1        2.632   7.174  -2.316  0.00  0.00    +0.400 HD
ATOM     30  C   LIG    1        1.720   8.842  -1.643  0.00  0.00    +0.520 C 
ATOM     31  O   LIG    1        1.598   9.589  -0.696  0.00  0.00    -0.530 OA
ATOM     32  C   LIG    1        0.961   9.111  -2.917  0.00  0.00    +0.100 C 
ENDBRANCH  22  28
ENDBRANCH  21  22
ENDBRANCH   2  21
TORSDOF 7
