REMARK  Name = ZINCqH0000000kg4.0
REMARK                            x       y       z     vdW  Elec       q    Type
REMARK                         _______ _______ _______ _____ _____    ______ ____
ROOT
ATOM      1  C   LIG    1       -4.400  -2.059   2.675  0.00  0.00    +0.030 A 
ATOM      2  C   LIG    1       -4.149  -3.114   3.493  0.00  0.00    -0.050 A 
ATOM      3  C   LIG    1       -4.876  -4.312   3.336  0.00  0.00    +0.510 A 
ATOM      4  O   LIG    1       -5.819  -4.446   2.391  0.00  0.00    -0.260 OA
ATOM      5  C   LIG    1       -6.117  -3.437   1.545  0.00  0.00    +0.160 A 
ATOM      6  C   LIG    1       -7.095  -3.591   0.574  0.00  0.00    -0.130 A 
ATOM      7  C   LIG    1       -7.396  -2.537  -0.273  0.00  0.00    +0.160 A 
ATOM      8  C   LIG    1       -6.713  -1.327  -0.168  0.00  0.00    -0.020 A 
ATOM      9  C   LIG    1       -5.744  -1.159   0.778  0.00  0.00    +0.100 A 
ATOM     10  C   LIG    1       -7.839  -4.896   0.451  0.00  0.00    +0.110 C 
ATOM     11  O   LIG    1       -4.641  -5.250   4.077  0.00  0.00    -0.450 OA
ATOM     12  C   LIG    1       -5.435  -2.210   1.649  0.00  0.00    -0.160 A 
ENDROOT
BRANCH   7  13
ATOM     13  O   LIG    1       -8.357  -2.687  -1.220  0.00  0.00    -0.490 OA
ATOM     14  H   LIG    1       -8.027  -3.024  -2.065  0.00  0.00    +0.400 HD
ENDBRANCH   7  13
BRANCH   1  15
ATOM     15  C   LIG    1       -3.638  -0.767   2.822  0.00  0.00    +0.160 C 
BRANCH  15  16
ATOM     16  S   LIG    1       -2.424  -0.627   1.487  0.00  0.00    +0.030 S 
BRANCH  16  18
ATOM     17  N   LIG    1       -0.698   1.558   1.213  0.00  0.00    -0.450 N 
ATOM     18  C   LIG    1       -1.700   0.927   1.893  0.00  0.00    +0.150 A 
ATOM     19  N   LIG    1       -2.022   1.697   2.907  0.00  0.00    -0.290 NA
ATOM     20  N   LIG    1       -1.292   2.754   2.900  0.00  0.00    -0.280 NA
ATOM     21  C   LIG    1       -0.464   2.721   1.895  0.00  0.00    +0.230 A 
BRANCH  21  22
ATOM     22  C   LIG    1        0.560   3.770   1.545  0.00  0.00    +0.040 C 
ATOM     23  C   LIG    1        0.792   4.894   2.556  0.00  0.00    +0.070 C 
ATOM     24  C   LIG    1        0.052   5.182   1.249  0.00  0.00    +0.060 C 
ENDBRANCH  21  22
BRANCH  17  25
ATOM     25  C   LIG    1       -0.013   1.086   0.008  0.00  0.00    +0.340 C 
BRANCH  25  27
ATOM     26  C   LIG    1       -1.236   0.732  -2.075  0.00  0.00    +0.070 C 
ATOM     27  C   LIG    1       -0.742   1.585  -1.213  0.00  0.00    -0.070 C 
ENDBRANCH  25  27
ENDBRANCH  17  25
ENDBRANCH  16  18
ENDBRANCH  15  16
ENDBRANCH   1  15
TORSDOF 7
