REMARK  Name = ZINCrH000004m0UX.0
REMARK                            x       y       z     vdW  Elec       q    Type
REMARK                         _______ _______ _______ _____ _____    ______ ____
ROOT
ATOM      1  N   LIG    1        6.739   7.592   2.594  0.00  0.00    -0.670 N 
ATOM      2  H   LIG    1        6.484   7.176   3.432  0.00  0.00    +0.410 HD
ATOM      3  C   LIG    1        6.462   6.980   1.425  0.00  0.00    +0.510 C 
ATOM      4  O   LIG    1        6.691   7.543   0.376  0.00  0.00    -0.520 OA
ENDROOT
BRANCH   1   8
ATOM      5  C   LIG    1        8.696  11.278   2.610  0.00  0.00    +0.090 A 
ATOM      6  C   LIG    1        7.893  10.914   3.678  0.00  0.00    -0.010 A 
ATOM      7  C   LIG    1        7.245   9.693   3.673  0.00  0.00    -0.120 A 
ATOM      8  C   LIG    1        7.397   8.829   2.597  0.00  0.00    +0.150 A 
ATOM      9  C   LIG    1        8.205   9.189   1.527  0.00  0.00    -0.020 A 
ATOM     10  C   LIG    1        6.372   9.299   4.837  0.00  0.00    +0.090 C 
ATOM     11  C   LIG    1        8.851  10.414   1.530  0.00  0.00    +0.120 A 
BRANCH   5  13
ATOM     12  C   LIG    1        9.131  13.316   3.758  0.00  0.00    +0.230 C 
ATOM     13  O   LIG    1        9.334  12.480   2.617  0.00  0.00    -0.310 OA
ENDBRANCH   5  13
BRANCH  11  14
ATOM     14  O   LIG    1        9.639  10.771   0.480  0.00  0.00    -0.300 OA
ATOM     15  C   LIG    1        9.751   9.835  -0.594  0.00  0.00    +0.240 C 
ENDBRANCH  11  14
ENDBRANCH   1   8
BRANCH   3  16
ATOM     16  C   LIG    1        5.868   5.595   1.423  0.00  0.00    +0.070 C 
BRANCH  16  17
ATOM     17  C   LIG    1        5.653   5.135  -0.020  0.00  0.00    +0.140 C 
BRANCH  17  18
ATOM     18  C   LIG    1        5.059   3.750  -0.022  0.00  0.00    -0.230 A 
ATOM     19  C   LIG    1        3.740   3.449  -0.011  0.00  0.00    +0.240 A 
ATOM     20  N   LIG    1        3.624   2.102  -0.017  0.00  0.00    -0.320 N 
ATOM     21  N   LIG    1        4.916   1.560  -0.028  0.00  0.00    -0.290 NA
ATOM     22  C   LIG    1        5.774   2.547  -0.036  0.00  0.00    +0.250 A 
BRANCH  20  23
ATOM     23  C   LIG    1        2.425   1.377  -0.009  0.00  0.00    +0.160 A 
ATOM     24  C   LIG    1        1.208   2.045   0.009  0.00  0.00    -0.010 A 
ATOM     25  C   LIG    1        0.028   1.327   0.018  0.00  0.00    +0.040 A 
ATOM     26  C   LIG    1        0.057  -0.055   0.009  0.00  0.00    +0.000 A 
ATOM     27  C   LIG    1        1.268  -0.724  -0.008  0.00  0.00    +0.040 A 
ATOM     28  C   LIG    1        2.451  -0.011  -0.017  0.00  0.00    +0.020 A 
ENDBRANCH  20  23
ENDBRANCH  17  18
ENDBRANCH  16  17
ENDBRANCH   3  16
TORSDOF 7
