REMARK  Name = ZINCrH000004vDnv.1
REMARK                            x       y       z     vdW  Elec       q    Type
REMARK                         _______ _______ _______ _____ _____    ______ ____
ROOT
ATOM      1  O   LIG    1       -1.139  -0.437  -0.026  0.00  0.00    -0.510 OA
ATOM      2  C   LIG    1       -0.019   0.037  -0.014  0.00  0.00    +0.570 C 
ATOM      3  N   LIG    1        1.055  -0.769  -0.133  0.00  0.00    -0.610 N 
ATOM      4  C   LIG    1        2.415  -0.225  -0.021  0.00  0.00    +0.260 C 
ATOM      5  C   LIG    1        3.176  -1.026   1.046  0.00  0.00    +0.020 C 
ATOM      6  C   LIG    1        3.122  -2.514   0.692  0.00  0.00    +0.030 C 
ATOM      7  C   LIG    1        1.666  -2.986   0.683  0.00  0.00    +0.090 C 
ATOM      8  C   LIG    1        0.888  -2.207  -0.382  0.00  0.00    +0.310 C 
ENDROOT
BRANCH   7   9
ATOM      9  C   LIG    1        1.616  -4.459   0.367  0.00  0.00    +0.240 A 
ATOM     10  N   LIG    1        2.061  -5.016  -0.729  0.00  0.00    -0.310 NA
ATOM     11  N   LIG    1        1.819  -6.394  -0.610  0.00  0.00    -0.480 N 
ATOM     12  H   LIG    1        2.038  -7.081  -1.259  0.00  0.00    +0.440 HD
ATOM     13  C   LIG    1        1.221  -6.572   0.581  0.00  0.00    +0.490 A 
ATOM     14  N   LIG    1        1.105  -5.403   1.156  0.00  0.00    -0.540 NA
ENDBRANCH   7   9
BRANCH   2  15
ATOM     15  C   LIG    1        0.164   1.493   0.131  0.00  0.00    -0.200 A 
ATOM     16  C   LIG    1        1.149   2.164  -0.604  0.00  0.00    +0.140 A 
ATOM     17  C   LIG    1        1.279   3.531  -0.432  0.00  0.00    -0.060 A 
ATOM     18  C   LIG    1        0.442   4.189   0.451  0.00  0.00    +0.340 A 
ATOM     19  N   LIG    1       -0.479   3.537   1.133  0.00  0.00    -0.530 NA
ATOM     20  C   LIG    1       -0.650   2.232   1.003  0.00  0.00    +0.370 A 
BRANCH  20  21
ATOM     21  O   LIG    1       -1.613   1.605   1.719  0.00  0.00    -0.230 OA
BRANCH  21  22
ATOM     22  C   LIG    1       -2.458   2.369   2.459  0.00  0.00    +0.110 A 
ATOM     23  C   LIG    1       -2.305   2.440   3.836  0.00  0.00    +0.030 A 
ATOM     24  C   LIG    1       -3.162   3.222   4.586  0.00  0.00    +0.060 A 
ATOM     25  C   LIG    1       -4.179   3.926   3.966  0.00  0.00    -0.090 A 
ATOM     26  C   LIG    1       -4.336   3.853   2.594  0.00  0.00    +0.060 A 
ATOM     27 BR   LIG    1       -5.354   4.990   4.997  0.00  0.00    -0.040 Br
ATOM     28  C   LIG    1       -3.479   3.076   1.840  0.00  0.00    +0.030 A 
ENDBRANCH  21  22
ENDBRANCH  20  21
ENDBRANCH   2  15
TORSDOF 4
