REMARK  Name = ZINCrH000004vDnv.0
REMARK                            x       y       z     vdW  Elec       q    Type
REMARK                         _______ _______ _______ _____ _____    ______ ____
ROOT
ATOM      1  O   LIG    1       -4.410   5.193   2.785  0.00  0.00    -0.510 OA
ATOM      2  C   LIG    1       -4.129   5.941   1.868  0.00  0.00    +0.570 C 
ATOM      3  N   LIG    1       -3.212   5.569   0.953  0.00  0.00    -0.610 N 
ATOM      4  C   LIG    1       -2.911   6.433  -0.197  0.00  0.00    +0.260 C 
ATOM      5  C   LIG    1       -1.400   6.680  -0.245  0.00  0.00    +0.040 C 
ATOM      6  C   LIG    1       -0.667   5.336  -0.259  0.00  0.00    +0.040 C 
ATOM      7  C   LIG    1       -0.990   4.564   1.022  0.00  0.00    +0.090 C 
ATOM      8  C   LIG    1       -2.496   4.293   1.085  0.00  0.00    +0.290 C 
ENDROOT
BRANCH   7   9
ATOM      9  C   LIG    1       -0.243   3.256   1.023  0.00  0.00    +0.190 A 
ATOM     10  N   LIG    1        0.910   3.023   1.588  0.00  0.00    -0.280 NA
ATOM     11  N   LIG    1        1.251   1.799   1.390  0.00  0.00    -0.290 NA
ATOM     12  C   LIG    1        0.330   1.195   0.690  0.00  0.00    +0.380 A 
ATOM     13  N   LIG    1       -0.642   2.103   0.432  0.00  0.00    -0.580 N 
ATOM     14  H   LIG    1       -1.458   1.957  -0.071  0.00  0.00    +0.430 HD
ENDBRANCH   7   9
BRANCH   2  15
ATOM     15  C   LIG    1       -4.791   7.254   1.758  0.00  0.00    -0.200 A 
ATOM     16  C   LIG    1       -5.064   7.812   0.504  0.00  0.00    +0.130 A 
ATOM     17  C   LIG    1       -5.692   9.044   0.455  0.00  0.00    -0.060 A 
ATOM     18  C   LIG    1       -6.020   9.688   1.635  0.00  0.00    +0.340 A 
ATOM     19  N   LIG    1       -5.748   9.147   2.807  0.00  0.00    -0.530 NA
ATOM     20  C   LIG    1       -5.154   7.970   2.910  0.00  0.00    +0.370 A 
BRANCH  20  21
ATOM     21  O   LIG    1       -4.894   7.452   4.134  0.00  0.00    -0.220 OA
BRANCH  21  22
ATOM     22  C   LIG    1       -5.369   8.116   5.221  0.00  0.00    +0.110 A 
ATOM     23  C   LIG    1       -4.492   8.774   6.071  0.00  0.00    +0.030 A 
ATOM     24  C   LIG    1       -4.977   9.451   7.173  0.00  0.00    +0.060 A 
ATOM     25  C   LIG    1       -6.335   9.465   7.435  0.00  0.00    -0.090 A 
ATOM     26  C   LIG    1       -7.211   8.805   6.591  0.00  0.00    +0.070 A 
ATOM     27 BR   LIG    1       -6.995  10.388   8.947  0.00  0.00    -0.040 Br
ATOM     28  C   LIG    1       -6.731   8.131   5.486  0.00  0.00    +0.020 A 
ENDBRANCH  21  22
ENDBRANCH  20  21
ENDBRANCH   2  15
TORSDOF 4
