REMARK  Name = ZINCrD0000073MAG.0
REMARK                            x       y       z     vdW  Elec       q    Type
REMARK                         _______ _______ _______ _____ _____    ______ ____
ROOT
ATOM      1  N   LIG    1       -2.253   0.874  -1.292  0.00  0.00    -0.500 N 
ATOM      2  C   LIG    1       -0.881   1.385  -1.308  0.00  0.00    +0.230 C 
ATOM      3  C   LIG    1       -0.124   0.797  -0.110  0.00  0.00    -0.010 C 
ATOM      4  C   LIG    1       -0.718   1.401   1.165  0.00  0.00    +0.080 C 
ATOM      5  C   LIG    1       -2.224   1.326   1.107  0.00  0.00    -0.100 A 
ATOM      6  C   LIG    1       -2.933   1.517   2.285  0.00  0.00    -0.010 A 
ATOM      7  C   LIG    1       -4.313   1.474   2.290  0.00  0.00    +0.020 A 
ATOM      8  C   LIG    1       -5.000   1.237   1.114  0.00  0.00    +0.030 A 
ATOM      9  C   LIG    1       -4.302   1.042  -0.065  0.00  0.00    +0.170 A 
ATOM     10  C   LIG    1       -2.901   1.084  -0.073  0.00  0.00    +0.070 A 
ENDROOT
BRANCH   9  11
ATOM     11  N   LIG    1       -4.999   0.802  -1.258  0.00  0.00    -0.680 N 
ATOM     12  H   LIG    1       -4.595   1.029  -2.110  0.00  0.00    +0.410 HD
ATOM     13  C   LIG    1       -6.231   0.255  -1.220  0.00  0.00    +0.700 C 
ATOM     14  N   LIG    1       -6.870  -0.045  -2.367  0.00  0.00    -0.740 N 
ATOM     15  H   LIG    1       -6.444   0.131  -3.220  0.00  0.00    +0.400 HD
ATOM     16  O   LIG    1       -6.765   0.034  -0.150  0.00  0.00    -0.570 OA
BRANCH  14  17
ATOM     17  C   LIG    1       -8.209  -0.639  -2.326  0.00  0.00    +0.250 C 
ATOM     18  C   LIG    1       -8.089  -2.156  -2.167  0.00  0.00    +0.000 C 
ATOM     19  C   LIG    1       -9.487  -2.777  -2.123  0.00  0.00    +0.010 C 
ATOM     20  C   LIG    1      -10.227  -2.457  -3.424  0.00  0.00    +0.000 C 
ATOM     21  C   LIG    1      -10.347  -0.940  -3.583  0.00  0.00    +0.020 C 
ATOM     22  C   LIG    1       -8.949  -0.320  -3.626  0.00  0.00    +0.010 C 
ENDBRANCH  14  17
ENDBRANCH   9  11
BRANCH   1  23
ATOM     23  C   LIG    1       -2.291  -0.545  -1.670  0.00  0.00    +0.190 C 
BRANCH  23  24
ATOM     24  C   LIG    1       -1.855  -0.696  -3.129  0.00  0.00    +0.070 C 
BRANCH  24  25
ATOM     25  C   LIG    1       -1.780  -2.181  -3.488  0.00  0.00    -0.350 C 
BRANCH  25  27
ATOM     26  C   LIG    1       -1.242  -4.162  -5.419  0.00  0.00    -0.270 C 
ATOM     27  S   LIG    1       -1.263  -2.360  -5.218  0.00  0.00    +2.420 S 
ATOM     28  O   LIG    1        0.066  -1.874  -5.346  0.00  0.00    -0.940 OA
ATOM     29  O   LIG    1       -2.281  -1.823  -6.052  0.00  0.00    -0.940 OA
ENDBRANCH  25  27
ENDBRANCH  24  25
ENDBRANCH  23  24
ENDBRANCH   1  23
TORSDOF 6
