REMARK  Name = ZINCnE00000ek6Vf.0
REMARK                            x       y       z     vdW  Elec       q    Type
REMARK                         _______ _______ _______ _____ _____    ______ ____
ROOT
ATOM      1  C   LIG    1       -1.295   2.102   0.020  0.00  0.00    +0.290 C 
ENDROOT
BRANCH   1   2
ATOM      2  C   LIG    1       -1.036   3.610   0.027  0.00  0.00    +0.130 C 
ATOM      3  C   LIG    1       -2.366   4.355   0.163  0.00  0.00    +0.000 C 
ATOM      4  C   LIG    1       -2.106   5.865   0.152  0.00  0.00    +0.020 C 
ATOM      5  C   LIG    1       -1.401   6.240  -1.156  0.00  0.00    +0.030 C 
ATOM      6  C   LIG    1       -0.141   5.388  -1.302  0.00  0.00    +0.090 C 
ATOM      7  C   LIG    1        1.023   5.864  -0.422  0.00  0.00    +0.020 C 
ATOM      8  C   LIG    1        1.437   6.765  -1.598  0.00  0.00    -0.090 C 
ATOM      9  C   LIG    1        0.715   5.765  -2.518  0.00  0.00    +0.060 C 
ATOM     10  O   LIG    1       -0.400   3.990  -1.197  0.00  0.00    -0.360 OA
BRANCH   8  11
ATOM     11  C   LIG    1        2.926   6.822  -1.819  0.00  0.00    +0.500 C 
ATOM     12  O   LIG    1        3.552   5.796  -2.026  0.00  0.00    -0.690 OA
ATOM     13  O   LIG    1        3.506   7.894  -1.792  0.00  0.00    -0.700 OA
ENDBRANCH   8  11
ENDBRANCH   1   2
BRANCH   1  14
ATOM     14  N   LIG    1       -0.017   1.387   0.010  0.00  0.00    -0.720 N 
ATOM     15  H   LIG    1        0.817   1.883   0.004  0.00  0.00    +0.410 HD
BRANCH  14  22
ATOM     16  C   LIG    1        1.225  -0.693  -0.019  0.00  0.00    -0.100 A 
ATOM     17  C   LIG    1        1.231  -2.090  -0.021  0.00  0.00    +0.130 A 
ATOM     18  C   LIG    1        0.038  -2.782  -0.013  0.00  0.00    -0.100 A 
ATOM     19  C   LIG    1       -1.168  -2.098   0.002  0.00  0.00    +0.110 A 
ATOM     20  C   LIG    1       -1.189  -0.718   0.010  0.00  0.00    -0.050 A 
ATOM     21 CL   LIG    1        0.046  -4.518  -0.023  0.00  0.00    -0.070 Cl
ATOM     22  C   LIG    1        0.002  -0.004   0.002  0.00  0.00    +0.280 A 
BRANCH  16  24
ATOM     23  N   LIG    1        3.439   0.608  -0.045  0.00  0.00    -0.400 NA
ATOM     24  C   LIG    1        2.460   0.032  -0.034  0.00  0.00    +0.240 C 
ENDBRANCH  16  24
ENDBRANCH  14  22
ENDBRANCH   1  14
TORSDOF 5
