REMARK  Name = ZINCrD00000l06xo.0
REMARK                            x       y       z     vdW  Elec       q    Type
REMARK                         _______ _______ _______ _____ _____    ______ ____
ROOT
ATOM      1  C   LIG    1        4.237   1.862  -0.120  0.00  0.00    +0.030 C 
ATOM      2  C   LIG    1        3.509   1.947   1.222  0.00  0.00    +0.190 C 
ENDROOT
BRANCH   2   3
ATOM      3  N   LIG    1        2.169   1.360   1.091  0.00  0.00    -0.510 NA
ATOM      4  C   LIG    1        1.426   1.985  -0.011  0.00  0.00    +0.170 C 
ATOM      5  C   LIG    1       -0.020   1.478  -0.001  0.00  0.00    +0.310 C 
ATOM      6  N   LIG    1        0.001   0.007  -0.021  0.00  0.00    -1.000 NA
ATOM      7  C   LIG    1        0.835  -0.690   0.970  0.00  0.00    +0.320 C 
ATOM      8  C   LIG    1        2.247  -0.097   0.922  0.00  0.00    +0.180 C 
BRANCH   6   9
ATOM      9  S   LIG    1       -0.891  -0.841  -1.128  0.00  0.00    +2.710 S 
ATOM     10  O   LIG    1       -1.951   0.016  -1.531  0.00  0.00    -0.950 OA
ATOM     11  O   LIG    1       -1.104  -2.130  -0.570  0.00  0.00    -0.940 OA
BRANCH   9  12
ATOM     12  C   LIG    1        0.126  -1.075  -2.548  0.00  0.00    -0.800 A 
ATOM     13  C   LIG    1        0.943  -2.111  -2.746  0.00  0.00    +0.160 A 
ATOM     14  C   LIG    1        1.643  -2.082  -3.940  0.00  0.00    -0.010 A 
ATOM     15  C   LIG    1        1.401  -1.018  -4.707  0.00  0.00    +0.000 A 
ATOM     16  S   LIG    1        0.225   0.025  -3.917  0.00  0.00    +0.220 S 
ENDBRANCH   9  12
ENDBRANCH   6   9
ENDBRANCH   2   3
BRANCH   2  17
ATOM     17  C   LIG    1        3.386   3.391   1.637  0.00  0.00    +0.520 C 
ATOM     18  N   LIG    1        4.494   4.136   1.819  0.00  0.00    -0.670 N 
ATOM     19  H   LIG    1        5.371   3.724   1.763  0.00  0.00    +0.410 HD
ATOM     20  O   LIG    1        2.290   3.882   1.806  0.00  0.00    -0.490 OA
BRANCH  18  21
ATOM     21  C   LIG    1        4.381   5.505   2.091  0.00  0.00    +0.180 A 
ATOM     22  C   LIG    1        3.253   6.203   1.682  0.00  0.00    +0.040 A 
ATOM     23  C   LIG    1        3.143   7.554   1.951  0.00  0.00    +0.060 A 
ATOM     24  C   LIG    1        4.154   8.211   2.627  0.00  0.00    +0.020 A 
ATOM     25  C   LIG    1        5.281   7.519   3.035  0.00  0.00    -0.010 A 
ATOM     26 CL   LIG    1        6.548   8.348   3.883  0.00  0.00    -0.040 Cl
ATOM     27  C   LIG    1        5.394   6.165   2.774  0.00  0.00    -0.070 A 
ATOM     28 CL   LIG    1        6.803   5.295   3.293  0.00  0.00    -0.040 Cl
ENDBRANCH  18  21
ENDBRANCH   2  17
TORSDOF 5
