REMARK  Name = ZINCqH0000038DMW.0
REMARK                            x       y       z     vdW  Elec       q    Type
REMARK                         _______ _______ _______ _____ _____    ______ ____
ROOT
ATOM      1  N   LIG    1       -3.247   2.760   3.870  0.00  0.00    -0.440 N 
ATOM      2  C   LIG    1       -3.288   1.934   5.085  0.00  0.00    +0.210 C 
ATOM      3  C   LIG    1       -4.289   2.538   6.075  0.00  0.00    +0.290 C 
ATOM      4  N   LIG    1       -5.581   2.705   5.392  0.00  0.00    -0.630 N 
ATOM      5  C   LIG    1       -5.598   3.404   4.098  0.00  0.00    +0.330 C 
ATOM      6  C   LIG    1       -6.718   2.229   5.936  0.00  0.00    +0.700 C 
ATOM      7  N   LIG    1       -6.670   1.504   7.071  0.00  0.00    -0.670 N 
ATOM      8  H   LIG    1       -5.827   1.389   7.537  0.00  0.00    +0.410 HD
ATOM      9  O   LIG    1       -7.787   2.454   5.403  0.00  0.00    -0.520 OA
ATOM     10  C   LIG    1       -4.546   2.766   3.185  0.00  0.00    +0.190 C 
ENDROOT
BRANCH   1  15
ATOM     11  C   LIG    1        1.321   1.645   2.637  0.00  0.00    +0.160 C 
ATOM     12  C   LIG    1       -0.158   1.816   2.403  0.00  0.00    +0.080 A 
ATOM     13  C   LIG    1       -0.736   1.558   1.229  0.00  0.00    -0.240 A 
ATOM     14  S   LIG    1       -2.459   1.893   1.383  0.00  0.00    +0.090 S 
ATOM     15  C   LIG    1       -2.237   2.339   3.018  0.00  0.00    +0.230 A 
ATOM     16  C   LIG    1       -0.037   1.072  -0.014  0.00  0.00    +0.160 C 
ATOM     17  N   LIG    1       -0.987   2.233   3.344  0.00  0.00    -0.490 NA
ENDBRANCH   1  15
BRANCH   7  18
ATOM     18  C   LIG    1       -7.831   0.920   7.575  0.00  0.00    +0.370 A 
ATOM     19  C   LIG    1       -7.796   0.265   8.800  0.00  0.00    -0.070 A 
ATOM     20  C   LIG    1       -8.958  -0.305   9.292  0.00  0.00    +0.100 A 
ATOM     21  C   LIG    1      -10.115  -0.209   8.532  0.00  0.00    -0.150 A 
ATOM     22  C   LIG    1      -10.076   0.452   7.320  0.00  0.00    +0.300 A 
ATOM     23  N   LIG    1       -8.955   0.990   6.880  0.00  0.00    -0.470 NA
BRANCH  21  24
ATOM     24  C   LIG    1      -11.402  -0.820   9.025  0.00  0.00    +0.030 C 
ATOM     25  C   LIG    1      -12.233  -1.485   7.915  0.00  0.00    +0.010 C 
ATOM     26  C   LIG    1      -13.477  -0.892   8.602  0.00  0.00    +0.010 C 
ATOM     27  C   LIG    1      -12.549   0.194   9.171  0.00  0.00    +0.020 C 
ENDBRANCH  21  24
ENDBRANCH   7  18
TORSDOF 3
