REMARK  Name = ZINCtV00000L6jUQ.0
REMARK                            x       y       z     vdW  Elec       q    Type
REMARK                         _______ _______ _______ _____ _____    ______ ____
ROOT
ATOM      1  P   LIG    1       -0.673   3.135   6.027  0.00  0.00    +2.860 P 
ATOM      2  N   LIG    1        0.190   3.740   7.168  0.00  0.00    -1.230 NA
ENDROOT
BRANCH   1   3
ATOM      3  C   LIG    1       -1.861   1.956   6.727  0.00  0.00    -0.770 A 
ATOM      4  C   LIG    1       -3.216   2.226   6.675  0.00  0.00    +0.060 A 
ATOM      5  C   LIG    1       -4.121   1.325   7.204  0.00  0.00    +0.000 A 
ATOM      6  C   LIG    1       -3.670   0.159   7.794  0.00  0.00    +0.060 A 
ATOM      7  C   LIG    1       -2.315  -0.109   7.851  0.00  0.00    +0.000 A 
ATOM      8  C   LIG    1       -1.411   0.789   7.317  0.00  0.00    +0.090 A 
ENDBRANCH   1   3
BRANCH   1   9
ATOM      9  C   LIG    1       -1.570   4.464   5.178  0.00  0.00    -0.780 A 
ATOM     10  C   LIG    1       -1.173   5.778   5.338  0.00  0.00    +0.110 A 
ATOM     11  C   LIG    1       -1.853   6.791   4.688  0.00  0.00    +0.000 A 
ATOM     12  C   LIG    1       -2.937   6.490   3.885  0.00  0.00    +0.060 A 
ATOM     13  C   LIG    1       -3.338   5.176   3.729  0.00  0.00    +0.000 A 
ATOM     14  C   LIG    1       -2.655   4.163   4.375  0.00  0.00    +0.060 A 
ENDBRANCH   1   9
BRANCH   2  15
ATOM     15  C   LIG    1       -0.389   4.414   8.151  0.00  0.00    +0.240 A 
ATOM     16  C   LIG    1        0.385   4.968   9.206  0.00  0.00    -0.020 A 
ATOM     17  C   LIG    1       -0.266   5.658  10.191  0.00  0.00    +0.000 A 
ATOM     18  C   LIG    1       -1.647   5.788  10.142  0.00  0.00    +0.130 A 
ATOM     19  N   LIG    1       -2.358   5.263   9.158  0.00  0.00    -0.430 NA
ATOM     20  C   LIG    1       -1.797   4.593   8.177  0.00  0.00    +0.020 A 
ENDBRANCH   2  15
BRANCH   1  21
ATOM     21  N   LIG    1        0.299   2.362   4.956  0.00  0.00    -1.100 N 
ATOM     22  H   LIG    1        1.262   2.392   5.066  0.00  0.00    +0.440 HD
BRANCH  21  27
ATOM     23  C   LIG    1       -1.972  -0.478   0.605  0.00  0.00    +0.090 C 
ATOM     24  C   LIG    1       -1.368   0.273   1.763  0.00  0.00    -0.110 A 
ATOM     25  C   LIG    1       -2.172   0.696   2.806  0.00  0.00    +0.060 A 
ATOM     26  C   LIG    1       -1.622   1.390   3.866  0.00  0.00    -0.100 A 
ATOM     27  C   LIG    1       -0.260   1.659   3.886  0.00  0.00    +0.170 A 
ATOM     28  C   LIG    1        0.546   1.228   2.840  0.00  0.00    -0.020 A 
ATOM     29  C   LIG    1       -0.010   0.534   1.783  0.00  0.00    -0.040 A 
ATOM     30  C   LIG    1        0.863   0.067   0.647  0.00  0.00    +0.110 C 
ENDBRANCH  21  27
ENDBRANCH   1  21
TORSDOF 5
