REMARK  Name = ZINCrH000004jouX.0
REMARK                            x       y       z     vdW  Elec       q    Type
REMARK                         _______ _______ _______ _____ _____    ______ ____
ROOT
ATOM      1  N   LIG    1        5.065  -7.366  -0.659  0.00  0.00    -0.450 N 
ATOM      2  C   LIG    1        4.078  -6.432  -0.526  0.00  0.00    +0.140 A 
ATOM      3  N   LIG    1        2.932  -7.076  -0.516  0.00  0.00    -0.290 NA
ATOM      4  N   LIG    1        3.135  -8.340  -0.627  0.00  0.00    -0.260 NA
ATOM      5  C   LIG    1        4.423  -8.581  -0.715  0.00  0.00    +0.220 A 
ENDROOT
BRANCH   5   6
ATOM      6  C   LIG    1        5.061  -9.907  -0.855  0.00  0.00    -0.010 A 
ATOM      7  C   LIG    1        4.317 -10.998  -1.308  0.00  0.00    +0.090 A 
ATOM      8  C   LIG    1        4.920 -12.232  -1.440  0.00  0.00    +0.030 A 
ATOM      9  C   LIG    1        6.256 -12.392  -1.115  0.00  0.00    -0.020 A 
ATOM     10  C   LIG    1        6.997 -11.314  -0.660  0.00  0.00    +0.030 A 
ATOM     11 CL   LIG    1        7.006 -13.949  -1.278  0.00  0.00    -0.060 Cl
ATOM     12  C   LIG    1        6.408 -10.074  -0.528  0.00  0.00    +0.030 A 
ENDBRANCH   5   6
BRANCH   1  14
ATOM     13  C   LIG    1        7.076  -7.033   0.694  0.00  0.00    +0.050 C 
ATOM     14  C   LIG    1        6.509  -7.124  -0.724  0.00  0.00    +0.300 C 
ENDBRANCH   1  14
BRANCH   2  15
ATOM     15  S   LIG    1        4.298  -4.689  -0.399  0.00  0.00    +0.090 S 
BRANCH  15  16
ATOM     16  C   LIG    1        2.571  -4.163  -0.264  0.00  0.00    +0.110 C 
BRANCH  16  17
ATOM     17  C   LIG    1        2.511  -2.662  -0.142  0.00  0.00    +0.540 C 
ATOM     18  N   LIG    1        1.320  -2.042  -0.028  0.00  0.00    -0.650 N 
ATOM     19  H   LIG    1        0.507  -2.565   0.058  0.00  0.00    +0.420 HD
ATOM     20  O   LIG    1        3.535  -2.012  -0.145  0.00  0.00    -0.500 OA
BRANCH  18  21
ATOM     21  C   LIG    1        1.255  -0.642  -0.035  0.00  0.00    +0.060 A 
ATOM     22  C   LIG    1        2.245   0.107  -0.666  0.00  0.00    +0.110 A 
ATOM     23  C   LIG    1        2.140   1.487  -0.646  0.00  0.00    -0.020 A 
ATOM     24  C   LIG    1        1.059   2.075  -0.004  0.00  0.00    +0.310 A 
ATOM     25  N   LIG    1        0.136   1.332   0.585  0.00  0.00    -0.520 NA
ATOM     26  C   LIG    1        0.203   0.015   0.587  0.00  0.00    +0.280 A 
BRANCH  24  27
ATOM     27  O   LIG    1        0.948   3.427   0.021  0.00  0.00    -0.310 OA
ATOM     28  C   LIG    1       -0.187   3.973   0.698  0.00  0.00    +0.260 C 
ENDBRANCH  24  27
ENDBRANCH  18  21
ENDBRANCH  16  17
ENDBRANCH  15  16
ENDBRANCH   2  15
TORSDOF 7
