REMARK  Name = ZINCvU00000007CQ.0
REMARK                            x       y       z     vdW  Elec       q    Type
REMARK                         _______ _______ _______ _____ _____    ______ ____
ROOT
ATOM      1  C   LIG    1       -2.951   4.620   1.043  0.00  0.00    +0.150 A 
ATOM      2  N   LIG    1       -4.122   5.064   0.646  0.00  0.00    -0.280 NA
ATOM      3  N   LIG    1       -4.401   4.598  -0.518  0.00  0.00    -0.260 NA
ATOM      4  C   LIG    1       -3.423   3.830  -0.941  0.00  0.00    +0.250 A 
ATOM      5  N   LIG    1       -2.461   3.823   0.044  0.00  0.00    -0.420 N 
ENDROOT
BRANCH   5   6
ATOM      6  C   LIG    1       -1.238   3.137   0.029  0.00  0.00    +0.120 A 
ATOM      7  C   LIG    1       -1.219   1.750   0.017  0.00  0.00    +0.070 A 
ATOM      8  C   LIG    1       -0.013   1.076   0.008  0.00  0.00    +0.080 A 
ATOM      9  C   LIG    1        1.176   1.783   0.000  0.00  0.00    -0.020 A 
ATOM     10  C   LIG    1        1.161   3.168   0.007  0.00  0.00    -0.020 A 
ATOM     11 CL   LIG    1        2.654   4.053  -0.002  0.00  0.00    -0.020 Cl
ATOM     12 CL   LIG    1        2.690   0.933  -0.019  0.00  0.00    -0.030 Cl
ATOM     13  C   LIG    1       -0.044   3.846   0.022  0.00  0.00    +0.070 A 
ENDBRANCH   5   6
BRANCH   4  14
ATOM     14  C   LIG    1       -3.366   3.112  -2.231  0.00  0.00    -0.070 A 
ATOM     15  C   LIG    1       -2.153   2.597  -2.692  0.00  0.00    +0.070 A 
ATOM     16  C   LIG    1       -2.105   1.923  -3.894  0.00  0.00    -0.070 A 
ATOM     17  C   LIG    1       -3.259   1.765  -4.651  0.00  0.00    +0.150 A 
ATOM     18  C   LIG    1       -4.466   2.281  -4.198  0.00  0.00    -0.010 A 
ATOM     19  C   LIG    1       -4.524   2.951  -2.995  0.00  0.00    +0.120 A 
BRANCH  17  20
ATOM     20  O   LIG    1       -3.206   1.104  -5.837  0.00  0.00    -0.310 OA
ATOM     21  C   LIG    1       -1.932   0.600  -6.242  0.00  0.00    +0.240 C 
ENDBRANCH  17  20
ENDBRANCH   4  14
BRANCH   1  22
ATOM     22  S   LIG    1       -2.158   4.984   2.574  0.00  0.00    +0.100 S 
BRANCH  22  23
ATOM     23  C   LIG    1       -3.401   6.066   3.322  0.00  0.00    +0.110 C 
BRANCH  23  26
ATOM     24  N   LIG    1       -3.692   7.333   5.426  0.00  0.00    -0.710 N 
ATOM     25  H   LIG    1       -4.551   7.633   5.090  0.00  0.00    +0.400 HD
ATOM     26  C   LIG    1       -2.925   6.515   4.679  0.00  0.00    +0.530 C 
ATOM     27  O   LIG    1       -1.850   6.141   5.100  0.00  0.00    -0.520 OA
BRANCH  24  28
ATOM     28  C   LIG    1       -3.229   7.770   6.746  0.00  0.00    +0.230 C 
BRANCH  28  30
ATOM     29  C   LIG    1       -1.063   8.608   5.825  0.00  0.00    +0.010 C 
ATOM     30  C   LIG    1       -2.329   8.998   6.590  0.00  0.00    -0.010 C 
ENDBRANCH  28  30
BRANCH  28  31
ATOM     31  C   LIG    1       -4.435   8.129   7.617  0.00  0.00    +0.020 C 
ATOM     32  C   LIG    1       -5.269   6.873   7.875  0.00  0.00    +0.020 C 
ENDBRANCH  28  31
ENDBRANCH  24  28
ENDBRANCH  23  26
ENDBRANCH  22  23
ENDBRANCH   1  22
TORSDOF 9
