REMARK  Name = ZINCnE000001OJXp.0
REMARK                            x       y       z     vdW  Elec       q    Type
REMARK                         _______ _______ _______ _____ _____    ______ ____
ROOT
ATOM      1  C   LIG    1       -2.672   1.736   0.078  0.00  0.00    +0.590 C 
ATOM      2  N   LIG    1       -3.091   0.456   0.034  0.00  0.00    -0.600 N 
ATOM      3  C   LIG    1       -2.137  -0.637  -0.196  0.00  0.00    +0.250 C 
ATOM      4  C   LIG    1       -2.621  -1.481  -1.373  0.00  0.00    +0.000 C 
ATOM      5  C   LIG    1       -4.056  -1.944  -1.111  0.00  0.00    +0.010 C 
ATOM      6  C   LIG    1       -4.971  -0.725  -0.980  0.00  0.00    -0.030 C 
ATOM      7  C   LIG    1       -4.513   0.128   0.208  0.00  0.00    +0.290 C 
ATOM      8  O   LIG    1       -3.482   2.639   0.162  0.00  0.00    -0.550 OA
ENDROOT
BRANCH   1  12
ATOM      9  C   LIG    1        2.374   1.535   0.811  0.00  0.00    +0.130 C 
ATOM     10  C   LIG    1        0.992   1.935   0.362  0.00  0.00    +0.010 A 
ATOM     11  C   LIG    1       -0.151   1.308   0.693  0.00  0.00    -0.030 A 
ATOM     12  C   LIG    1       -1.232   2.041   0.026  0.00  0.00    -0.220 A 
ATOM     13  C   LIG    1       -0.633   3.067  -0.652  0.00  0.00    +0.090 A 
ATOM     14  C   LIG    1       -1.340   4.101  -1.490  0.00  0.00    +0.130 C 
ATOM     15  N   LIG    1        0.696   2.993  -0.448  0.00  0.00    -0.430 N 
BRANCH  15  16
ATOM     16  C   LIG    1        1.683   3.916  -1.014  0.00  0.00    +0.220 C 
ATOM     17  C   LIG    1        2.766   3.119  -1.744  0.00  0.00    +0.030 C 
ATOM     18  C   LIG    1        2.321   4.732   0.112  0.00  0.00    +0.040 C 
ENDBRANCH  15  16
ENDBRANCH   1  12
BRANCH   6  19
ATOM     19  C   LIG    1       -6.411  -1.189  -0.749  0.00  0.00    +0.040 C 
BRANCH  19  20
ATOM     20  C   LIG    1       -7.343   0.025  -0.739  0.00  0.00    -0.070 C 
BRANCH  20  21
ATOM     21  C   LIG    1       -8.761  -0.432  -0.512  0.00  0.00    +0.490 C 
ATOM     22  O   LIG    1       -9.665   0.384  -0.469  0.00  0.00    -0.710 OA
ATOM     23  O   LIG    1       -9.003  -1.619  -0.372  0.00  0.00    -0.700 OA
ENDBRANCH  20  21
ENDBRANCH  19  20
ENDBRANCH   6  19
TORSDOF 5
