REMARK  Name = ZINCrD000000fSs1.1
REMARK                            x       y       z     vdW  Elec       q    Type
REMARK                         _______ _______ _______ _____ _____    ______ ____
ROOT
ATOM      1  C   LIG    1       -1.937   5.701  -1.886  0.00  0.00    +0.530 C 
ATOM      2  N   LIG    1       -1.914   6.871  -1.217  0.00  0.00    -0.610 N 
ATOM      3  C   LIG    1       -0.637   7.520  -0.889  0.00  0.00    +0.280 C 
ATOM      4  C   LIG    1       -0.662   8.952  -1.451  0.00  0.00    +0.290 C 
ATOM      5  N   LIG    1       -1.914   9.598  -1.031  0.00  0.00    -0.610 N 
ATOM      6  C   LIG    1       -3.191   8.945  -1.354  0.00  0.00    +0.260 C 
ATOM      7  C   LIG    1       -1.891  10.768  -0.362  0.00  0.00    +0.570 C 
ATOM      8  O   LIG    1       -0.838  11.351  -0.193  0.00  0.00    -0.520 OA
ATOM      9  C   LIG    1       -3.166   7.517  -0.797  0.00  0.00    +0.270 C 
ATOM     10  O   LIG    1       -2.995   5.223  -2.236  0.00  0.00    -0.530 OA
ENDROOT
BRANCH   7  11
ATOM     11  C   LIG    1       -3.145  11.341   0.165  0.00  0.00    -0.130 A 
ATOM     12  C   LIG    1       -4.166  10.499   0.614  0.00  0.00    +0.070 A 
ATOM     13  C   LIG    1       -5.333  11.037   1.109  0.00  0.00    +0.010 A 
ATOM     14  C   LIG    1       -5.501  12.416   1.153  0.00  0.00    +0.150 A 
ATOM     15  C   LIG    1       -4.489  13.258   0.702  0.00  0.00    -0.070 A 
ATOM     16 CL   LIG    1       -4.705  14.980   0.759  0.00  0.00    -0.040 Cl
ATOM     17  C   LIG    1       -3.317  12.727   0.210  0.00  0.00    +0.110 A 
BRANCH  14  18
ATOM     18  O   LIG    1       -6.654  12.942   1.637  0.00  0.00    -0.480 OA
ATOM     19  H   LIG    1       -7.337  13.078   0.965  0.00  0.00    +0.400 HD
ENDBRANCH  14  18
ENDBRANCH   7  11
BRANCH   1  21
ATOM     20  C   LIG    1        0.161   5.810  -3.204  0.00  0.00    +0.070 C 
ATOM     21  C   LIG    1       -0.647   4.987  -2.199  0.00  0.00    -0.040 C 
ATOM     22  C   LIG    1       -0.957   3.613  -2.797  0.00  0.00    +0.080 C 
BRANCH  21  23
ATOM     23  C   LIG    1        0.152   4.815  -0.933  0.00  0.00    -0.080 A 
ATOM     24  C   LIG    1        1.457   4.364  -0.996  0.00  0.00    +0.020 A 
ATOM     25  C   LIG    1        2.190   4.206   0.166  0.00  0.00    +0.020 A 
ATOM     26  C   LIG    1        1.618   4.500   1.389  0.00  0.00    +0.000 A 
ATOM     27  C   LIG    1        0.311   4.946   1.452  0.00  0.00    +0.000 A 
ATOM     28  C   LIG    1       -0.420   5.109   0.290  0.00  0.00    +0.000 A 
ENDBRANCH  21  23
ENDBRANCH   1  21
TORSDOF 4
