REMARK  Name = ZINCpk00000k8RQl.0
REMARK                            x       y       z     vdW  Elec       q    Type
REMARK                         _______ _______ _______ _____ _____    ______ ____
ROOT
ATOM      1  C   LIG    1       -1.116   9.710  -0.216  0.00  0.00    +0.530 C 
ATOM      2  N   LIG    1       -0.551   8.540   0.143  0.00  0.00    -0.710 N 
ATOM      3  H   LIG    1        0.406   8.489   0.288  0.00  0.00    +0.400 HD
ATOM      4  O   LIG    1       -2.313   9.775  -0.398  0.00  0.00    -0.530 OA
ENDROOT
BRANCH   1   7
ATOM      5  N   LIG    1       -0.288  12.919  -1.742  0.00  0.00    -0.620 N 
ATOM      6  C   LIG    1       -1.117  12.156  -0.802  0.00  0.00    +0.290 C 
ATOM      7  C   LIG    1       -0.260  10.938  -0.391  0.00  0.00    +0.000 C 
ATOM      8  C   LIG    1        0.679  10.788  -1.610  0.00  0.00    +0.080 C 
ATOM      9  C   LIG    1        0.725  12.174  -2.216  0.00  0.00    +0.520 C 
ATOM     10  O   LIG    1        1.555  12.556  -3.013  0.00  0.00    -0.510 OA
BRANCH   5  11
ATOM     11  C   LIG    1       -0.533  14.314  -2.116  0.00  0.00    +0.320 C 
BRANCH  11  12
ATOM     12  C   LIG    1        0.215  15.239  -1.154  0.00  0.00    +0.150 C 
BRANCH  12  14
ATOM     13  C   LIG    1        2.418  15.870  -0.451  0.00  0.00    +0.200 C 
ATOM     14  O   LIG    1        1.623  15.049  -1.308  0.00  0.00    -0.380 OA
ENDBRANCH  12  14
ENDBRANCH  11  12
ENDBRANCH   5  11
ENDBRANCH   1   7
BRANCH   2  15
ATOM     15  C   LIG    1       -1.383   7.347   0.313  0.00  0.00    +0.230 C 
ATOM     16  C   LIG    1       -1.210   6.309  -0.809  0.00  0.00    +0.040 C 
ATOM     17  C   LIG    1       -0.075   5.704   0.035  0.00  0.00    +0.020 C 
ATOM     18  C   LIG    1       -0.776   6.303   1.265  0.00  0.00    +0.050 C 
BRANCH  17  19
ATOM     19  C   LIG    1       -0.055   4.197   0.026  0.00  0.00    -0.040 A 
ATOM     20  C   LIG    1        1.154   3.525   0.010  0.00  0.00    +0.010 A 
ATOM     21  C   LIG    1        1.180   2.146   0.002  0.00  0.00    +0.060 A 
ATOM     22  C   LIG    1       -0.017   1.428   0.010  0.00  0.00    -0.030 A 
ATOM     23  C   LIG    1       -1.234   2.113   0.019  0.00  0.00    +0.060 A 
ATOM     24  C   LIG    1       -1.246   3.492   0.033  0.00  0.00    +0.020 A 
BRANCH  22  25
ATOM     25  C   LIG    1        0.002  -0.004   0.002  0.00  0.00    +0.250 C 
ATOM     26  N   LIG    1        0.018  -1.140  -0.004  0.00  0.00    -0.410 NA
ENDBRANCH  22  25
ENDBRANCH  17  19
ENDBRANCH   2  15
TORSDOF 7
