REMARK  Name = ZINCpe00000FRMUU.0
REMARK                            x       y       z     vdW  Elec       q    Type
REMARK                         _______ _______ _______ _____ _____    ______ ____
ROOT
ATOM      1  C   LIG    1       -0.718   1.572   1.248  0.00  0.00    +0.530 C 
ATOM      2  N   LIG    1       -0.242   1.246   2.466  0.00  0.00    -0.620 N 
ATOM      3  C   LIG    1        0.951   0.427   2.728  0.00  0.00    +0.240 C 
ATOM      4  C   LIG    1        1.092   0.301   4.260  0.00  0.00    +0.040 C 
ATOM      5  C   LIG    1       -0.348   0.581   4.765  0.00  0.00    +0.000 C 
ATOM      6  C   LIG    1       -0.827   1.656   3.755  0.00  0.00    +0.280 C 
ATOM      7  O   LIG    1       -1.714   2.256   1.150  0.00  0.00    -0.540 OA
ENDROOT
BRANCH   1   8
ATOM      8  C   LIG    1       -0.013   1.086   0.008  0.00  0.00    +0.050 C 
BRANCH   8   9
ATOM      9  C   LIG    1       -0.753   1.593  -1.232  0.00  0.00    +0.030 C 
BRANCH   9  10
ATOM     10  C   LIG    1       -0.037   1.099  -2.490  0.00  0.00    +0.030 C 
BRANCH  10  11
ATOM     11  C   LIG    1       -0.777   1.606  -3.730  0.00  0.00    +0.030 C 
BRANCH  11  12
ATOM     12  C   LIG    1       -0.060   1.113  -4.989  0.00  0.00    +0.250 C 
BRANCH  12  14
ATOM     13  C   LIG    1       -0.018   1.227  -7.384  0.00  0.00    +0.310 C 
ATOM     14  N   LIG    1       -0.771   1.599  -6.179  0.00  0.00    -0.390 N 
ATOM     15  C   LIG    1       -2.109   0.996  -6.231  0.00  0.00    +0.320 C 
ATOM     16  H   LIG    1       -0.857   2.604  -6.132  0.00  0.00    +0.430 HD
ENDBRANCH  12  14
ENDBRANCH  11  12
ENDBRANCH  10  11
ENDBRANCH   9  10
ENDBRANCH   8   9
ENDBRANCH   1   8
BRANCH   5  17
ATOM     17  C   LIG    1       -0.331   1.139   6.190  0.00  0.00    +0.330 C 
BRANCH  17  18
ATOM     18  N   LIG    1        0.159   0.110   7.111  0.00  0.00    -0.300 N 
ATOM     19  C   LIG    1        1.199   0.243   7.967  0.00  0.00    +0.100 A 
ATOM     20  C   LIG    1        1.303  -0.938   8.620  0.00  0.00    +0.040 A 
ATOM     21  N   LIG    1        0.335  -1.725   8.138  0.00  0.00    -0.230 NA
ATOM     22  N   LIG    1       -0.329  -1.073   7.250  0.00  0.00    -0.100 NA
BRANCH  20  23
ATOM     23  C   LIG    1        2.311  -1.296   9.681  0.00  0.00    +0.050 C 
BRANCH  23  24
ATOM     24  C   LIG    1        1.592  -1.768  10.918  0.00  0.00    +0.500 C 
ATOM     25  O   LIG    1        2.228  -2.108  11.901  0.00  0.00    -0.700 OA
ATOM     26  O   LIG    1        0.373  -1.811  10.936  0.00  0.00    -0.680 OA
ENDBRANCH  23  24
ENDBRANCH  20  23
ENDBRANCH  17  18
ENDBRANCH   5  17
TORSDOF 10
