REMARK  Name = ZINCtV000002Mxgv.0
REMARK                            x       y       z     vdW  Elec       q    Type
REMARK                         _______ _______ _______ _____ _____    ______ ____
ROOT
ATOM      1  O   LIG    1        5.576  -1.686   1.575  0.00  0.00    -0.500 OA
ATOM      2  C   LIG    1        4.556  -1.622   0.922  0.00  0.00    +0.520 C 
ATOM      3  N   LIG    1        4.304  -0.532   0.171  0.00  0.00    -0.660 N 
ATOM      4  H   LIG    1        3.455  -0.446  -0.290  0.00  0.00    +0.420 HD
ENDROOT
BRANCH   3   5
ATOM      5  C   LIG    1        5.265   0.474   0.056  0.00  0.00    +0.210 A 
ATOM      6  C   LIG    1        6.614   0.150   0.040  0.00  0.00    +0.010 A 
ATOM      7  C   LIG    1        7.564   1.147  -0.075  0.00  0.00    +0.060 A 
ATOM      8  C   LIG    1        7.178   2.473  -0.173  0.00  0.00    -0.010 A 
ATOM      9  C   LIG    1        5.841   2.812  -0.165  0.00  0.00    +0.060 A 
ATOM     10  C   LIG    1        4.872   1.816  -0.044  0.00  0.00    -0.080 A 
BRANCH  10  11
ATOM     11  C   LIG    1        3.438   2.173  -0.028  0.00  0.00    +0.170 A 
ATOM     12  N   LIG    1        2.467   1.323  -0.018  0.00  0.00    -0.480 NA
ATOM     13  C   LIG    1        1.211   1.802  -0.004  0.00  0.00    +0.090 A 
ATOM     14  C   LIG    1       -0.008   1.089   0.010  0.00  0.00    +0.070 A 
ATOM     15  C   LIG    1       -1.197   1.752   0.018  0.00  0.00    +0.040 A 
ATOM     16  C   LIG    1       -1.237   3.139   0.025  0.00  0.00    +0.040 A 
ATOM     17  C   LIG    1       -0.065   3.861   0.012  0.00  0.00    +0.060 A 
ATOM     18  C   LIG    1        1.162   3.201  -0.003  0.00  0.00    -0.180 A 
ATOM     19  S   LIG    1        2.813   3.816  -0.020  0.00  0.00    +0.080 S 
ENDBRANCH  10  11
ENDBRANCH   3   5
BRANCH   2  20
ATOM     20  C   LIG    1        3.571  -2.762   0.950  0.00  0.00    +0.170 C 
BRANCH  20  21
ATOM     21  C   LIG    1        4.086  -3.849   1.857  0.00  0.00    +0.090 A 
ATOM     22  C   LIG    1        3.367  -4.318   2.880  0.00  0.00    -0.070 A 
ATOM     23  S   LIG    1        4.308  -5.570   3.688  0.00  0.00    +0.100 S 
ATOM     24  C   LIG    1        5.618  -5.322   2.538  0.00  0.00    +0.140 A 
ATOM     25  N   LIG    1        5.274  -4.390   1.695  0.00  0.00    -0.440 NA
BRANCH  24  26
ATOM     26  C   LIG    1        6.903  -6.053   2.530  0.00  0.00    -0.050 A 
ATOM     27  C   LIG    1        7.871  -5.819   1.621  0.00  0.00    +0.020 A 
ATOM     28  S   LIG    1        9.239  -6.878   1.935  0.00  0.00    +0.140 S 
ATOM     29  C   LIG    1        8.413  -7.599   3.309  0.00  0.00    -0.040 A 
ATOM     30  C   LIG    1        7.217  -7.040   3.465  0.00  0.00    +0.020 A 
ENDBRANCH  24  26
ENDBRANCH  20  21
ENDBRANCH   2  20
TORSDOF 5
