REMARK  Name = ZINCrD00000l3rSe.0
REMARK                            x       y       z     vdW  Elec       q    Type
REMARK                         _______ _______ _______ _____ _____    ______ ____
ROOT
ATOM      1  C   LIG    1       -2.343   9.853  -0.085  0.00  0.00    +0.270 C 
ENDROOT
BRANCH   1   2
ATOM      2  C   LIG    1       -1.386  11.018  -0.092  0.00  0.00    +0.520 C 
ATOM      3  N   LIG    1       -1.848  12.270   0.091  0.00  0.00    -0.670 N 
ATOM      4  H   LIG    1       -2.803  12.431   0.151  0.00  0.00    +0.420 HD
ATOM      5  O   LIG    1       -0.201  10.828  -0.264  0.00  0.00    -0.490 OA
BRANCH   3   6
ATOM      6  C   LIG    1       -0.954  13.335   0.194  0.00  0.00    +0.170 A 
ATOM      7  C   LIG    1        0.287  13.144   0.793  0.00  0.00    +0.010 A 
ATOM      8  C   LIG    1        1.174  14.192   0.891  0.00  0.00    +0.070 A 
ATOM      9  C   LIG    1        0.823  15.452   0.399  0.00  0.00    -0.160 A 
ATOM     10  C   LIG    1       -0.426  15.642  -0.198  0.00  0.00    +0.100 A 
ATOM     11  C   LIG    1       -1.307  14.588  -0.298  0.00  0.00    -0.010 A 
BRANCH   9  12
ATOM     12  C   LIG    1        1.769  16.579   0.509  0.00  0.00    +0.560 C 
ATOM     13  O   LIG    1        1.462  17.675   0.080  0.00  0.00    -0.540 OA
ATOM     14  N   LIG    1        2.974  16.395   1.085  0.00  0.00    -0.850 N 
ATOM     15  H   LIG    1        3.595  17.136   1.157  0.00  0.00    +0.410 HD
ATOM     16  H   LIG    1        3.219  15.521   1.427  0.00  0.00    +0.400 HD
ENDBRANCH   9  12
ENDBRANCH   3   6
ENDBRANCH   1   2
BRANCH   1  17
ATOM     17  O   LIG    1       -1.606   8.620  -0.301  0.00  0.00    -0.320 OA
BRANCH  17  18
ATOM     18  C   LIG    1       -2.320   7.476  -0.322  0.00  0.00    +0.560 C 
ATOM     19  O   LIG    1       -3.525   7.509  -0.164  0.00  0.00    -0.470 OA
BRANCH  18  22
ATOM     20  C   LIG    1       -3.729   4.706  -0.414  0.00  0.00    +0.160 C 
ATOM     21  C   LIG    1       -2.256   4.981  -0.577  0.00  0.00    -0.050 A 
ATOM     22  C   LIG    1       -1.642   6.192  -0.536  0.00  0.00    -0.020 A 
ATOM     23  O   LIG    1       -0.314   6.036  -0.722  0.00  0.00    -0.160 OA
ATOM     24  C   LIG    1       -0.003   4.736  -0.890  0.00  0.00    +0.100 A 
ATOM     25  C   LIG    1        1.194   4.065  -1.109  0.00  0.00    +0.050 A 
ATOM     26  C   LIG    1        1.197   2.693  -1.244  0.00  0.00    +0.100 A 
ATOM     27  C   LIG    1        0.014   1.969  -1.163  0.00  0.00    -0.110 A 
ATOM     28  C   LIG    1       -1.176   2.609  -0.954  0.00  0.00    +0.120 A 
ATOM     29 BR   LIG    1        0.050   0.088  -1.352  0.00  0.00    -0.030 Br
ATOM     30  C   LIG    1       -1.199   3.998  -0.809  0.00  0.00    -0.150 A 
ENDBRANCH  18  22
ENDBRANCH  17  18
ENDBRANCH   1  17
TORSDOF 6
