REMARK  Name = ZINCqH0000038CTw.0
REMARK                            x       y       z     vdW  Elec       q    Type
REMARK                         _______ _______ _______ _____ _____    ______ ____
ROOT
ATOM      1  C   LIG    1       -1.975   4.967   0.147  0.00  0.00    +0.130 C 
ENDROOT
BRANCH   1   2
ATOM      2  C   LIG    1       -2.474   5.369   1.511  0.00  0.00    -0.080 A 
ATOM      3  C   LIG    1       -1.685   6.154   2.331  0.00  0.00    +0.000 A 
ATOM      4  C   LIG    1       -2.145   6.527   3.581  0.00  0.00    +0.010 A 
ATOM      5  C   LIG    1       -3.388   6.105   4.014  0.00  0.00    +0.010 A 
ATOM      6  C   LIG    1       -4.173   5.315   3.196  0.00  0.00    +0.020 A 
ATOM      7  C   LIG    1       -3.716   4.947   1.945  0.00  0.00    +0.040 A 
ENDBRANCH   1   2
BRANCH   1   8
ATOM      8  C   LIG    1       -2.987   5.367  -0.895  0.00  0.00    -0.080 A 
ATOM      9  C   LIG    1       -3.613   4.399  -1.658  0.00  0.00    +0.020 A 
ATOM     10  C   LIG    1       -4.545   4.765  -2.611  0.00  0.00    +0.010 A 
ATOM     11  C   LIG    1       -4.844   6.100  -2.808  0.00  0.00    +0.010 A 
ATOM     12  C   LIG    1       -4.214   7.069  -2.049  0.00  0.00    +0.010 A 
ATOM     13  C   LIG    1       -3.286   6.702  -1.093  0.00  0.00    +0.020 A 
ENDBRANCH   1   8
BRANCH   1  14
ATOM     14  C   LIG    1       -0.696   5.642  -0.127  0.00  0.00    +0.220 C 
ATOM     15  N   LIG    1        0.291   6.163  -0.338  0.00  0.00    -0.420 NA
ENDBRANCH   1  14
BRANCH   1  16
ATOM     16  C   LIG    1       -1.771   3.451   0.105  0.00  0.00    +0.070 C 
BRANCH  16  17
ATOM     17  C   LIG    1       -0.711   3.050   1.133  0.00  0.00    +0.180 C 
BRANCH  17  18
ATOM     18  N   LIG    1       -0.605   1.586   1.181  0.00  0.00    -0.530 NA
ATOM     19  C   LIG    1       -0.083   1.054  -0.084  0.00  0.00    +0.200 C 
BRANCH  18  20
ATOM     20  C   LIG    1        0.223   1.155   2.316  0.00  0.00    +0.320 C 
BRANCH  20  24
ATOM     21  C   LIG    1       -1.250  -3.417   3.729  0.00  0.00    +0.240 C 
ATOM     22  C   LIG    1       -0.522  -2.265   3.087  0.00  0.00    +0.180 A 
ATOM     23  N   LIG    1       -0.787  -0.990   3.240  0.00  0.00    -0.470 NA
ATOM     24  C   LIG    1        0.111  -0.338   2.481  0.00  0.00    +0.180 A 
ATOM     25  N   LIG    1        0.869  -1.233   1.921  0.00  0.00    -0.380 NA
ATOM     26  O   LIG    1        0.522  -2.346   2.256  0.00  0.00    +0.080 OA
ENDBRANCH  20  24
ENDBRANCH  18  20
ENDBRANCH  17  18
ENDBRANCH  16  17
ENDBRANCH   1  16
TORSDOF 8
