REMARK  Name = ZINCrD000000BoRM.0
REMARK                            x       y       z     vdW  Elec       q    Type
REMARK                         _______ _______ _______ _____ _____    ______ ____
ROOT
ATOM      1  C   LIG    1       -0.914   1.709   3.648  0.00  0.00    -0.080 A 
ATOM      2  C   LIG    1       -2.058   2.502   3.538  0.00  0.00    +0.030 A 
ATOM      3  C   LIG    1       -2.701   2.940   4.677  0.00  0.00    +0.120 A 
ATOM      4  C   LIG    1       -2.209   2.603   5.926  0.00  0.00    -0.660 A 
ATOM      5  C   LIG    1       -1.073   1.822   6.041  0.00  0.00    +0.120 A 
ATOM      6  C   LIG    1       -0.423   1.373   4.910  0.00  0.00    +0.070 A 
ENDROOT
BRANCH   1   8
ATOM      7  O   LIG    1        0.777   0.546   2.530  0.00  0.00    -0.520 OA
ATOM      8  C   LIG    1       -0.222   1.232   2.431  0.00  0.00    +0.550 C 
ATOM      9  N   LIG    1       -0.698   1.558   1.213  0.00  0.00    -0.720 N 
ATOM     10  H   LIG    1       -1.495   2.106   1.135  0.00  0.00    +0.400 HD
BRANCH   9  11
ATOM     11  C   LIG    1       -0.013   1.086   0.008  0.00  0.00    +0.320 C 
BRANCH  11  12
ATOM     12  C   LIG    1       -0.742   1.585  -1.213  0.00  0.00    -0.130 A 
ATOM     13  C   LIG    1       -1.750   0.824  -1.775  0.00  0.00    +0.070 A 
ATOM     14  C   LIG    1       -2.423   1.284  -2.891  0.00  0.00    -0.010 A 
ATOM     15  C   LIG    1       -2.079   2.501  -3.454  0.00  0.00    +0.110 A 
ATOM     16  C   LIG    1       -1.065   3.260  -2.893  0.00  0.00    -0.020 A 
ATOM     17  F   LIG    1       -2.732   2.948  -4.549  0.00  0.00    -0.140 F 
ATOM     18  C   LIG    1       -0.398   2.801  -1.774  0.00  0.00    +0.070 A 
ENDBRANCH  11  12
ENDBRANCH   9  11
ENDBRANCH   1   8
BRANCH   4  19
ATOM     19  S   LIG    1       -3.033   3.173   7.376  0.00  0.00    +2.680 S 
ATOM     20  O   LIG    1       -2.681   2.272   8.417  0.00  0.00    -0.950 OA
ATOM     21  O   LIG    1       -4.377   3.436   6.996  0.00  0.00    -0.950 OA
BRANCH  19  22
ATOM     22  N   LIG    1       -2.366   4.635   7.776  0.00  0.00    -0.990 NA
ATOM     23  C   LIG    1       -1.229   4.656   8.670  0.00  0.00    +0.280 C 
ATOM     24  C   LIG    1       -1.713   4.740  10.133  0.00  0.00    +0.010 C 
ATOM     25  C   LIG    1       -2.267   6.074  10.412  0.00  0.00    +0.000 C 
ATOM     26  C   LIG    1       -3.498   6.428   9.584  0.00  0.00    +0.010 C 
ATOM     27  C   LIG    1       -3.062   6.990   8.254  0.00  0.00    +0.020 C 
ATOM     28  C   LIG    1       -2.959   5.862   7.211  0.00  0.00    +0.280 C 
ENDBRANCH  19  22
ENDBRANCH   4  19
TORSDOF 5
