REMARK  Name = ZINCpk00001AZj5i.0
REMARK                            x       y       z     vdW  Elec       q    Type
REMARK                         _______ _______ _______ _____ _____    ______ ____
ROOT
ATOM      1  C   LIG    1       -1.349   2.730   0.028  0.00  0.00    +0.240 C 
ATOM      2  C   LIG    1       -0.959   1.695  -1.040  0.00  0.00    +0.030 C 
ATOM      3  C   LIG    1       -0.013   1.086   0.008  0.00  0.00    +0.230 C 
ATOM      4  C   LIG    1       -0.939   1.683   1.080  0.00  0.00    +0.020 C 
ENDROOT
BRANCH   3   5
ATOM      5  N   LIG    1        1.329   1.673  -0.002  0.00  0.00    -0.710 N 
ATOM      6  H   LIG    1        1.466   2.565  -0.358  0.00  0.00    +0.400 HD
ATOM      7  C   LIG    1        2.374   0.974   0.484  0.00  0.00    +0.550 C 
ATOM      8  O   LIG    1        2.204  -0.141   0.929  0.00  0.00    -0.530 OA
BRANCH   7   9
ATOM      9  C   LIG    1        3.755   1.578   0.474  0.00  0.00    -0.070 C 
ATOM     10  C   LIG    1        4.788   0.963  -0.472  0.00  0.00    +0.060 C 
ATOM     11  C   LIG    1        4.900   0.733   1.038  0.00  0.00    +0.010 C 
BRANCH  11  12
ATOM     12  C   LIG    1        6.017   1.466   1.783  0.00  0.00    +0.000 C 
ATOM     13  C   LIG    1        7.058   0.453   2.264  0.00  0.00    +0.030 C 
ATOM     14  C   LIG    1        5.429   2.204   2.987  0.00  0.00    +0.020 C 
ENDBRANCH  11  12
ENDBRANCH   7   9
ENDBRANCH   3   5
BRANCH   1  15
ATOM     15  N   LIG    1       -2.778   3.049   0.042  0.00  0.00    -1.100 NA
ATOM     16  H   LIG    1       -3.431   2.360  -0.155  0.00  0.00    +0.420 HD
BRANCH  15  17
ATOM     17  S   LIG    1       -3.280   4.588   0.396  0.00  0.00    +2.720 S 
ATOM     18  O   LIG    1       -2.587   4.975   1.574  0.00  0.00    -0.940 OA
ATOM     19  O   LIG    1       -4.697   4.581   0.295  0.00  0.00    -0.950 OA
BRANCH  17  21
ATOM     20  N   LIG    1       -3.351   5.949  -2.053  0.00  0.00    -0.400 N 
ATOM     21  C   LIG    1       -2.694   5.636  -0.893  0.00  0.00    -0.610 A 
ATOM     22  C   LIG    1       -1.517   6.289  -0.925  0.00  0.00    +0.290 A 
ATOM     23  N   LIG    1       -1.453   6.974  -2.076  0.00  0.00    -0.500 NA
ATOM     24  C   LIG    1       -2.550   6.778  -2.755  0.00  0.00    +0.260 A 
ATOM     25  C   LIG    1       -2.868   7.376  -4.101  0.00  0.00    +0.190 C 
BRANCH  20  27
ATOM     26  C   LIG    1       -5.744   6.443  -1.948  0.00  0.00    +0.050 C 
ATOM     27  C   LIG    1       -4.677   5.472  -2.457  0.00  0.00    +0.290 C 
ENDBRANCH  20  27
ENDBRANCH  17  21
ENDBRANCH  15  17
ENDBRANCH   1  15
TORSDOF 7
