REMARK  Name = ZINCpk000000my6f.0
REMARK                            x       y       z     vdW  Elec       q    Type
REMARK                         _______ _______ _______ _____ _____    ______ ____
ROOT
ATOM      1  N   LIG    1       -2.606   4.096   0.037  0.00  0.00    -0.520 NA
ATOM      2  C   LIG    1       -3.288   3.748  -1.217  0.00  0.00    +0.190 C 
ATOM      3  C   LIG    1       -4.753   4.184  -1.136  0.00  0.00    +0.190 C 
ATOM      4  N   LIG    1       -4.818   5.631  -0.890  0.00  0.00    -0.540 NA
ATOM      5  C   LIG    1       -4.136   5.980   0.364  0.00  0.00    +0.190 C 
ATOM      6  C   LIG    1       -2.671   5.544   0.283  0.00  0.00    +0.190 C 
ENDROOT
BRANCH   1   7
ATOM      7  C   LIG    1       -1.214   3.626   0.028  0.00  0.00    +0.220 C 
BRANCH   7  10
ATOM      8  N   LIG    1       -0.018   1.461   0.010  0.00  0.00    -0.730 N 
ATOM      9  H   LIG    1        0.816   1.957   0.005  0.00  0.00    +0.400 HD
ATOM     10  C   LIG    1       -1.194   2.119   0.019  0.00  0.00    +0.520 C 
ATOM     11  O   LIG    1       -2.236   1.498   0.021  0.00  0.00    -0.520 OA
BRANCH   8  12
ATOM     12  C   LIG    1        0.002  -0.004   0.002  0.00  0.00    +0.410 C 
BRANCH  12  14
ATOM     13  C   LIG    1        2.508  -0.852  -0.026  0.00  0.00    +0.060 C 
ATOM     14  C   LIG    1        1.396  -0.476  -0.014  0.00  0.00    -0.220 C 
ENDBRANCH  12  14
ENDBRANCH   8  12
ENDBRANCH   7  10
ENDBRANCH   1   7
BRANCH   4  15
ATOM     15  C   LIG    1       -6.209   6.102  -0.881  0.00  0.00    +0.240 C 
BRANCH  15  16
ATOM     16  C   LIG    1       -6.800   5.949  -2.259  0.00  0.00    -0.090 A 
ATOM     17  C   LIG    1       -6.704   6.985  -3.169  0.00  0.00    +0.070 A 
ATOM     18  C   LIG    1       -7.240   6.846  -4.435  0.00  0.00    -0.060 A 
ATOM     19  C   LIG    1       -7.885   5.669  -4.788  0.00  0.00    +0.100 A 
ATOM     20  C   LIG    1       -7.985   4.633  -3.870  0.00  0.00    +0.020 A 
ATOM     21  C   LIG    1       -7.442   4.776  -2.608  0.00  0.00    +0.060 A 
BRANCH  19  22
ATOM     22  O   LIG    1       -8.418   5.531  -6.031  0.00  0.00    -0.310 OA
BRANCH  22  23
ATOM     23  C   LIG    1       -8.277   6.639  -6.923  0.00  0.00    +0.600 C 
ATOM     24  F   LIG    1       -8.898   7.764  -6.371  0.00  0.00    -0.160 F 
ATOM     25  F   LIG    1       -8.877   6.329  -8.148  0.00  0.00    -0.130 F 
ATOM     26  F   LIG    1       -6.919   6.907  -7.124  0.00  0.00    -0.160 F 
ENDBRANCH  22  23
ENDBRANCH  19  22
ENDBRANCH  15  16
ENDBRANCH   4  15
TORSDOF 8
