REMARK  Name = ZINCrD00000hQ4rz.0
REMARK                            x       y       z     vdW  Elec       q    Type
REMARK                         _______ _______ _______ _____ _____    ______ ____
ROOT
ATOM      1  N   LIG    1       -2.793  -2.555  -0.231  0.00  0.00    -0.650 NA
ATOM      2  H   LIG    1       -3.350  -2.254   0.554  0.00  0.00    +0.350 HD
ENDROOT
BRANCH   1   3
ATOM      3  C   LIG    1       -2.816  -4.019  -0.362  0.00  0.00    +0.210 C 
ATOM      4  C   LIG    1       -2.101  -4.444  -1.661  0.00  0.00    +0.050 C 
ATOM      5  C   LIG    1       -2.932  -5.646  -2.175  0.00  0.00    +0.010 C 
ATOM      6  C   LIG    1       -4.385  -5.226  -1.840  0.00  0.00    +0.020 C 
ATOM      7  C   LIG    1       -4.267  -4.516  -0.475  0.00  0.00    +0.040 C 
BRANCH   3   8
ATOM      8  C   LIG    1       -2.144  -4.653   0.829  0.00  0.00    +0.150 A 
ATOM      9  N   LIG    1       -2.657  -5.556   1.610  0.00  0.00    -0.370 NA
ATOM     10  O   LIG    1       -1.863  -5.862   2.475  0.00  0.00    +0.080 OA
ATOM     11  C   LIG    1       -0.736  -5.162   2.324  0.00  0.00    +0.210 A 
ATOM     12  N   LIG    1       -0.902  -4.393   1.275  0.00  0.00    -0.480 NA
BRANCH  11  13
ATOM     13  C   LIG    1        0.495  -5.245   3.189  0.00  0.00    +0.060 C 
ATOM     14  C   LIG    1        0.549  -6.359   4.236  0.00  0.00    +0.070 C 
ATOM     15  C   LIG    1        0.339  -4.908   4.674  0.00  0.00    +0.070 C 
ENDBRANCH  11  13
ENDBRANCH   3   8
ENDBRANCH   1   3
BRANCH   1  16
ATOM     16  C   LIG    1       -1.416  -2.058  -0.121  0.00  0.00    +0.180 C 
BRANCH  16  17
ATOM     17  C   LIG    1       -1.433  -0.534   0.013  0.00  0.00    +0.230 C 
BRANCH  17  18
ATOM     18  O   LIG    1       -2.066  -0.171   1.242  0.00  0.00    -0.550 OA
ATOM     19  H   LIG    1       -1.626  -0.521   2.029  0.00  0.00    +0.370 HD
ENDBRANCH  17  18
BRANCH  17  20
ATOM     20  C   LIG    1        0.002  -0.004   0.002  0.00  0.00    +0.160 C 
BRANCH  20  21
ATOM     21  O   LIG    1       -0.017   1.425   0.010  0.00  0.00    -0.300 OA
BRANCH  21  26
ATOM     22  C   LIG    1        4.966   4.050  -0.024  0.00  0.00    +0.090 C 
ATOM     23  C   LIG    1        3.633   3.348  -0.015  0.00  0.00    -0.120 A 
ATOM     24  C   LIG    1        3.580   1.966  -0.021  0.00  0.00    +0.030 A 
ATOM     25  C   LIG    1        2.359   1.320  -0.013  0.00  0.00    -0.070 A 
ATOM     26  C   LIG    1        1.185   2.058   0.002  0.00  0.00    +0.120 A 
ATOM     27  C   LIG    1        1.240   3.445   0.003  0.00  0.00    -0.110 A 
ATOM     28  C   LIG    1       -0.034   4.250   0.013  0.00  0.00    +0.090 C 
ATOM     29  C   LIG    1        2.463   4.086   0.000  0.00  0.00    +0.050 A 
ENDBRANCH  21  26
ENDBRANCH  20  21
ENDBRANCH  17  20
ENDBRANCH  16  17
ENDBRANCH   1  16
TORSDOF 9
