REMARK  Name = ZINCrD0000072y7J.0
REMARK                            x       y       z     vdW  Elec       q    Type
REMARK                         _______ _______ _______ _____ _____    ______ ____
ROOT
ATOM      1  C   LIG    1        2.274   2.181  -6.737  0.00  0.00    +0.480 C 
ATOM      2  N   LIG    1        2.724   2.328  -5.475  0.00  0.00    -0.670 N 
ATOM      3  H   LIG    1        3.652   2.559  -5.315  0.00  0.00    +0.410 HD
ATOM      4  O   LIG    1        1.096   1.975  -6.941  0.00  0.00    -0.500 OA
ENDROOT
BRANCH   2   5
ATOM      5  C   LIG    1        1.850   2.147  -4.394  0.00  0.00    +0.130 A 
ATOM      6  C   LIG    1        0.523   2.540  -4.501  0.00  0.00    +0.040 A 
ATOM      7  C   LIG    1       -0.338   2.362  -3.436  0.00  0.00    -0.020 A 
ATOM      8  C   LIG    1        0.125   1.790  -2.257  0.00  0.00    +0.090 A 
ATOM      9  C   LIG    1        1.454   1.403  -2.149  0.00  0.00    +0.040 A 
ATOM     10  C   LIG    1        2.313   1.575  -3.216  0.00  0.00    +0.000 A 
BRANCH   8  11
ATOM     11  N   LIG    1       -0.747   1.610  -1.178  0.00  0.00    -0.510 N 
ATOM     12  C   LIG    1       -2.091   1.217  -1.644  0.00  0.00    +0.200 C 
ATOM     13  C   LIG    1       -2.727   0.364  -0.575  0.00  0.00    +0.020 C 
ATOM     14  C   LIG    1       -3.618   1.199   0.361  0.00  0.00    +0.000 C 
ATOM     15  C   LIG    1       -2.977   2.558   0.708  0.00  0.00    +0.000 C 
ATOM     16  C   LIG    1       -1.499   2.448   0.983  0.00  0.00    +0.030 C 
ATOM     17  C   LIG    1       -0.723   2.717  -0.325  0.00  0.00    +0.180 C 
ENDBRANCH   8  11
ENDBRANCH   2   5
BRANCH   1  18
ATOM     18  C   LIG    1        3.234   2.272  -7.895  0.00  0.00    +0.340 C 
BRANCH  18  20
ATOM     19  C   LIG    1        1.840   3.215  -9.794  0.00  0.00    +0.320 C 
ATOM     20  N   LIG    1        2.504   2.078  -9.150  0.00  0.00    -0.980 NA
BRANCH  20  21
ATOM     21  S   LIG    1        2.430   0.576  -9.842  0.00  0.00    +2.720 S 
ATOM     22  O   LIG    1        3.553  -0.146  -9.355  0.00  0.00    -0.950 OA
ATOM     23  O   LIG    1        2.181   0.783 -11.226  0.00  0.00    -0.940 OA
BRANCH  21  24
ATOM     24  C   LIG    1        1.003  -0.228  -9.194  0.00  0.00    -0.780 A 
ATOM     25  C   LIG    1       -0.219  -0.173  -9.726  0.00  0.00    +0.160 A 
ATOM     26  C   LIG    1       -1.187  -0.886  -9.040  0.00  0.00    -0.010 A 
ATOM     27  C   LIG    1       -0.751  -1.520  -7.950  0.00  0.00    +0.000 A 
ATOM     28  S   LIG    1        0.972  -1.230  -7.749  0.00  0.00    +0.220 S 
ENDBRANCH  21  24
ENDBRANCH  20  21
ENDBRANCH  18  20
ENDBRANCH   1  18
TORSDOF 6
