REMARK  Name = ZINCnE000001Q30F.0
REMARK                            x       y       z     vdW  Elec       q    Type
REMARK                         _______ _______ _______ _____ _____    ______ ____
ROOT
ATOM      1  C   LIG    1       -2.522   3.869   0.046  0.00  0.00    +0.540 C 
ATOM      2  N   LIG    1       -3.682   3.183   0.054  0.00  0.00    -0.680 N 
ATOM      3  H   LIG    1       -3.672   2.213   0.049  0.00  0.00    +0.410 HD
ATOM      4  O   LIG    1       -2.534   5.085   0.053  0.00  0.00    -0.540 OA
ENDROOT
BRANCH   1  10
ATOM      5  C   LIG    1        2.470   3.925   0.000  0.00  0.00    +0.090 C 
ATOM      6  C   LIG    1        1.169   3.165   0.008  0.00  0.00    -0.090 A 
ATOM      7  C   LIG    1        1.178   1.782   0.000  0.00  0.00    +0.040 A 
ATOM      8  C   LIG    1       -0.013   1.076   0.008  0.00  0.00    +0.010 A 
ATOM      9  C   LIG    1       -1.217   1.747   0.017  0.00  0.00    +0.070 A 
ATOM     10  C   LIG    1       -1.235   3.143   0.031  0.00  0.00    -0.110 A 
ATOM     11  C   LIG    1       -0.030   3.851   0.023  0.00  0.00    +0.010 A 
ATOM     12 CL   LIG    1       -0.040   5.587   0.033  0.00  0.00    -0.030 Cl
ENDBRANCH   1  10
BRANCH   2  13
ATOM     13  C   LIG    1       -4.958   3.903   0.069  0.00  0.00    +0.280 C 
BRANCH  13  14
ATOM     14  C   LIG    1       -6.111   2.897   0.075  0.00  0.00    -0.120 C 
ATOM     15  C   LIG    1       -6.033   2.025  -1.179  0.00  0.00    +0.040 C 
BRANCH  14  16
ATOM     16  C   LIG    1       -7.424   3.637   0.091  0.00  0.00    -0.040 A 
ATOM     17  C   LIG    1       -7.438   5.019   0.104  0.00  0.00    -0.010 A 
ATOM     18  C   LIG    1       -8.642   5.698   0.114  0.00  0.00    -0.020 A 
ATOM     19  C   LIG    1       -9.832   4.995   0.121  0.00  0.00    -0.030 A 
ATOM     20  C   LIG    1       -9.818   3.613   0.114  0.00  0.00    -0.020 A 
ATOM     21  C   LIG    1       -8.614   2.934   0.099  0.00  0.00    +0.060 A 
ENDBRANCH  14  16
BRANCH  14  22
ATOM     22  C   LIG    1       -6.011   2.025   1.300  0.00  0.00    +0.510 C 
ATOM     23  O   LIG    1       -4.920   1.780   1.787  0.00  0.00    -0.680 OA
ATOM     24  O   LIG    1       -7.021   1.565   1.805  0.00  0.00    -0.680 OA
ENDBRANCH  14  22
ENDBRANCH  13  14
ENDBRANCH   2  13
TORSDOF 5
