REMARK  Name = ZINCrH000004u816.0
REMARK                            x       y       z     vdW  Elec       q    Type
REMARK                         _______ _______ _______ _____ _____    ______ ____
ROOT
ATOM      1  C   LIG    1       -2.550  -2.680   0.012  0.00  0.00    +0.520 C 
ATOM      2  N   LIG    1       -2.778  -4.008   0.007  0.00  0.00    -0.610 N 
ATOM      3  C   LIG    1       -1.663  -4.967  -0.009  0.00  0.00    +0.300 C 
ATOM      4  C   LIG    1       -1.679  -5.776   1.293  0.00  0.00    +0.100 C 
ATOM      5  C   LIG    1       -3.092  -6.227   1.575  0.00  0.00    +0.080 A 
ATOM      6  C   LIG    1       -4.189  -5.676   1.012  0.00  0.00    -0.190 A 
ATOM      7  C   LIG    1       -5.341  -6.377   1.539  0.00  0.00    -0.090 A 
ATOM      8  C   LIG    1       -6.715  -6.243   1.322  0.00  0.00    +0.060 A 
ATOM      9  C   LIG    1       -7.539  -7.101   2.009  0.00  0.00    -0.030 A 
ATOM     10  C   LIG    1       -7.043  -8.058   2.879  0.00  0.00    +0.020 A 
ATOM     11  C   LIG    1       -5.688  -8.212   3.113  0.00  0.00    +0.000 A 
ATOM     12  C   LIG    1       -4.828  -7.356   2.429  0.00  0.00    +0.100 A 
ATOM     13  N   LIG    1       -3.468  -7.237   2.424  0.00  0.00    -0.580 N 
ATOM     14  H   LIG    1       -2.858  -7.784   2.943  0.00  0.00    +0.420 HD
ATOM     15  C   LIG    1       -4.152  -4.541   0.024  0.00  0.00    +0.370 C 
ATOM     16  O   LIG    1       -3.482  -1.905   0.025  0.00  0.00    -0.530 OA
ENDROOT
BRANCH   1  17
ATOM     17  C   LIG    1       -1.136  -2.159   0.001  0.00  0.00    +0.300 C 
BRANCH  17  20
ATOM     18  O   LIG    1        1.063  -0.598  -0.011  0.00  0.00    -0.510 OA
ATOM     19  C   LIG    1        0.002  -0.004   0.002  0.00  0.00    +0.560 C 
ATOM     20  N   LIG    1       -1.156  -0.694   0.009  0.00  0.00    -0.720 N 
ATOM     21  H   LIG    1       -2.002  -0.220   0.020  0.00  0.00    +0.410 HD
BRANCH  19  22
ATOM     22  C   LIG    1       -0.018   1.473   0.010  0.00  0.00    -0.130 A 
ATOM     23  C   LIG    1       -1.235   2.158   0.020  0.00  0.00    +0.090 A 
ATOM     24  C   LIG    1       -1.247   3.536   0.033  0.00  0.00    +0.040 A 
ATOM     25  C   LIG    1       -0.056   4.243   0.024  0.00  0.00    +0.000 A 
ATOM     26  C   LIG    1        1.155   3.571   0.010  0.00  0.00    +0.040 A 
ATOM     27 CL   LIG    1       -0.081   5.979   0.033  0.00  0.00    -0.050 Cl
ATOM     28  C   LIG    1        1.181   2.191   0.003  0.00  0.00    +0.030 A 
ATOM     29 CL   LIG    1        2.699   1.350  -0.016  0.00  0.00    -0.010 Cl
ENDBRANCH  19  22
ENDBRANCH  17  20
ENDBRANCH   1  17
TORSDOF 3
