REMARK  Name = ZINCqH00000505hy.0
REMARK                            x       y       z     vdW  Elec       q    Type
REMARK                         _______ _______ _______ _____ _____    ______ ____
ROOT
ATOM      1  C   LIG    1        1.175   1.534  -2.495  0.00  0.00    +0.510 C 
ATOM      2  O   LIG    1        0.072   1.024  -2.494  0.00  0.00    -0.490 OA
ENDROOT
BRANCH   1   3
ATOM      3  C   LIG    1        1.848   1.833  -1.218  0.00  0.00    -0.150 A 
ATOM      4  C   LIG    1        3.117   2.419  -1.214  0.00  0.00    +0.100 A 
ATOM      5  C   LIG    1        3.741   2.696  -0.017  0.00  0.00    -0.100 A 
ATOM      6  C   LIG    1        3.118   2.397   1.183  0.00  0.00    +0.070 A 
ATOM      7  C   LIG    1        1.862   1.822   1.193  0.00  0.00    -0.110 A 
ATOM      8  C   LIG    1        1.220   1.531  -0.001  0.00  0.00    +0.170 A 
BRANCH   7   9
ATOM      9  C   LIG    1        1.190   1.506   2.505  0.00  0.00    +0.030 C 
ATOM     10  C   LIG    1        1.009   2.794   3.309  0.00  0.00    +0.040 C 
ATOM     11  C   LIG    1        2.057   0.526   3.298  0.00  0.00    +0.030 C 
ENDBRANCH   7   9
BRANCH   5  12
ATOM     12  C   LIG    1        5.110   3.328  -0.014  0.00  0.00    +0.030 C 
ATOM     13  C   LIG    1        5.048   4.682  -0.723  0.00  0.00    +0.030 C 
ATOM     14  C   LIG    1        6.095   2.413  -0.745  0.00  0.00    +0.030 C 
ENDBRANCH   5  12
BRANCH   8  15
ATOM     15  O   LIG    1       -0.011   0.963   0.007  0.00  0.00    -0.470 OA
ATOM     16  H   LIG    1        0.002  -0.004   0.002  0.00  0.00    +0.400 HD
ENDBRANCH   8  15
ENDBRANCH   1   3
BRANCH   1  17
ATOM     17  O   LIG    1        1.782   1.825  -3.662  0.00  0.00    -0.330 OA
BRANCH  17  18
ATOM     18  C   LIG    1        1.059   1.502  -4.879  0.00  0.00    +0.280 C 
BRANCH  18  21
ATOM     19  N   LIG    1        1.416   1.690  -7.320  0.00  0.00    -0.630 N 
ATOM     20  H   LIG    1        0.542   1.287  -7.447  0.00  0.00    +0.420 HD
ATOM     21  C   LIG    1        1.888   1.897  -6.075  0.00  0.00    +0.530 C 
ATOM     22  O   LIG    1        2.980   2.400  -5.916  0.00  0.00    -0.490 OA
BRANCH  19  26
ATOM     23  C   LIG    1        5.041   3.394 -10.287  0.00  0.00    +0.190 C 
ATOM     24  C   LIG    1        3.776   2.804  -9.720  0.00  0.00    -0.020 A 
ATOM     25  C   LIG    1        3.472   2.651  -8.411  0.00  0.00    -0.040 A 
ATOM     26  C   LIG    1        2.183   2.055  -8.426  0.00  0.00    +0.250 A 
ATOM     27  N   LIG    1        1.862   1.912  -9.685  0.00  0.00    -0.390 NA
ATOM     28  O   LIG    1        2.733   2.327 -10.414  0.00  0.00    +0.100 OA
ENDBRANCH  19  26
ENDBRANCH  18  21
ENDBRANCH  17  18
ENDBRANCH   1  17
TORSDOF 8
