REMARK  Name = ZINCkj000005lJib.1
REMARK                            x       y       z     vdW  Elec       q    Type
REMARK                         _______ _______ _______ _____ _____    ______ ____
ROOT
ATOM      1  O   LIG    1       -1.136   6.083   1.904  0.00  0.00    -0.580 OA
ATOM      2  C   LIG    1       -1.579   5.283   2.704  0.00  0.00    +0.710 C 
ATOM      3  N   LIG    1       -2.210   5.717   3.813  0.00  0.00    -0.740 N 
ATOM      4  H   LIG    1       -2.564   5.079   4.452  0.00  0.00    +0.400 HD
ATOM      5  N   LIG    1       -1.440   3.961   2.483  0.00  0.00    -0.750 N 
ATOM      6  H   LIG    1       -1.794   3.322   3.121  0.00  0.00    +0.400 HD
ENDROOT
BRANCH   3   7
ATOM      7  C   LIG    1       -2.361   7.154   4.054  0.00  0.00    +0.280 C 
BRANCH   7   8
ATOM      8  C   LIG    1       -3.108   7.375   5.372  0.00  0.00    +0.110 C 
BRANCH   8   9
ATOM      9  C   LIG    1       -3.263   8.853   5.620  0.00  0.00    -0.190 A 
ATOM     10  C   LIG    1       -4.292   9.598   5.210  0.00  0.00    +0.010 A 
ATOM     11  C   LIG    1       -4.217  10.936   5.556  0.00  0.00    +0.000 A 
ATOM     12  C   LIG    1       -3.128  11.278   6.246  0.00  0.00    -0.030 A 
ATOM     13  S   LIG    1       -2.120   9.859   6.500  0.00  0.00    +0.100 S 
ENDBRANCH   8   9
ENDBRANCH   7   8
ENDBRANCH   3   7
BRANCH   5  14
ATOM     14  C   LIG    1       -0.755   3.488   1.277  0.00  0.00    +0.300 C 
BRANCH  14  15
ATOM     15  C   LIG    1       -0.734   1.958   1.269  0.00  0.00    +0.030 C 
BRANCH  15  16
ATOM     16  C   LIG    1       -0.018   1.465   0.010  0.00  0.00    +0.270 C 
BRANCH  16  17
ATOM     17  N   LIG    1        0.002  -0.004   0.002  0.00  0.00    -0.390 N 
ATOM     18  C   LIG    1        0.814  -0.489   1.126  0.00  0.00    +0.230 C 
ATOM     19  C   LIG    1        0.834  -2.020   1.116  0.00  0.00    +0.260 C 
ATOM     20  O   LIG    1        1.347  -2.476  -0.139  0.00  0.00    -0.360 OA
ATOM     21  C   LIG    1        0.602  -2.010  -1.268  0.00  0.00    +0.260 C 
ATOM     22  C   LIG    1        0.583  -0.479  -1.262  0.00  0.00    +0.240 C 
ATOM     23  H   LIG    1       -0.940  -0.354   0.092  0.00  0.00    +0.420 HD
ENDBRANCH  16  17
ENDBRANCH  15  16
ENDBRANCH  14  15
ENDBRANCH   5  14
TORSDOF 7
