REMARK  Name = ZINCtj00001yywCQ.1
REMARK                            x       y       z     vdW  Elec       q    Type
REMARK                         _______ _______ _______ _____ _____    ______ ____
ROOT
ATOM      1  N   LIG    1       -3.490   0.793   1.304  0.00  0.00    -0.390 N 
ATOM      2  C   LIG    1       -3.015   2.137   1.701  0.00  0.00    +0.280 C 
ATOM      3  C   LIG    1       -3.947   2.631   2.826  0.00  0.00    +0.110 C 
ATOM      4  C   LIG    1       -4.986   1.509   3.003  0.00  0.00    +0.260 C 
ATOM      5  C   LIG    1       -6.354   2.084   3.224  0.00  0.00    -0.030 A 
ATOM      6  C   LIG    1       -7.166   1.691   4.232  0.00  0.00    +0.010 A 
ATOM      7  N   LIG    1       -8.317   2.412   4.116  0.00  0.00    -0.440 N 
ATOM      8  C   LIG    1       -8.169   3.228   3.047  0.00  0.00    +0.420 A 
ATOM      9  C   LIG    1       -9.493   2.320   4.984  0.00  0.00    +0.340 C 
ATOM     10  C   LIG    1       -6.820   0.653   5.260  0.00  0.00    +0.120 C 
ATOM     11  C   LIG    1       -5.602  -0.156   4.837  0.00  0.00    +0.330 C 
ATOM     12  N   LIG    1       -6.990   3.024   2.522  0.00  0.00    -0.470 NA
ATOM     13  N   LIG    1       -4.623   0.635   4.107  0.00  0.00    -0.580 N 
ATOM     14  C   LIG    1       -3.327   0.554   4.468  0.00  0.00    +0.580 C 
ATOM     15  O   LIG    1       -2.488   1.194   3.867  0.00  0.00    -0.530 OA
ATOM     16  C   LIG    1       -4.932   0.747   1.664  0.00  0.00    +0.290 C 
ATOM     17  H   LIG    1       -2.983   0.082   1.810  0.00  0.00    +0.420 HD
ENDROOT
BRANCH  14  18
ATOM     18  C   LIG    1       -2.927  -0.316   5.599  0.00  0.00    +0.000 A 
ATOM     19  C   LIG    1       -1.761  -0.042   6.317  0.00  0.00    +0.100 A 
ATOM     20  C   LIG    1       -1.430  -0.888   7.367  0.00  0.00    +0.060 A 
ATOM     21  C   LIG    1       -2.276  -1.950   7.639  0.00  0.00    +0.260 A 
ATOM     22  N   LIG    1       -3.362  -2.137   6.908  0.00  0.00    -0.240 NA
ATOM     23  N   LIG    1       -3.678  -1.357   5.939  0.00  0.00    -0.210 NA
ENDBRANCH  14  18
BRANCH   1  24
ATOM     24  C   LIG    1       -3.323   0.603  -0.143  0.00  0.00    +0.410 C 
BRANCH  24  29
ATOM     25  C   LIG    1        1.464  -0.853  -1.077  0.00  0.00    +0.180 C 
ATOM     26  C   LIG    1        0.202  -0.052  -0.881  0.00  0.00    +0.020 A 
ATOM     27  N   LIG    1        0.068   1.236  -1.014  0.00  0.00    -0.330 NA
ATOM     28  O   LIG    1       -1.067   1.591  -0.791  0.00  0.00    +0.130 OA
ATOM     29  C   LIG    1       -1.854   0.553  -0.476  0.00  0.00    -0.110 A 
ATOM     30  C   LIG    1       -1.069  -0.550  -0.515  0.00  0.00    +0.010 A 
ENDBRANCH  24  29
ENDBRANCH   1  24
TORSDOF 3
