REMARK  Name = ZINCtj00001yywCQ.2
REMARK                            x       y       z     vdW  Elec       q    Type
REMARK                         _______ _______ _______ _____ _____    ______ ____
ROOT
ATOM      1  N   LIG    1       -1.228   2.076   1.044  0.00  0.00    -0.390 N 
ATOM      2  C   LIG    1       -2.519   2.162   0.307  0.00  0.00    +0.280 C 
ATOM      3  C   LIG    1       -2.114   2.238  -1.183  0.00  0.00    +0.100 C 
ATOM      4  C   LIG    1       -0.720   1.598  -1.244  0.00  0.00    +0.260 C 
ATOM      5  C   LIG    1        0.293   2.577  -1.768  0.00  0.00    -0.050 A 
ATOM      6  C   LIG    1        1.177   2.275  -2.746  0.00  0.00    +0.020 A 
ATOM      7  N   LIG    1        1.933   3.388  -2.955  0.00  0.00    -0.440 N 
ATOM      8  C   LIG    1        1.485   4.339  -2.103  0.00  0.00    +0.420 A 
ATOM      9  C   LIG    1        3.026   3.530  -3.921  0.00  0.00    +0.340 C 
ATOM     10  C   LIG    1        1.264   0.941  -3.439  0.00  0.00    +0.140 C 
ATOM     11  C   LIG    1        0.555  -0.117  -2.584  0.00  0.00    +0.320 C 
ATOM     12  N   LIG    1        0.502   3.842  -1.398  0.00  0.00    -0.480 NA
ATOM     13  N   LIG    1       -0.733   0.421  -2.118  0.00  0.00    -0.590 N 
ATOM     14  C   LIG    1       -1.896  -0.153  -2.486  0.00  0.00    +0.600 C 
ATOM     15  O   LIG    1       -2.913   0.081  -1.863  0.00  0.00    -0.500 OA
ATOM     16  C   LIG    1       -0.383   1.190   0.199  0.00  0.00    +0.280 C 
ATOM     17  H   LIG    1       -0.808   2.989   1.127  0.00  0.00    +0.440 HD
ENDROOT
BRANCH  14  18
ATOM     18  C   LIG    1       -1.934  -1.069  -3.649  0.00  0.00    +0.010 A 
ATOM     19  C   LIG    1       -3.089  -1.803  -3.928  0.00  0.00    +0.110 A 
ATOM     20  C   LIG    1       -3.073  -2.647  -5.031  0.00  0.00    +0.060 A 
ATOM     21  C   LIG    1       -1.914  -2.710  -5.786  0.00  0.00    +0.260 A 
ATOM     22  N   LIG    1       -0.864  -1.980  -5.451  0.00  0.00    -0.240 NA
ATOM     23  N   LIG    1       -0.871  -1.193  -4.436  0.00  0.00    -0.210 NA
ENDBRANCH  14  18
BRANCH   1  24
ATOM     24  C   LIG    1       -1.429   1.479   2.371  0.00  0.00    +0.410 C 
BRANCH  24  29
ATOM     25  C   LIG    1       -5.012   4.125   4.834  0.00  0.00    +0.180 C 
ATOM     26  C   LIG    1       -3.703   3.592   4.313  0.00  0.00    +0.020 A 
ATOM     27  N   LIG    1       -2.510   4.008   4.627  0.00  0.00    -0.330 NA
ATOM     28  O   LIG    1       -1.653   3.384   4.046  0.00  0.00    +0.130 OA
ATOM     29  C   LIG    1       -2.182   2.446   3.248  0.00  0.00    -0.120 A 
ATOM     30  C   LIG    1       -3.526   2.543   3.381  0.00  0.00    +0.020 A 
ENDBRANCH  24  29
ENDBRANCH   1  24
TORSDOF 3
