REMARK  Name = ZINCpe000000URZS.0
REMARK                            x       y       z     vdW  Elec       q    Type
REMARK                         _______ _______ _______ _____ _____    ______ ____
ROOT
ATOM      1  N   LIG    1        4.734  -0.289  -6.963  0.00  0.00    -0.520 NA
ATOM      2  C   LIG    1        4.876  -1.749  -6.886  0.00  0.00    +0.170 C 
ATOM      3  C   LIG    1        3.510  -2.377  -6.594  0.00  0.00    +0.300 C 
ATOM      4  N   LIG    1        2.951  -1.743  -5.391  0.00  0.00    -0.610 N 
ATOM      5  C   LIG    1        2.897  -0.274  -5.340  0.00  0.00    +0.290 C 
ATOM      6  C   LIG    1        2.496  -2.488  -4.364  0.00  0.00    +0.570 C 
ATOM      7  O   LIG    1        2.639  -3.695  -4.378  0.00  0.00    -0.530 OA
ATOM      8  C   LIG    1        4.293   0.272  -5.679  0.00  0.00    +0.190 C 
ENDROOT
BRANCH   6   9
ATOM      9  C   LIG    1        1.823  -1.838  -3.222  0.00  0.00    -0.130 A 
ATOM     10  C   LIG    1        0.938  -0.780  -3.441  0.00  0.00    +0.070 A 
ATOM     11  C   LIG    1        0.311  -0.174  -2.373  0.00  0.00    -0.030 A 
ATOM     12  C   LIG    1        0.556  -0.613  -1.080  0.00  0.00    +0.140 A 
ATOM     13  C   LIG    1        1.443  -1.666  -0.854  0.00  0.00    +0.070 A 
ATOM     14  C   LIG    1        2.070  -2.281  -1.919  0.00  0.00    +0.050 A 
BRANCH  12  15
ATOM     15  O   LIG    1       -0.064  -0.013  -0.031  0.00  0.00    -0.300 OA
ATOM     16  C   LIG    1       -0.954   1.063  -0.334  0.00  0.00    +0.250 C 
ENDBRANCH  12  15
BRANCH  13  17
ATOM     17  O   LIG    1        1.685  -2.090   0.415  0.00  0.00    -0.310 OA
BRANCH  17  18
ATOM     18  C   LIG    1        2.604  -3.173   0.573  0.00  0.00    +0.600 C 
ATOM     19  F   LIG    1        3.851  -2.806   0.054  0.00  0.00    -0.200 F 
ATOM     20  F   LIG    1        2.126  -4.294  -0.114  0.00  0.00    -0.190 F 
ENDBRANCH  17  18
ENDBRANCH  13  17
ENDBRANCH   6   9
BRANCH   1  21
ATOM     21  C   LIG    1        5.984   0.340  -7.410  0.00  0.00    +0.220 C 
BRANCH  21  25
ATOM     22  C   LIG    1        6.504   3.991  -8.435  0.00  0.00    +0.290 C 
ATOM     23  N   LIG    1        6.746   2.576  -8.142  0.00  0.00    -0.740 N 
ATOM     24  H   LIG    1        7.633   2.202  -8.256  0.00  0.00    +0.400 HD
ATOM     25  C   LIG    1        5.735   1.795  -7.712  0.00  0.00    +0.510 C 
ATOM     26  O   LIG    1        4.626   2.263  -7.569  0.00  0.00    -0.520 OA
ENDBRANCH  21  25
ENDBRANCH   1  21
TORSDOF 6
