REMARK  Name = ZINCrg000000sXRJ.0
REMARK                            x       y       z     vdW  Elec       q    Type
REMARK                         _______ _______ _______ _____ _____    ______ ____
ROOT
ATOM      1  N   LIG    1        1.353   2.035   0.003  0.00  0.00    -0.470 N 
ATOM      2  C   LIG    1       -0.025   1.529   0.014  0.00  0.00    +0.200 C 
ATOM      3  C   LIG    1       -0.008  -0.002   0.007  0.00  0.00    +0.060 C 
ATOM      4  C   LIG    1        0.727  -0.493  -1.243  0.00  0.00    +0.240 C 
ATOM      5  C   LIG    1        2.143   0.088  -1.255  0.00  0.00    +0.030 C 
ATOM      6  C   LIG    1        2.063   1.616  -1.212  0.00  0.00    +0.210 C 
ENDROOT
BRANCH   1  12
ATOM      7  C   LIG    1        1.948   3.990   1.286  0.00  0.00    -0.160 A 
ATOM      8  C   LIG    1        1.965   5.385   1.399  0.00  0.00    +0.190 A 
ATOM      9  C   LIG    1        1.406   6.134   0.380  0.00  0.00    -0.110 A 
ATOM     10  C   LIG    1        0.856   5.492  -0.715  0.00  0.00    +0.400 A 
ATOM     11  N   LIG    1        0.854   4.176  -0.806  0.00  0.00    -0.500 NA
ATOM     12  C   LIG    1        1.376   3.411   0.140  0.00  0.00    +0.400 A 
BRANCH   7  16
ATOM     13  N   LIG    1        2.977   3.704   3.486  0.00  0.00    -0.850 N 
ATOM     14  H   LIG    1        3.356   3.147   4.183  0.00  0.00    +0.410 HD
ATOM     15  H   LIG    1        2.922   4.665   3.608  0.00  0.00    +0.400 HD
ATOM     16  C   LIG    1        2.525   3.143   2.346  0.00  0.00    +0.570 C 
ATOM     17  O   LIG    1        2.594   1.939   2.193  0.00  0.00    -0.480 OA
ENDBRANCH   7  16
BRANCH   9  18
ATOM     18  N   LIG    1        1.395   7.612   0.460  0.00  0.00    +0.030 N 
ATOM     19  O   LIG    1        1.881   8.173   1.426  0.00  0.00    -0.150 OA
ATOM     20  O   LIG    1        0.901   8.267  -0.440  0.00  0.00    -0.140 OA
ENDBRANCH   9  18
ENDBRANCH   1  12
BRANCH   4  21
ATOM     21  N   LIG    1        0.797  -1.956  -1.226  0.00  0.00    -1.110 NA
ATOM     22  H   LIG    1        0.902  -2.427  -0.384  0.00  0.00    +0.420 HD
BRANCH  21  23
ATOM     23  S   LIG    1        0.700  -2.807  -2.643  0.00  0.00    +2.720 S 
ATOM     24  O   LIG    1       -0.421  -2.288  -3.346  0.00  0.00    -0.950 OA
ATOM     25  O   LIG    1        0.833  -4.179  -2.298  0.00  0.00    -0.950 OA
BRANCH  23  26
ATOM     26  C   LIG    1        2.122  -2.393  -3.599  0.00  0.00    -0.800 A 
ATOM     27  C   LIG    1        3.289  -3.038  -3.558  0.00  0.00    +0.170 A 
ATOM     28  C   LIG    1        4.264  -2.532  -4.401  0.00  0.00    -0.010 A 
ATOM     29  C   LIG    1        3.888  -1.476  -5.125  0.00  0.00    +0.000 A 
ATOM     30  S   LIG    1        2.216  -1.073  -4.757  0.00  0.00    +0.210 S 
ENDBRANCH  23  26
ENDBRANCH  21  23
ENDBRANCH   4  21
TORSDOF 6
