REMARK  Name = ZINCrD00000F5LlV.0
REMARK                            x       y       z     vdW  Elec       q    Type
REMARK                         _______ _______ _______ _____ _____    ______ ____
ROOT
ATOM      1  N   LIG    1       -3.610   3.929   1.015  0.00  0.00    -0.990 NA
ENDROOT
BRANCH   1   2
ATOM      2  S   LIG    1       -3.337   4.466   2.557  0.00  0.00    +2.720 S 
ATOM      3  O   LIG    1       -1.950   4.285   2.805  0.00  0.00    -0.950 OA
ATOM      4  O   LIG    1       -4.353   3.892   3.368  0.00  0.00    -0.950 OA
BRANCH   2   7
ATOM      5  N   LIG    1       -3.309   8.361   2.417  0.00  0.00    -0.360 N 
ATOM      6  C   LIG    1       -2.695   7.163   2.323  0.00  0.00    +0.370 A 
ATOM      7  C   LIG    1       -3.620   6.205   2.562  0.00  0.00    -0.820 A 
ATOM      8  C   LIG    1       -4.840   6.840   2.819  0.00  0.00    +0.330 A 
ATOM      9  N   LIG    1       -4.654   8.132   2.733  0.00  0.00    -0.290 NA
BRANCH   5  11
ATOM     10  C   LIG    1       -3.447  10.457   1.165  0.00  0.00    +0.040 C 
ATOM     11  C   LIG    1       -2.679   9.670   2.228  0.00  0.00    +0.310 C 
ENDBRANCH   5  11
ENDBRANCH   2   7
ENDBRANCH   1   2
BRANCH   1  12
ATOM     12  C   LIG    1       -2.511   3.891   0.047  0.00  0.00    +0.290 C 
BRANCH  12  13
ATOM     13  C   LIG    1       -1.892   2.492   0.034  0.00  0.00    -0.040 C 
ATOM     14  C   LIG    1       -0.804   2.311  -1.040  0.00  0.00    +0.030 C 
ATOM     15  C   LIG    1       -0.019   1.525   0.010  0.00  0.00    -0.110 C 
ATOM     16  C   LIG    1        1.510   1.493  -0.004  0.00  0.00    +0.020 C 
ATOM     17  C   LIG    1        1.401   0.098   0.636  0.00  0.00    +0.010 C 
ATOM     18  C   LIG    1        0.002  -0.004   0.002  0.00  0.00    +0.030 C 
ATOM     19  C   LIG    1       -0.783   2.299   1.085  0.00  0.00    +0.060 C 
ENDBRANCH  12  13
ENDBRANCH   1  12
BRANCH   1  20
ATOM     20  C   LIG    1       -4.951   3.492   0.618  0.00  0.00    +0.360 C 
BRANCH  20  21
ATOM     21  C   LIG    1       -5.059   1.997   0.773  0.00  0.00    -0.060 A 
ATOM     22  C   LIG    1       -5.487   1.436   1.966  0.00  0.00    -0.010 A 
ATOM     23  C   LIG    1       -5.574   0.061   2.070  0.00  0.00    +0.260 A 
ATOM     24  N   LIG    1       -5.254  -0.715   1.053  0.00  0.00    -0.480 NA
ATOM     25  C   LIG    1       -4.842  -0.216  -0.097  0.00  0.00    +0.120 A 
ATOM     26  C   LIG    1       -4.489  -1.146  -1.228  0.00  0.00    +0.130 C 
ATOM     27  C   LIG    1       -4.736   1.150  -0.277  0.00  0.00    -0.030 A 
ENDBRANCH  20  21
ENDBRANCH   1  20
TORSDOF 7
