REMARK  Name = ZINCpe000000UOXD.0
REMARK                            x       y       z     vdW  Elec       q    Type
REMARK                         _______ _______ _______ _____ _____    ______ ____
ROOT
ATOM      1  C   LIG    1       -0.966   0.036  -4.694  0.00  0.00    -0.020 C 
ATOM      2  C   LIG    1       -1.168   0.756  -6.030  0.00  0.00    +0.060 C 
ATOM      3  C   LIG    1       -1.139  -0.263  -7.171  0.00  0.00    +0.010 C 
ATOM      4  C   LIG    1       -2.282  -1.266  -6.984  0.00  0.00    +0.270 C 
ATOM      5  N   LIG    1       -2.178  -1.858  -5.643  0.00  0.00    -0.610 N 
ATOM      6  C   LIG    1       -2.146  -3.196  -5.483  0.00  0.00    +0.520 C 
ATOM      7  O   LIG    1       -2.059  -3.672  -4.371  0.00  0.00    -0.530 OA
ATOM      8  C   LIG    1       -2.107  -0.963  -4.479  0.00  0.00    +0.290 C 
ENDROOT
BRANCH   1  11
ATOM      9  N   LIG    1       -0.801   0.636  -2.300  0.00  0.00    -0.720 N 
ATOM     10  H   LIG    1       -0.686  -0.307  -2.104  0.00  0.00    +0.410 HD
ATOM     11  C   LIG    1       -0.963   1.044  -3.575  0.00  0.00    +0.530 C 
ATOM     12  O   LIG    1       -1.107   2.224  -3.820  0.00  0.00    -0.520 OA
BRANCH   9  16
ATOM     13  C   LIG    1       -0.176   1.628   2.539  0.00  0.00    +0.300 C 
ATOM     14  N   LIG    1       -0.737   1.577   1.186  0.00  0.00    -0.620 N 
ATOM     15  C   LIG    1       -0.013   1.086   0.008  0.00  0.00    +0.270 C 
ATOM     16  C   LIG    1       -0.798   1.617  -1.212  0.00  0.00    +0.250 C 
ATOM     17  C   LIG    1       -2.216   1.792  -0.622  0.00  0.00    +0.050 C 
ATOM     18  C   LIG    1       -1.981   1.975   0.862  0.00  0.00    +0.520 C 
ATOM     19  O   LIG    1       -2.795   2.417   1.645  0.00  0.00    -0.520 OA
ENDBRANCH   9  16
ENDBRANCH   1  11
BRANCH   6  20
ATOM     20  C   LIG    1       -2.219  -4.100  -6.686  0.00  0.00    +0.100 C 
BRANCH  20  21
ATOM     21  C   LIG    1       -2.166  -5.538  -6.238  0.00  0.00    -0.070 A 
ATOM     22  C   LIG    1       -0.948  -6.182  -6.124  0.00  0.00    +0.010 A 
ATOM     23  C   LIG    1       -0.899  -7.499  -5.708  0.00  0.00    +0.000 A 
ATOM     24  C   LIG    1       -2.068  -8.176  -5.416  0.00  0.00    +0.000 A 
ATOM     25  C   LIG    1       -3.287  -7.534  -5.536  0.00  0.00    +0.000 A 
ATOM     26  C   LIG    1       -3.336  -6.215  -5.947  0.00  0.00    +0.010 A 
ENDBRANCH  20  21
ENDBRANCH   6  20
TORSDOF 4
