REMARK  Name = ZINCvU0000000JSE.0
REMARK                            x       y       z     vdW  Elec       q    Type
REMARK                         _______ _______ _______ _____ _____    ______ ____
ROOT
ATOM      1  N   LIG    1       -1.681  -1.260   1.352  0.00  0.00    -0.500 NA
ENDROOT
BRANCH   1   2
ATOM      2  C   LIG    1       -2.269  -0.090   2.016  0.00  0.00    +0.150 C 
ATOM      3  C   LIG    1       -2.554   1.142   1.155  0.00  0.00    -0.020 C 
ATOM      4  C   LIG    1       -1.395   1.158   2.154  0.00  0.00    +0.030 C 
ENDBRANCH   1   2
BRANCH   1   5
ATOM      5  C   LIG    1       -2.586  -2.415   1.421  0.00  0.00    +0.240 C 
BRANCH   5   8
ATOM      6  C   LIG    1       -2.000  -4.198   4.699  0.00  0.00    +0.120 A 
ATOM      7  C   LIG    1       -1.870  -3.798   3.380  0.00  0.00    -0.020 A 
ATOM      8  C   LIG    1       -2.733  -2.853   2.855  0.00  0.00    -0.060 A 
ATOM      9  C   LIG    1       -3.734  -2.314   3.641  0.00  0.00    +0.020 A 
ATOM     10  C   LIG    1       -3.873  -2.713   4.958  0.00  0.00    -0.010 A 
ATOM     11  C   LIG    1       -3.008  -3.655   5.492  0.00  0.00    +0.080 A 
BRANCH   6  12
ATOM     12  O   LIG    1       -1.149  -5.123   5.219  0.00  0.00    -0.300 OA
BRANCH  12  14
ATOM     13  C   LIG    1        0.715  -6.656   5.103  0.00  0.00    +0.070 C 
ATOM     14  C   LIG    1       -0.139  -5.636   4.348  0.00  0.00    +0.170 C 
ENDBRANCH  12  14
ENDBRANCH   6  12
BRANCH  11  15
ATOM     15  O   LIG    1       -3.143  -4.048   6.787  0.00  0.00    -0.310 OA
BRANCH  15  16
ATOM     16  C   LIG    1       -4.199  -3.449   7.540  0.00  0.00    +0.590 C 
ATOM     17  F   LIG    1       -5.426  -3.733   6.931  0.00  0.00    -0.200 F 
ATOM     18  F   LIG    1       -4.011  -2.063   7.585  0.00  0.00    -0.200 F 
ENDBRANCH  15  16
ENDBRANCH  11  15
ENDBRANCH   5   8
ENDBRANCH   1   5
BRANCH   1  19
ATOM     19  C   LIG    1       -1.325  -0.952  -0.040  0.00  0.00    +0.350 C 
BRANCH  19  20
ATOM     20  C   LIG    1       -0.425  -2.034  -0.580  0.00  0.00    +0.200 A 
ATOM     21  N   LIG    1       -0.796  -3.078  -1.278  0.00  0.00    -0.470 NA
ATOM     22  C   LIG    1        0.341  -3.762  -1.540  0.00  0.00    +0.210 A 
ATOM     23  N   LIG    1        1.325  -3.100  -0.990  0.00  0.00    -0.370 NA
ATOM     24  O   LIG    1        0.902  -2.108  -0.436  0.00  0.00    +0.100 OA
BRANCH  22  25
ATOM     25  C   LIG    1        0.450  -5.028  -2.307  0.00  0.00    -0.040 A 
ATOM     26  C   LIG    1       -0.693  -5.626  -2.834  0.00  0.00    +0.100 A 
ATOM     27  C   LIG    1       -0.586  -6.800  -3.552  0.00  0.00    -0.010 A 
ATOM     28  C   LIG    1        0.654  -7.389  -3.739  0.00  0.00    +0.120 A 
ATOM     29  C   LIG    1        1.792  -6.800  -3.212  0.00  0.00    +0.000 A 
ATOM     30  F   LIG    1        0.754  -8.541  -4.438  0.00  0.00    -0.130 F 
ATOM     31  C   LIG    1        1.695  -5.623  -2.498  0.00  0.00    +0.090 A 
ENDBRANCH  22  25
ENDBRANCH  19  20
ENDBRANCH   1  19
TORSDOF 10
