REMARK  Name = ZINCrH000004o1Rz.0
REMARK                            x       y       z     vdW  Elec       q    Type
REMARK                         _______ _______ _______ _____ _____    ______ ____
ROOT
ATOM      1  N   LIG    1        2.138   1.471   1.173  0.00  0.00    -0.520 NA
ATOM      2  C   LIG    1        1.425   1.986  -0.004  0.00  0.00    +0.200 C 
ATOM      3  C   LIG    1       -0.012   1.460   0.002  0.00  0.00    +0.200 C 
ATOM      4  N   LIG    1        0.007  -0.010   0.002  0.00  0.00    -0.490 N 
ATOM      5  C   LIG    1        0.720  -0.524   1.180  0.00  0.00    +0.210 C 
ATOM      6  C   LIG    1        2.157   0.002   1.173  0.00  0.00    +0.190 C 
ENDROOT
BRANCH   4   7
ATOM      7  C   LIG    1       -1.291  -0.528  -0.065  0.00  0.00    +0.100 A 
ATOM      8  C   LIG    1       -2.383   0.336  -0.114  0.00  0.00    +0.000 A 
ATOM      9  C   LIG    1       -3.666  -0.160  -0.186  0.00  0.00    +0.050 A 
ATOM     10  C   LIG    1       -3.883  -1.531  -0.198  0.00  0.00    +0.030 A 
ATOM     11  O   LIG    1       -4.996  -2.292  -0.255  0.00  0.00    -0.200 OA
ATOM     12  C   LIG    1       -4.684  -3.600  -0.240  0.00  0.00    +0.220 A 
ATOM     13  C   LIG    1       -3.356  -3.757  -0.173  0.00  0.00    -0.060 A 
ATOM     14  C   LIG    1       -2.784  -2.405  -0.142  0.00  0.00    -0.110 A 
ATOM     15  C   LIG    1       -1.488  -1.898  -0.076  0.00  0.00    +0.030 A 
ENDBRANCH   4   7
BRANCH   1  17
ATOM     16  C   LIG    1        4.226   1.747  -0.077  0.00  0.00    +0.030 C 
ATOM     17  C   LIG    1        3.501   2.015   1.243  0.00  0.00    +0.180 C 
BRANCH  17  18
ATOM     18  C   LIG    1        3.437   3.501   1.488  0.00  0.00    +0.520 C 
ATOM     19  N   LIG    1        4.574   4.217   1.589  0.00  0.00    -0.670 N 
ATOM     20  H   LIG    1        5.433   3.767   1.572  0.00  0.00    +0.410 HD
ATOM     21  O   LIG    1        2.361   4.052   1.594  0.00  0.00    -0.490 OA
BRANCH  19  22
ATOM     22  C   LIG    1        4.515   5.609   1.720  0.00  0.00    +0.170 A 
ATOM     23  C   LIG    1        5.491   6.404   1.134  0.00  0.00    -0.030 A 
ATOM     24  C   LIG    1        5.428   7.779   1.259  0.00  0.00    +0.070 A 
ATOM     25  C   LIG    1        4.401   8.363   1.975  0.00  0.00    -0.030 A 
ATOM     26  C   LIG    1        3.428   7.573   2.566  0.00  0.00    +0.120 A 
ATOM     27  F   LIG    1        2.425   8.147   3.266  0.00  0.00    -0.140 F 
ATOM     28  C   LIG    1        3.483   6.197   2.439  0.00  0.00    -0.010 A 
ENDBRANCH  19  22
ENDBRANCH  17  18
ENDBRANCH   1  17
TORSDOF 4
