REMARK  Name = ZINCrH000004sGPt.0
REMARK                            x       y       z     vdW  Elec       q    Type
REMARK                         _______ _______ _______ _____ _____    ______ ____
ROOT
ATOM      1  C   LIG    1        3.025   0.443   0.181  0.00  0.00    +0.170 C 
ATOM      2  C   LIG    1        2.486   1.850   0.158  0.00  0.00    +0.110 A 
ATOM      3  N   LIG    1        3.173   2.931   0.395  0.00  0.00    -0.240 NA
ATOM      4  N   LIG    1        2.343   4.053   0.285  0.00  0.00    -0.380 N 
ATOM      5  C   LIG    1        1.082   3.622  -0.038  0.00  0.00    +0.320 A 
ATOM      6  N   LIG    1       -0.066   4.246  -0.257  0.00  0.00    -0.480 NA
ATOM      7  C   LIG    1       -1.167   3.594  -0.559  0.00  0.00    +0.200 A 
ATOM      8  C   LIG    1       -1.187   2.212  -0.669  0.00  0.00    -0.030 A 
ATOM      9  C   LIG    1       -0.015   1.491  -0.445  0.00  0.00    -0.010 A 
ATOM     10  C   LIG    1        1.153   2.216  -0.123  0.00  0.00    -0.190 A 
ENDROOT
BRANCH   9  11
ATOM     11  C   LIG    1        0.005   0.016  -0.547  0.00  0.00    +0.560 C 
ATOM     12  N   LIG    1       -1.044  -0.705  -0.104  0.00  0.00    -0.720 N 
ATOM     13  H   LIG    1       -1.812  -0.256   0.282  0.00  0.00    +0.410 HD
ATOM     14  O   LIG    1        0.968  -0.546  -1.031  0.00  0.00    -0.510 OA
BRANCH  12  15
ATOM     15  C   LIG    1       -1.023  -2.166  -0.205  0.00  0.00    +0.300 C 
BRANCH  15  16
ATOM     16  C   LIG    1       -2.324  -2.735   0.365  0.00  0.00    -0.060 C 
ATOM     17  C   LIG    1       -2.264  -4.276   0.380  0.00  0.00    +0.050 C 
ATOM     18  C   LIG    1       -3.706  -4.705   0.010  0.00  0.00    +0.040 C 
ATOM     19  C   LIG    1       -4.111  -3.636  -1.035  0.00  0.00    +0.010 C 
ATOM     20  C   LIG    1       -3.490  -2.350  -0.521  0.00  0.00    +0.370 C 
ATOM     21  O   LIG    1       -3.858  -1.227  -0.772  0.00  0.00    -0.440 OA
ENDBRANCH  15  16
ENDBRANCH  12  15
ENDBRANCH   9  11
BRANCH   4  22
ATOM     22  C   LIG    1        2.751   5.446   0.480  0.00  0.00    +0.190 C 
ATOM     23  C   LIG    1        2.499   6.237  -0.805  0.00  0.00    +0.050 C 
ATOM     24  C   LIG    1        4.240   5.497   0.828  0.00  0.00    +0.070 C 
ATOM     25  C   LIG    1        1.940   6.059   1.623  0.00  0.00    +0.050 C 
ENDBRANCH   4  22
BRANCH   7  26
ATOM     26  C   LIG    1       -2.438   4.368  -0.796  0.00  0.00    +0.040 C 
ATOM     27  C   LIG    1       -3.631   3.561  -0.278  0.00  0.00    +0.040 C 
ATOM     28  C   LIG    1       -2.607   4.624  -2.295  0.00  0.00    +0.050 C 
ENDBRANCH   7  26
TORSDOF 5
