REMARK  Name = ZINCah0000002wd4.0
REMARK                            x       y       z     vdW  Elec       q    Type
REMARK                         _______ _______ _______ _____ _____    ______ ____
ROOT
ATOM      1  C   LIG    1        0.024   1.793   2.377  0.00  0.00    +0.370 A 
ATOM      2  C   LIG    1        1.412   1.681   2.372  0.00  0.00    +0.160 A 
ATOM      3  N   LIG    1        2.096   1.905   3.478  0.00  0.00    -0.380 NA
ATOM      4  C   LIG    1        1.464   2.236   4.592  0.00  0.00    +0.180 A 
ATOM      5  C   LIG    1        0.085   2.348   4.602  0.00  0.00    +0.180 A 
ATOM      6 CL   LIG    1       -0.738   2.782   6.067  0.00  0.00    -0.010 Cl
ATOM      7  N   LIG    1       -0.606   2.131   3.495  0.00  0.00    -0.500 NA
ENDROOT
BRANCH   1   9
ATOM      8  C   LIG    1       -0.013   1.086   0.008  0.00  0.00    +0.310 C 
ATOM      9  N   LIG    1       -0.698   1.558   1.213  0.00  0.00    -0.600 N 
ATOM     10  C   LIG    1       -2.146   1.783   1.192  0.00  0.00    +0.290 C 
ENDBRANCH   1   9
TORSDOF 1
