REMARK  Name = ZINCpe00000MxJkn.1
REMARK                            x       y       z     vdW  Elec       q    Type
REMARK                         _______ _______ _______ _____ _____    ______ ____
ROOT
ATOM      1  C   LIG    1       -1.523  -6.033   2.795  0.00  0.00    -0.050 A 
ATOM      2  C   LIG    1       -1.205  -5.369   3.981  0.00  0.00    +0.060 A 
ATOM      3  C   LIG    1       -1.561  -4.048   4.147  0.00  0.00    +0.000 A 
ATOM      4  C   LIG    1       -2.237  -3.377   3.134  0.00  0.00    +0.170 A 
ATOM      5  C   LIG    1       -2.561  -4.037   1.954  0.00  0.00    +0.030 A 
ATOM      6  C   LIG    1       -2.201  -5.356   1.780  0.00  0.00    +0.090 A 
ENDROOT
BRANCH   1  14
ATOM      7  C   LIG    1        0.569  -7.588   4.479  0.00  0.00    +0.360 C 
ATOM      8  N   LIG    1       -0.210  -8.138   3.367  0.00  0.00    -0.550 N 
ATOM      9  C   LIG    1       -0.143  -9.402   2.905  0.00  0.00    +0.650 A 
ATOM     10  N   LIG    1       -1.009  -9.508   1.876  0.00  0.00    -0.540 N 
ATOM     11  H   LIG    1       -1.174 -10.303   1.345  0.00  0.00    +0.460 HD
ATOM     12  N   LIG    1       -1.626  -8.261   1.714  0.00  0.00    -0.270 NA
ATOM     13  O   LIG    1        0.574 -10.288   3.335  0.00  0.00    -0.550 OA
ATOM     14  C   LIG    1       -1.142  -7.451   2.614  0.00  0.00    +0.330 A 
ENDBRANCH   1  14
BRANCH   4  15
ATOM     15  N   LIG    1       -2.598  -2.038   3.305  0.00  0.00    -0.660 N 
ATOM     16  H   LIG    1       -2.867  -1.716   4.180  0.00  0.00    +0.420 HD
ATOM     17  C   LIG    1       -2.572  -1.193   2.255  0.00  0.00    +0.530 C 
ATOM     18  O   LIG    1       -2.358  -1.619   1.140  0.00  0.00    -0.510 OA
BRANCH  17  19
ATOM     19  C   LIG    1       -2.808   0.280   2.467  0.00  0.00    +0.090 C 
ATOM     20  C   LIG    1       -2.523   1.037   1.165  0.00  0.00    -0.010 C 
ATOM     21  C   LIG    1       -3.506   0.570   0.088  0.00  0.00    +0.220 C 
ATOM     22  O   LIG    1       -4.844   0.786   0.540  0.00  0.00    -0.380 OA
ATOM     23  C   LIG    1       -5.182   0.066   1.727  0.00  0.00    +0.210 C 
ATOM     24  C   LIG    1       -4.268   0.512   2.871  0.00  0.00    +0.030 C 
BRANCH  19  25
ATOM     25  N   LIG    1       -1.920   0.773   3.528  0.00  0.00    -0.530 NA
ATOM     26  C   LIG    1       -2.194   2.184   3.830  0.00  0.00    +0.210 C 
ATOM     27  C   LIG    1       -0.510   0.575   3.169  0.00  0.00    +0.200 C 
ENDBRANCH  19  25
ENDBRANCH  17  19
ENDBRANCH   4  15
TORSDOF 4
