REMARK  Name = ZINCkj000005kKFO.0
REMARK                            x       y       z     vdW  Elec       q    Type
REMARK                         _______ _______ _______ _____ _____    ______ ____
ROOT
ATOM      1  C   LIG    1       -0.073   2.260  -2.142  0.00  0.00    +0.570 C 
ATOM      2  N   LIG    1       -0.715   1.555  -1.190  0.00  0.00    -0.610 N 
ATOM      3  C   LIG    1        0.009   1.052  -0.014  0.00  0.00    +0.280 C 
ATOM      4  C   LIG    1       -0.713   1.524   1.252  0.00  0.00    +0.000 C 
ATOM      5  C   LIG    1       -2.183   1.093   1.184  0.00  0.00    +0.160 C 
ATOM      6  C   LIG    1       -2.853   1.744  -0.029  0.00  0.00    +0.040 C 
ATOM      7  C   LIG    1       -2.153   1.275  -1.308  0.00  0.00    +0.290 C 
ATOM      8  O   LIG    1        1.090   2.576  -1.983  0.00  0.00    -0.520 OA
ENDROOT
BRANCH   1  15
ATOM      9  C   LIG    1       -0.143   5.040  -2.946  0.00  0.00    +0.130 C 
ATOM     10  C   LIG    1       -0.826   3.987  -3.780  0.00  0.00    +0.180 A 
ATOM     11  N   LIG    1       -1.454   4.334  -4.884  0.00  0.00    -0.480 NA
ATOM     12  C   LIG    1       -2.072   3.448  -5.642  0.00  0.00    +0.300 A 
ATOM     13  C   LIG    1       -2.080   2.105  -5.310  0.00  0.00    -0.030 A 
ATOM     14  C   LIG    1       -1.429   1.688  -4.162  0.00  0.00    +0.100 A 
ATOM     15  C   LIG    1       -0.783   2.651  -3.378  0.00  0.00    -0.190 A 
ENDBRANCH   1  15
BRANCH   5  16
ATOM     16  O   LIG    1       -2.854   1.504   2.376  0.00  0.00    -0.380 OA
BRANCH  16  17
ATOM     17  C   LIG    1       -2.818   0.535   3.427  0.00  0.00    +0.180 C 
BRANCH  17  18
ATOM     18  C   LIG    1       -3.563   1.078   4.647  0.00  0.00    +0.050 C 
BRANCH  18  19
ATOM     19  C   LIG    1       -3.525   0.042   5.772  0.00  0.00    +0.270 C 
BRANCH  19  20
ATOM     20  N   LIG    1       -4.240   0.563   6.944  0.00  0.00    -0.640 N 
ATOM     21  H   LIG    1       -3.798   1.415   7.256  0.00  0.00    +0.440 HD
ATOM     22  H   LIG    1       -4.215  -0.121   7.685  0.00  0.00    +0.440 HD
ATOM     23  H   LIG    1       -5.199   0.754   6.695  0.00  0.00    +0.440 HD
ENDBRANCH  19  20
ENDBRANCH  18  19
ENDBRANCH  17  18
ENDBRANCH  16  17
ENDBRANCH   5  16
TORSDOF 6
