REMARK  Name = ZINCkj000005kRe2.0
REMARK                            x       y       z     vdW  Elec       q    Type
REMARK                         _______ _______ _______ _____ _____    ______ ____
ROOT
ATOM      1  N   LIG    1       -3.028   1.741   1.409  0.00  0.00    -0.510 N 
ATOM      2  H   LIG    1       -2.930   2.623   1.889  0.00  0.00    +0.440 HD
ATOM      3  H   LIG    1       -2.476   1.039   1.879  0.00  0.00    +0.430 HD
ENDROOT
BRANCH   1   4
ATOM      4  C   LIG    1       -2.563   1.884   0.023  0.00  0.00    +0.390 C 
BRANCH   4  11
ATOM      5  C   LIG    1       -1.365   4.899   0.039  0.00  0.00    +0.170 C 
ATOM      6  C   LIG    1       -0.584   3.610   0.026  0.00  0.00    +0.050 A 
ATOM      7  N   LIG    1        0.711   3.482   0.013  0.00  0.00    -0.340 NA
ATOM      8  O   LIG    1        1.044   2.320   0.004  0.00  0.00    +0.120 OA
ATOM      9  C   LIG    1       -0.018   1.503   0.010  0.00  0.00    +0.040 A 
ATOM     10  C   LIG    1        0.002  -0.004   0.002  0.00  0.00    +0.210 C 
ATOM     11  C   LIG    1       -1.114   2.299   0.019  0.00  0.00    -0.300 A 
ENDBRANCH   4  11
ENDBRANCH   1   4
BRANCH   1  12
ATOM     12  C   LIG    1       -4.440   1.336   1.412  0.00  0.00    +0.300 C 
BRANCH  12  13
ATOM     13  C   LIG    1       -4.924   1.188   2.856  0.00  0.00    +0.120 C 
ATOM     14  C   LIG    1       -6.369   0.643   2.894  0.00  0.00    +0.230 C 
ATOM     15  O   LIG    1       -7.019   1.376   3.950  0.00  0.00    -0.360 OA
ATOM     16  C   LIG    1       -6.037   2.257   4.513  0.00  0.00    +0.260 C 
ATOM     17  C   LIG    1       -5.384   1.607   5.731  0.00  0.00    -0.010 C 
ATOM     18  C   LIG    1       -6.432   1.439   6.835  0.00  0.00    +0.230 C 
ATOM     19  O   LIG    1       -7.003   2.712   7.144  0.00  0.00    -0.370 OA
ATOM     20  C   LIG    1       -7.681   3.331   6.049  0.00  0.00    +0.230 C 
ATOM     21  C   LIG    1       -6.687   3.581   4.912  0.00  0.00    +0.040 C 
ATOM     22  O   LIG    1       -5.050   2.485   3.491  0.00  0.00    -0.370 OA
ENDBRANCH  12  13
ENDBRANCH   1  12
TORSDOF 4
