REMARK  Name = ZINCpk00000e96b5.0
REMARK                            x       y       z     vdW  Elec       q    Type
REMARK                         _______ _______ _______ _____ _____    ______ ____
ROOT
ATOM      1  C   LIG    1        2.073   0.713  -0.014  0.00  0.00    +0.070 A 
ATOM      2  C   LIG    1        1.302  -0.403  -0.013  0.00  0.00    +0.150 A 
ATOM      3  N   LIG    1        0.002  -0.004   0.002  0.00  0.00    -0.370 N 
ATOM      4  N   LIG    1       -0.017   1.397   0.010  0.00  0.00    -0.280 NA
ATOM      5  C   LIG    1        1.219   1.826   0.000  0.00  0.00    +0.200 A 
ENDROOT
BRANCH   1   6
ATOM      6  N   LIG    1        3.480   0.749  -0.027  0.00  0.00    -0.740 N 
ATOM      7  H   LIG    1        3.986  -0.079  -0.036  0.00  0.00    +0.400 HD
BRANCH   6   8
ATOM      8  C   LIG    1        4.181   2.035  -0.027  0.00  0.00    +0.230 C 
BRANCH   8   9
ATOM      9  C   LIG    1        5.692   1.793  -0.042  0.00  0.00    +0.210 C 
BRANCH   9  10
ATOM     10  O   LIG    1        6.061   1.162  -1.270  0.00  0.00    -0.560 OA
ATOM     11  H   LIG    1        5.847   1.680  -2.058  0.00  0.00    +0.380 HD
ENDBRANCH   9  10
BRANCH   9  12
ATOM     12  C   LIG    1        6.423   3.131   0.084  0.00  0.00    +0.010 C 
BRANCH  12  13
ATOM     13  C   LIG    1        7.929   2.881   0.194  0.00  0.00    +0.180 C 
BRANCH  13  14
ATOM     14  O   LIG    1        8.612   4.130   0.312  0.00  0.00    -0.390 OA
BRANCH  14  16
ATOM     15  C   LIG    1       10.699   5.243  -0.188  0.00  0.00    +0.040 C 
ATOM     16  C   LIG    1       10.032   4.008   0.421  0.00  0.00    +0.140 C 
ATOM     17  C   LIG    1       10.421   3.893   1.897  0.00  0.00    +0.010 C 
ENDBRANCH  14  16
ENDBRANCH  13  14
ENDBRANCH  12  13
ENDBRANCH   9  12
ENDBRANCH   8   9
ENDBRANCH   6   8
ENDBRANCH   1   6
BRANCH   3  18
ATOM     18  C   LIG    1       -1.170  -0.883   0.009  0.00  0.00    +0.470 C 
BRANCH  18  19
ATOM     19  C   LIG    1       -2.050  -0.538   1.183  0.00  0.00    +0.150 A 
ATOM     20  N   LIG    1       -1.984  -1.056   2.382  0.00  0.00    -0.280 NA
ATOM     21  N   LIG    1       -2.885  -0.525   3.136  0.00  0.00    -0.290 NA
ATOM     22  C   LIG    1       -3.565   0.344   2.452  0.00  0.00    +0.190 A 
ATOM     23  C   LIG    1       -4.715   1.207   2.908  0.00  0.00    +0.160 C 
ATOM     24  C   LIG    1       -4.908   2.327   1.877  0.00  0.00    +0.030 C 
ATOM     25  C   LIG    1       -4.938   1.722   0.471  0.00  0.00    +0.040 C 
ATOM     26  C   LIG    1       -3.543   1.203   0.104  0.00  0.00    +0.290 C 
ATOM     27  N   LIG    1       -3.055   0.359   1.194  0.00  0.00    -0.450 N 
ENDBRANCH  18  19
ENDBRANCH   3  18
TORSDOF 10
