REMARK  Name = ZINCrg00000fRwut.0
REMARK                            x       y       z     vdW  Elec       q    Type
REMARK                         _______ _______ _______ _____ _____    ______ ____
ROOT
ATOM      1  C   LIG    1       -1.136   6.937  -3.689  0.00  0.00    +0.470 C 
ATOM      2  O   LIG    1       -0.248   7.743  -3.836  0.00  0.00    -0.490 OA
ENDROOT
BRANCH   1   3
ATOM      3  O   LIG    1       -2.107   6.832  -4.610  0.00  0.00    -0.330 OA
BRANCH   3   4
ATOM      4  C   LIG    1       -2.026   7.719  -5.756  0.00  0.00    +0.270 C 
BRANCH   4   7
ATOM      5  C   LIG    1       -2.405   9.274  -8.099  0.00  0.00    +0.300 C 
ATOM      6  N   LIG    1       -3.325   8.171  -7.812  0.00  0.00    -0.570 N 
ATOM      7  C   LIG    1       -3.192   7.460  -6.676  0.00  0.00    +0.520 C 
ATOM      8  O   LIG    1       -4.010   6.610  -6.392  0.00  0.00    -0.500 OA
BRANCH   6   9
ATOM      9  C   LIG    1       -4.343   7.856  -8.719  0.00  0.00    +0.130 A 
ATOM     10  C   LIG    1       -4.027   7.346  -9.972  0.00  0.00    +0.010 A 
ATOM     11  C   LIG    1       -5.034   7.032 -10.863  0.00  0.00    +0.020 A 
ATOM     12  C   LIG    1       -6.356   7.234 -10.513  0.00  0.00    +0.010 A 
ATOM     13  C   LIG    1       -6.675   7.746  -9.269  0.00  0.00    +0.020 A 
ATOM     14  C   LIG    1       -5.673   8.057  -8.371  0.00  0.00    +0.020 A 
ENDBRANCH   6   9
ENDBRANCH   4   7
ENDBRANCH   3   4
ENDBRANCH   1   3
BRANCH   1  15
ATOM     15  C   LIG    1       -1.153   6.049  -2.471  0.00  0.00    +0.380 C 
BRANCH  15  16
ATOM     16  N   LIG    1        0.004   6.356  -1.627  0.00  0.00    -1.110 NA
ATOM     17  H   LIG    1        0.741   6.876  -1.984  0.00  0.00    +0.430 HD
BRANCH  16  18
ATOM     18  S   LIG    1        0.054   5.815  -0.063  0.00  0.00    +2.700 S 
ATOM     19  O   LIG    1        1.301   6.241   0.470  0.00  0.00    -0.940 OA
ATOM     20  O   LIG    1       -1.197   6.155   0.520  0.00  0.00    -0.940 OA
BRANCH  18  21
ATOM     21  C   LIG    1        0.114   4.055  -0.121  0.00  0.00    -0.660 A 
ATOM     22  C   LIG    1        1.336   3.408  -0.168  0.00  0.00    +0.130 A 
ATOM     23  C   LIG    1        1.390   2.030  -0.214  0.00  0.00    +0.060 A 
ATOM     24  C   LIG    1        0.207   1.288  -0.213  0.00  0.00    +0.040 A 
ATOM     25  C   LIG    1       -1.023   1.947  -0.172  0.00  0.00    +0.060 A 
ATOM     26  C   LIG    1       -1.062   3.325  -0.120  0.00  0.00    +0.140 A 
BRANCH  24  27
ATOM     27  C   LIG    1        0.256  -0.142  -0.260  0.00  0.00    +0.240 C 
ATOM     28  N   LIG    1        0.294  -1.277  -0.297  0.00  0.00    -0.390 NA
ENDBRANCH  24  27
ENDBRANCH  18  21
ENDBRANCH  16  18
ENDBRANCH  15  16
ENDBRANCH   1  15
TORSDOF 9
