REMARK  Name = ZINCrH000004jo7R.1
REMARK                            x       y       z     vdW  Elec       q    Type
REMARK                         _______ _______ _______ _____ _____    ______ ____
ROOT
ATOM      1  N   LIG    1        7.277  -0.372  -0.069  0.00  0.00    -0.510 N 
ATOM      2  C   LIG    1        6.156  -1.126  -0.062  0.00  0.00    +0.550 A 
ATOM      3  C   LIG    1        4.850  -0.437  -0.046  0.00  0.00    -0.160 A 
ATOM      4  C   LIG    1        3.651  -1.146  -0.038  0.00  0.00    +0.140 A 
ATOM      5  C   LIG    1        2.454  -0.465  -0.024  0.00  0.00    +0.040 A 
ATOM      6  C   LIG    1        2.439   0.933  -0.016  0.00  0.00    -0.060 A 
ATOM      7  C   LIG    1        3.634   1.649  -0.029  0.00  0.00    +0.070 A 
ATOM      8  C   LIG    1        4.841   0.969  -0.039  0.00  0.00    +0.170 A 
ATOM      9  N   LIG    1        6.053   1.644  -0.047  0.00  0.00    -0.580 N 
ATOM     10  H   LIG    1        6.062   2.614  -0.043  0.00  0.00    +0.450 HD
ATOM     11  O   LIG    1        6.220  -2.340  -0.069  0.00  0.00    -0.470 OA
ATOM     12  C   LIG    1        7.215   0.968  -0.062  0.00  0.00    +0.530 A 
ATOM     13  S   LIG    1        8.679   1.856  -0.071  0.00  0.00    -0.540 S 
ENDROOT
BRANCH   6  14
ATOM     14  C   LIG    1        1.147   1.655   0.000  0.00  0.00    +0.560 C 
ATOM     15  N   LIG    1       -0.011   0.966   0.007  0.00  0.00    -0.710 N 
ATOM     16  H   LIG    1        0.002  -0.004   0.002  0.00  0.00    +0.400 HD
ATOM     17  O   LIG    1        1.130   2.871   0.007  0.00  0.00    -0.520 OA
BRANCH  15  18
ATOM     18  C   LIG    1       -1.290   1.681   0.017  0.00  0.00    +0.300 C 
ATOM     19  C   LIG    1       -2.395   0.794   0.629  0.00  0.00    +0.050 C 
ATOM     20  C   LIG    1       -3.638   1.200  -0.191  0.00  0.00    +0.100 C 
ATOM     21  C   LIG    1       -3.095   1.685  -1.518  0.00  0.00    -0.080 A 
ATOM     22  C   LIG    1       -3.732   1.869  -2.734  0.00  0.00    +0.030 A 
ATOM     23  C   LIG    1       -3.022   2.330  -3.827  0.00  0.00    -0.030 A 
ATOM     24  C   LIG    1       -1.672   2.607  -3.707  0.00  0.00    +0.030 A 
ATOM     25  C   LIG    1       -1.036   2.422  -2.495  0.00  0.00    +0.060 A 
ATOM     26 CL   LIG    1       -3.824   2.560  -5.350  0.00  0.00    -0.060 Cl
ATOM     27  C   LIG    1       -1.746   1.961  -1.399  0.00  0.00    -0.110 A 
ENDBRANCH  15  18
ENDBRANCH   6  14
BRANCH   1  29
ATOM     28  C   LIG    1        9.053  -1.267   1.354  0.00  0.00    +0.060 C 
ATOM     29  C   LIG    1        8.585  -1.031  -0.083  0.00  0.00    +0.320 C 
ENDBRANCH   1  29
TORSDOF 3
