REMARK  Name = ZINCvU00000009kW.0
REMARK                            x       y       z     vdW  Elec       q    Type
REMARK                         _______ _______ _______ _____ _____    ______ ____
ROOT
ATOM      1  C   LIG    1       -0.724   1.579   1.254  0.00  0.00    +0.020 C 
ATOM      2  C   LIG    1       -0.009   1.097  -0.011  0.00  0.00    +0.100 C 
ENDROOT
BRANCH   1   3
ATOM      3  C   LIG    1       -0.748   3.086   1.273  0.00  0.00    +0.540 C 
ATOM      4  N   LIG    1        0.342   3.773   1.668  0.00  0.00    -0.660 N 
ATOM      5  H   LIG    1        1.114   3.299   2.015  0.00  0.00    +0.410 HD
ATOM      6  O   LIG    1       -1.749   3.680   0.933  0.00  0.00    -0.500 OA
BRANCH   4   7
ATOM      7  C   LIG    1        0.360   5.167   1.577  0.00  0.00    +0.160 A 
ATOM      8  C   LIG    1       -0.449   5.815   0.656  0.00  0.00    +0.020 A 
ATOM      9  C   LIG    1       -0.429   7.194   0.567  0.00  0.00    +0.040 A 
ATOM     10  C   LIG    1        0.396   7.936   1.394  0.00  0.00    +0.000 A 
ATOM     11  C   LIG    1        1.206   7.304   2.316  0.00  0.00    +0.040 A 
ATOM     12  C   LIG    1        1.192   5.915   2.418  0.00  0.00    -0.080 A 
BRANCH  12  13
ATOM     13  C   LIG    1        2.057   5.232   3.410  0.00  0.00    -0.050 A 
ATOM     14  C   LIG    1        1.516   4.277   4.270  0.00  0.00    +0.010 A 
ATOM     15  C   LIG    1        2.326   3.641   5.188  0.00  0.00    +0.010 A 
ATOM     16  C   LIG    1        3.671   3.958   5.264  0.00  0.00    +0.000 A 
ATOM     17  C   LIG    1        4.212   4.908   4.417  0.00  0.00    +0.010 A 
ATOM     18  C   LIG    1        3.412   5.546   3.491  0.00  0.00    +0.030 A 
ENDBRANCH  12  13
ENDBRANCH   4   7
ENDBRANCH   1   3
BRANCH   1  19
ATOM     19  S   LIG    1       -2.420   0.948   1.266  0.00  0.00    +0.050 S 
BRANCH  19  24
ATOM     20  C   LIG    1        0.061  -3.677   1.633  0.00  0.00    +0.150 C 
ATOM     21  C   LIG    1       -1.060  -2.674   1.542  0.00  0.00    +0.000 A 
ATOM     22  C   LIG    1       -2.373  -2.960   1.538  0.00  0.00    +0.010 A 
ATOM     23  N   LIG    1       -3.044  -1.762   1.442  0.00  0.00    -0.440 N 
ATOM     24  C   LIG    1       -2.102  -0.781   1.391  0.00  0.00    +0.170 A 
ATOM     25  C   LIG    1       -2.993  -4.331   1.621  0.00  0.00    +0.150 C 
ATOM     26  N   LIG    1       -0.917  -1.341   1.447  0.00  0.00    -0.480 NA
BRANCH  23  27
ATOM     27  C   LIG    1       -4.497  -1.578   1.403  0.00  0.00    +0.320 C 
BRANCH  27  28
ATOM     28  C   LIG    1       -4.977  -1.614  -0.050  0.00  0.00    +0.140 C 
ATOM     29  C   LIG    1       -6.487  -1.297  -0.126  0.00  0.00    +0.010 C 
ATOM     30  C   LIG    1       -7.009  -2.223  -1.247  0.00  0.00    +0.010 C 
ATOM     31  C   LIG    1       -5.752  -2.989  -1.716  0.00  0.00    +0.190 C 
ATOM     32  O   LIG    1       -4.852  -2.948  -0.588  0.00  0.00    -0.360 OA
ENDBRANCH  27  28
ENDBRANCH  23  27
ENDBRANCH  19  24
ENDBRANCH   1  19
TORSDOF 7
