REMARK  Name = ZINC650000002E2N.0
REMARK                            x       y       z     vdW  Elec       q    Type
REMARK                         _______ _______ _______ _____ _____    ______ ____
ROOT
ATOM      1  C   LIG    1        1.423   1.615  -0.003  0.00  0.00    +0.250 C 
ENDROOT
BRANCH   1   2
ATOM      2  N   LIG    1        2.110   1.142  -1.212  0.00  0.00    -0.630 N 
ATOM      3  H   LIG    1        2.124   0.133  -1.217  0.00  0.00    +0.440 HD
ATOM      4  H   LIG    1        3.057   1.491  -1.219  0.00  0.00    +0.440 HD
ATOM      5  H   LIG    1        1.622   1.476  -2.029  0.00  0.00    +0.440 HD
ENDBRANCH   1   2
BRANCH   1   6
ATOM      6  C   LIG    1       -0.013   1.086   0.008  0.00  0.00    +0.190 C 
BRANCH   6   7
ATOM      7  C   LIG    1       -0.729   1.579   1.267  0.00  0.00    +0.230 C 
ATOM      8  F   LIG    1       -2.002   1.004   1.335  0.00  0.00    -0.190 F 
ENDBRANCH   6   7
BRANCH   6   9
ATOM      9  O   LIG    1       -0.704   1.559  -1.150  0.00  0.00    -0.550 OA
ATOM     10  H   LIG    1       -0.756   2.523  -1.210  0.00  0.00    +0.390 HD
ENDBRANCH   6   9
ENDBRANCH   1   6
TORSDOF 4
