REMARK  Name = ZINCpk00000e9kVb.0
REMARK                            x       y       z     vdW  Elec       q    Type
REMARK                         _______ _______ _______ _____ _____    ______ ____
ROOT
ATOM      1  C   LIG    1       -1.703   5.907  -1.887  0.00  0.00    +0.550 C 
ATOM      2  O   LIG    1       -2.286   6.738  -2.558  0.00  0.00    -0.490 OA
ENDROOT
BRANCH   1   3
ATOM      3  C   LIG    1       -0.802   6.333  -0.813  0.00  0.00    -0.080 A 
ATOM      4  C   LIG    1       -0.517   7.619  -0.443  0.00  0.00    +0.290 A 
ATOM      5  N   LIG    1        0.350   7.570   0.568  0.00  0.00    -0.490 NA
ATOM      6  C   LIG    1        0.620   6.322   0.858  0.00  0.00    +0.460 A 
ATOM      7  N   LIG    1       -0.073   5.516   0.031  0.00  0.00    -0.390 N 
BRANCH   7   8
ATOM      8  C   LIG    1       -0.054   4.114   0.024  0.00  0.00    +0.090 A 
ATOM      9  C   LIG    1        1.157   3.436   0.009  0.00  0.00    +0.060 A 
ATOM     10  C   LIG    1        1.174   2.055   0.002  0.00  0.00    +0.010 A 
ATOM     11  C   LIG    1       -0.016   1.347   0.009  0.00  0.00    +0.130 A 
ATOM     12  C   LIG    1       -1.225   2.022   0.019  0.00  0.00    +0.010 A 
ATOM     13  F   LIG    1        0.002  -0.004   0.002  0.00  0.00    -0.130 F 
ATOM     14  C   LIG    1       -1.246   3.403   0.031  0.00  0.00    +0.090 A 
ENDBRANCH   7   8
ENDBRANCH   1   3
BRANCH   1  15
ATOM     15  O   LIG    1       -1.886   4.594  -2.133  0.00  0.00    -0.320 OA
BRANCH  15  16
ATOM     16  C   LIG    1       -2.793   4.245  -3.212  0.00  0.00    +0.190 C 
ATOM     17  C   LIG    1       -4.212   4.102  -2.659  0.00  0.00    +0.070 C 
BRANCH  16  23
ATOM     18  N   LIG    1       -3.244   0.826  -6.561  0.00  0.00    -0.740 N 
ATOM     19  H   LIG    1       -3.980   1.325  -6.949  0.00  0.00    +0.400 HD
ATOM     20  C   LIG    1       -2.609   1.299  -5.471  0.00  0.00    +0.690 C 
ATOM     21  N   LIG    1       -2.996   2.466  -4.919  0.00  0.00    -0.690 N 
ATOM     22  H   LIG    1       -3.732   2.966  -5.307  0.00  0.00    +0.410 HD
ATOM     23  C   LIG    1       -2.360   2.940  -3.829  0.00  0.00    +0.520 C 
ATOM     24  O   LIG    1       -1.440   2.316  -3.345  0.00  0.00    -0.430 OA
ATOM     25  O   LIG    1       -1.687   0.674  -4.986  0.00  0.00    -0.520 OA
BRANCH  18  27
ATOM     26  C   LIG    1       -3.702  -0.748  -8.377  0.00  0.00    +0.030 C 
ATOM     27  C   LIG    1       -2.824  -0.443  -7.162  0.00  0.00    +0.270 C 
ENDBRANCH  18  27
ENDBRANCH  16  23
ENDBRANCH  15  16
ENDBRANCH   1  15
TORSDOF 6
