REMARK  Name = ZINCqH0000034h5e.0
REMARK                            x       y       z     vdW  Elec       q    Type
REMARK                         _______ _______ _______ _____ _____    ______ ____
ROOT
ATOM      1  N   LIG    1       -1.072   2.291   0.064  0.00  0.00    -0.450 N 
ATOM      2  C   LIG    1       -0.404   3.458   0.686  0.00  0.00    +0.220 C 
ATOM      3  C   LIG    1        1.045   3.317   0.186  0.00  0.00    -0.020 C 
ATOM      4  C   LIG    1        1.179   1.840  -0.096  0.00  0.00    -0.120 A 
ATOM      5  C   LIG    1        2.281   1.034  -0.290  0.00  0.00    +0.050 A 
ATOM      6  C   LIG    1        2.120  -0.319  -0.525  0.00  0.00    -0.010 A 
ATOM      7  C   LIG    1        0.851  -0.866  -0.566  0.00  0.00    +0.040 A 
ATOM      8  C   LIG    1       -0.256  -0.065  -0.375  0.00  0.00    -0.020 A 
ATOM      9  C   LIG    1        1.249   4.132  -1.085  0.00  0.00    +0.030 C 
ATOM     10  C   LIG    1        1.136   5.623  -0.751  0.00  0.00    +0.220 C 
ATOM     11  O   LIG    1        2.083   5.953   0.267  0.00  0.00    -0.380 OA
ATOM     12  C   LIG    1        1.880   5.261   1.502  0.00  0.00    +0.210 C 
ATOM     13  C   LIG    1        2.025   3.754   1.269  0.00  0.00    +0.010 C 
ATOM     14  C   LIG    1       -0.103   1.300  -0.140  0.00  0.00    +0.090 A 
ENDROOT
BRANCH   1  15
ATOM     15  C   LIG    1       -2.162   1.794   0.914  0.00  0.00    +0.230 C 
BRANCH  15  18
ATOM     16  N   LIG    1       -4.152   2.727   2.049  0.00  0.00    -0.670 N 
ATOM     17  H   LIG    1       -4.210   1.904   2.559  0.00  0.00    +0.410 HD
ATOM     18  C   LIG    1       -3.146   2.907   1.171  0.00  0.00    +0.510 C 
ATOM     19  O   LIG    1       -3.032   3.964   0.587  0.00  0.00    -0.500 OA
BRANCH  16  24
ATOM     20  C   LIG    1       -7.384   4.375   2.649  0.00  0.00    -0.060 A 
ATOM     21  C   LIG    1       -7.018   5.705   2.572  0.00  0.00    -0.010 A 
ATOM     22  C   LIG    1       -5.702   6.050   2.321  0.00  0.00    +0.030 A 
ATOM     23  C   LIG    1       -4.749   5.065   2.153  0.00  0.00    +0.020 A 
ATOM     24  C   LIG    1       -5.115   3.727   2.224  0.00  0.00    +0.150 A 
ATOM     25  C   LIG    1       -6.436   3.385   2.476  0.00  0.00    -0.020 A 
BRANCH  20  27
ATOM     26  C   LIG    1       -9.037   3.887   4.432  0.00  0.00    +0.020 C 
ATOM     27  C   LIG    1       -8.819   4.004   2.922  0.00  0.00    +0.050 C 
ENDBRANCH  20  27
ENDBRANCH  16  24
ENDBRANCH  15  18
ENDBRANCH   1  15
TORSDOF 4
