REMARK  Name = ZINCvU0000000HNp.0
REMARK                            x       y       z     vdW  Elec       q    Type
REMARK                         _______ _______ _______ _____ _____    ______ ____
ROOT
ATOM      1  C   LIG    1       -2.092  -3.466  -1.212  0.00  0.00    +0.230 C 
ATOM      2  C   LIG    1       -2.292  -2.463  -0.286  0.00  0.00    -0.260 C 
ENDROOT
BRANCH   1   6
ATOM      3  C   LIG    1        1.587  -5.543  -1.315  0.00  0.00    +0.250 A 
ATOM      4  C   LIG    1        0.389  -6.245  -1.446  0.00  0.00    -0.080 A 
ATOM      5  C   LIG    1       -0.801  -5.579  -1.413  0.00  0.00    +0.100 A 
ATOM      6  C   LIG    1       -0.819  -4.185  -1.248  0.00  0.00    -0.180 A 
ATOM      7  C   LIG    1        0.390  -3.483  -1.123  0.00  0.00    +0.100 A 
ATOM      8  C   LIG    1        1.575  -4.159  -1.151  0.00  0.00    -0.070 A 
BRANCH   3  10
ATOM      9  C   LIG    1        2.811  -7.680  -1.523  0.00  0.00    +0.280 C 
ATOM     10  N   LIG    1        2.795  -6.226  -1.350  0.00  0.00    -0.630 N 
ATOM     11  C   LIG    1        4.055  -5.491  -1.213  0.00  0.00    +0.280 C 
ENDBRANCH   3  10
ENDBRANCH   1   6
BRANCH   2  12
ATOM     12  C   LIG    1       -3.463  -1.582  -0.398  0.00  0.00    +0.580 C 
ATOM     13  N   LIG    1       -3.607  -0.540   0.445  0.00  0.00    -0.670 N 
ATOM     14  H   LIG    1       -2.891  -0.312   1.059  0.00  0.00    +0.410 HD
ATOM     15  O   LIG    1       -4.304  -1.793  -1.252  0.00  0.00    -0.510 OA
BRANCH  13  16
ATOM     16  C   LIG    1       -4.786   0.211   0.435  0.00  0.00    +0.160 A 
ATOM     17  C   LIG    1       -6.014  -0.424   0.304  0.00  0.00    +0.020 A 
ATOM     18  C   LIG    1       -7.178   0.320   0.299  0.00  0.00    +0.050 A 
ATOM     19  C   LIG    1       -7.121   1.696   0.413  0.00  0.00    +0.020 A 
ATOM     20  C   LIG    1       -5.899   2.333   0.538  0.00  0.00    -0.020 A 
ATOM     21 CL   LIG    1       -5.832   4.062   0.682  0.00  0.00    -0.060 Cl
ATOM     22  C   LIG    1       -4.731   1.594   0.549  0.00  0.00    +0.010 A 
ENDBRANCH  13  16
ENDBRANCH   2  12
BRANCH   2  23
ATOM     23  C   LIG    1       -1.334  -2.275   0.812  0.00  0.00    +0.570 C 
ATOM     24  N   LIG    1       -1.292  -3.159   1.829  0.00  0.00    -0.660 N 
ATOM     25  H   LIG    1       -1.835  -3.962   1.796  0.00  0.00    +0.420 HD
ATOM     26  O   LIG    1       -0.578  -1.321   0.804  0.00  0.00    -0.510 OA
BRANCH  24  27
ATOM     27  C   LIG    1       -0.465  -2.919   2.931  0.00  0.00    +0.160 A 
ATOM     28  C   LIG    1        0.711  -2.197   2.774  0.00  0.00    +0.030 A 
ATOM     29  C   LIG    1        1.526  -1.960   3.865  0.00  0.00    +0.050 A 
ATOM     30  C   LIG    1        1.171  -2.441   5.112  0.00  0.00    +0.000 A 
ATOM     31  C   LIG    1        0.000  -3.161   5.272  0.00  0.00    -0.020 A 
ATOM     32 CL   LIG    1       -0.441  -3.763   6.839  0.00  0.00    -0.060 Cl
ATOM     33  C   LIG    1       -0.819  -3.401   4.184  0.00  0.00    +0.000 A 
ENDBRANCH  24  27
ENDBRANCH   2  23
TORSDOF 6
