REMARK  Name = ZINCb80000006lvM.0
REMARK                            x       y       z     vdW  Elec       q    Type
REMARK                         _______ _______ _______ _____ _____    ______ ____
ROOT
ATOM      1  C   LIG    1        0.002  -0.004   0.002  0.00  0.00    -0.150 A 
ATOM      2  C   LIG    1       -0.017   1.381   0.010  0.00  0.00    -0.030 A 
ATOM      3  C   LIG    1        1.183   2.078   0.002  0.00  0.00    +0.250 A 
ATOM      4  N   LIG    1        2.333   1.442  -0.013  0.00  0.00    -0.420 NA
ATOM      5  CA  LIG    1        2.395   0.115  -0.020  0.00  0.00    +0.100 A 
ATOM      6  C   LIG    1        1.230  -0.649  -0.013  0.00  0.00    +0.030 A 
ENDROOT
BRANCH   5   7
ATOM      7  C   LIG    1        3.713  -0.557  -0.036  0.00  0.00    +0.520 C 
ATOM      8  OXT LIG    1        4.738   0.108  -0.042  0.00  0.00    -0.640 OA
ATOM      9  O   LIG    1        3.776  -1.778  -0.043  0.00  0.00    -0.670 OA
ENDBRANCH   5   7
BRANCH   1  10
ATOM     10  C   LIG    1       -1.282  -0.792   0.011  0.00  0.00    +0.330 C 
BRANCH  10  11
ATOM     11  N   LIG    1       -1.713  -1.041  -1.372  0.00  0.00    -0.640 N 
ATOM     12  H   LIG    1       -1.001  -1.565  -1.857  0.00  0.00    +0.440 HD
ATOM     13  H   LIG    1       -1.862  -0.160  -1.841  0.00  0.00    +0.430 HD
ATOM     14  H   LIG    1       -2.573  -1.569  -1.366  0.00  0.00    +0.430 HD
ENDBRANCH  10  11
ENDBRANCH   1  10
TORSDOF 3
