REMARK  Name = ZINCvU0000000EvS.0
REMARK                            x       y       z     vdW  Elec       q    Type
REMARK                         _______ _______ _______ _____ _____    ______ ____
ROOT
ATOM      1  N   LIG    1        4.741   2.631   2.697  0.00  0.00    -0.540 N 
ATOM      2  C   LIG    1        5.764   3.488   2.447  0.00  0.00    +0.600 A 
ATOM      3  N   LIG    1        5.694   4.383   1.506  0.00  0.00    -0.490 NA
ATOM      4  C   LIG    1        4.599   4.509   0.725  0.00  0.00    +0.070 A 
ATOM      5  C   LIG    1        3.512   3.668   0.930  0.00  0.00    -0.220 A 
ATOM      6  C   LIG    1        2.424   3.938   0.000  0.00  0.00    +0.010 A 
ATOM      7  C   LIG    1        2.665   4.931  -0.855  0.00  0.00    -0.040 A 
ATOM      8  S   LIG    1        4.257   5.619  -0.595  0.00  0.00    +0.220 S 
ATOM      9  C   LIG    1        3.611   2.688   1.965  0.00  0.00    +0.550 A 
ATOM     10  O   LIG    1        2.689   1.922   2.185  0.00  0.00    -0.480 OA
ENDROOT
BRANCH   6  11
ATOM     11  C   LIG    1        1.153   3.175   0.008  0.00  0.00    -0.040 A 
ATOM     12  C   LIG    1        1.174   1.781   0.000  0.00  0.00    +0.060 A 
ATOM     13  C   LIG    1       -0.013   1.076   0.008  0.00  0.00    +0.000 A 
ATOM     14  C   LIG    1       -1.220   1.750   0.017  0.00  0.00    -0.080 A 
ATOM     15  C   LIG    1       -1.247   3.133   0.030  0.00  0.00    -0.090 A 
ATOM     16  C   LIG    1       -2.567   3.860   0.045  0.00  0.00    +0.090 C 
ATOM     17  C   LIG    1       -2.513   0.974   0.020  0.00  0.00    +0.090 C 
ATOM     18  C   LIG    1       -0.067   3.848   0.022  0.00  0.00    +0.020 A 
ENDBRANCH   6  11
BRANCH   1  19
ATOM     19  C   LIG    1        4.866   1.640   3.768  0.00  0.00    +0.490 C 
BRANCH  19  23
ATOM     20  C   LIG    1        3.142   2.832   6.689  0.00  0.00    +0.220 A 
ATOM     21  N   LIG    1        4.368   3.243   6.887  0.00  0.00    -0.370 NA
ATOM     22  O   LIG    1        5.075   2.905   5.961  0.00  0.00    +0.090 OA
ATOM     23  C   LIG    1        4.357   2.229   5.059  0.00  0.00    +0.150 A 
ATOM     24  N   LIG    1        3.126   2.180   5.505  0.00  0.00    -0.430 NA
BRANCH  20  29
ATOM     25  C   LIG    1       -1.352   3.669  10.192  0.00  0.00    +0.100 C 
ATOM     26  C   LIG    1       -0.176   3.450   9.275  0.00  0.00    -0.060 A 
ATOM     27  C   LIG    1        1.068   3.945   9.621  0.00  0.00    +0.010 A 
ATOM     28  C   LIG    1        2.149   3.748   8.785  0.00  0.00    +0.050 A 
ATOM     29  C   LIG    1        1.984   3.047   7.592  0.00  0.00    -0.040 A 
ATOM     30  C   LIG    1        0.727   2.555   7.247  0.00  0.00    +0.070 A 
ATOM     31  C   LIG    1       -0.345   2.754   8.092  0.00  0.00    +0.010 A 
ENDBRANCH  20  29
ENDBRANCH  19  23
ENDBRANCH   1  19
TORSDOF 4
