REMARK  Name = ZINCqH0000000y0R.0
REMARK                            x       y       z     vdW  Elec       q    Type
REMARK                         _______ _______ _______ _____ _____    ______ ____
ROOT
ATOM      1  C   LIG    1        1.789   2.341  -1.433  0.00  0.00    +0.060 C 
ENDROOT
BRANCH   1   2
ATOM      2  C   LIG    1        1.522   1.862  -0.004  0.00  0.00    +0.320 C 
ATOM      3  C   LIG    1        0.217   1.108   0.039  0.00  0.00    -0.100 A 
ATOM      4  C   LIG    1       -0.973   1.773   0.234  0.00  0.00    +0.030 A 
ATOM      5  C   LIG    1       -2.164   1.068   0.255  0.00  0.00    +0.010 A 
ATOM      6  C   LIG    1       -2.168  -0.304   0.079  0.00  0.00    +0.020 A 
ATOM      7  C   LIG    1       -0.981  -0.984  -0.113  0.00  0.00    +0.020 A 
ATOM      8  C   LIG    1        0.222  -0.279  -0.128  0.00  0.00    -0.030 A 
ATOM      9  C   LIG    1        1.506  -0.983  -0.310  0.00  0.00    -0.040 C 
ATOM     10  C   LIG    1        2.648  -0.338  -0.044  0.00  0.00    +0.240 C 
ATOM     11  N   LIG    1        2.605   0.969   0.424  0.00  0.00    -0.560 N 
ATOM     12  C   LIG    1        3.555   1.416   1.270  0.00  0.00    +0.510 C 
ATOM     13  O   LIG    1        3.515   2.558   1.678  0.00  0.00    -0.480 OA
ATOM     14  C   LIG    1        4.666   0.497   1.708  0.00  0.00    +0.110 C 
ENDBRANCH   1   2
BRANCH   1  17
ATOM     15  N   LIG    1        3.460   3.733  -2.611  0.00  0.00    -0.680 N 
ATOM     16  H   LIG    1        3.018   3.507  -3.444  0.00  0.00    +0.410 HD
ATOM     17  C   LIG    1        3.029   3.197  -1.452  0.00  0.00    +0.500 C 
ATOM     18  O   LIG    1        3.639   3.404  -0.424  0.00  0.00    -0.480 OA
BRANCH  15  23
ATOM     19  C   LIG    1        5.835   6.346  -1.543  0.00  0.00    -0.150 A 
ATOM     20  C   LIG    1        6.707   6.363  -2.636  0.00  0.00    +0.040 A 
ATOM     21  C   LIG    1        6.493   5.513  -3.702  0.00  0.00    +0.020 A 
ATOM     22  C   LIG    1        5.419   4.643  -3.694  0.00  0.00    +0.010 A 
ATOM     23  C   LIG    1        4.546   4.617  -2.612  0.00  0.00    +0.140 A 
ATOM     24  C   LIG    1        4.746   5.470  -1.539  0.00  0.00    +0.090 A 
BRANCH  19  26
ATOM     25  C   LIG    1        7.231   8.198  -0.414  0.00  0.00    +0.070 C 
ATOM     26  C   LIG    1        6.060   7.251  -0.404  0.00  0.00    +0.390 C 
ATOM     27  O   LIG    1        5.302   7.234   0.542  0.00  0.00    -0.450 OA
ENDBRANCH  19  26
ENDBRANCH  15  23
ENDBRANCH   1  17
TORSDOF 4
