REMARK  Name = ZINCtV00000L6kMj.0
REMARK                            x       y       z     vdW  Elec       q    Type
REMARK                         _______ _______ _______ _____ _____    ______ ____
ROOT
ATOM      1  N   LIG    1       -1.768  -1.444   3.166  0.00  0.00    -0.740 N 
ATOM      2  H   LIG    1       -1.238  -1.989   2.563  0.00  0.00    +0.390 HD
ATOM      3  C   LIG    1       -2.154  -0.208   2.794  0.00  0.00    +0.710 C 
ATOM      4  N   LIG    1       -1.804   0.272   1.584  0.00  0.00    -0.740 N 
ATOM      5  H   LIG    1       -1.275  -0.273   0.981  0.00  0.00    +0.390 HD
ATOM      6  O   LIG    1       -2.817   0.475   3.550  0.00  0.00    -0.580 OA
ENDROOT
BRANCH   4   7
ATOM      7  C   LIG    1       -2.224   1.616   1.179  0.00  0.00    +0.280 C 
ATOM      8  C   LIG    1       -3.380   1.526   0.168  0.00  0.00    +0.010 C 
ATOM      9  C   LIG    1       -2.883   2.197  -1.130  0.00  0.00    +0.020 C 
ATOM     10  C   LIG    1       -1.338   2.097  -1.044  0.00  0.00    +0.030 C 
ATOM     11  C   LIG    1       -1.065   2.338   0.462  0.00  0.00    +0.010 C 
BRANCH  11  12
ATOM     12  C   LIG    1        0.258   1.736   0.860  0.00  0.00    -0.010 A 
ATOM     13  C   LIG    1        0.683   0.556   0.281  0.00  0.00    +0.010 A 
ATOM     14  C   LIG    1        1.900   0.008   0.642  0.00  0.00    +0.050 A 
ATOM     15  C   LIG    1        2.691   0.640   1.582  0.00  0.00    +0.010 A 
ATOM     16  C   LIG    1        2.266   1.821   2.162  0.00  0.00    +0.070 A 
ATOM     17  C   LIG    1        1.049   2.369   1.801  0.00  0.00    -0.180 A 
BRANCH  17  18
ATOM     18  C   LIG    1        0.586   3.656   2.433  0.00  0.00    +0.510 C 
ATOM     19  F   LIG    1       -0.625   3.438   3.100  0.00  0.00    -0.170 F 
ATOM     20  F   LIG    1        0.403   4.624   1.440  0.00  0.00    -0.180 F 
ATOM     21  F   LIG    1        1.548   4.100   3.346  0.00  0.00    -0.180 F 
ENDBRANCH  17  18
ENDBRANCH  11  12
ENDBRANCH   4   7
BRANCH   1  23
ATOM     22  C   LIG    1       -1.672  -1.000   5.569  0.00  0.00    +0.040 C 
ATOM     23  C   LIG    1       -2.148  -1.965   4.481  0.00  0.00    +0.240 C 
ATOM     24  C   LIG    1       -3.670  -2.105   4.554  0.00  0.00    +0.050 C 
BRANCH  23  25
ATOM     25  C   LIG    1       -1.509  -3.314   4.691  0.00  0.00    -0.070 A 
ATOM     26  C   LIG    1       -2.072  -4.216   5.574  0.00  0.00    +0.040 A 
ATOM     27  C   LIG    1       -1.490  -5.455   5.763  0.00  0.00    +0.040 A 
ATOM     28  C   LIG    1       -0.337  -5.789   5.077  0.00  0.00    +0.030 A 
ATOM     29  C   LIG    1        0.231  -4.884   4.197  0.00  0.00    -0.030 A 
ATOM     30 CL   LIG    1        1.678  -5.303   3.335  0.00  0.00    -0.070 Cl
ATOM     31  C   LIG    1       -0.356  -3.647   4.005  0.00  0.00    +0.020 A 
ENDBRANCH  23  25
ENDBRANCH   1  23
TORSDOF 5
