REMARK  Name = ZINCpk00000JCcky.0
REMARK                            x       y       z     vdW  Elec       q    Type
REMARK                         _______ _______ _______ _____ _____    ______ ____
ROOT
ATOM      1  N   LIG    1        0.795   0.151   4.224  0.00  0.00    -0.550 NA
ATOM      2  C   LIG    1        1.254  -1.072   3.568  0.00  0.00    +0.200 C 
ATOM      3  C   LIG    1        1.473  -2.143   4.615  0.00  0.00    +0.040 C 
ATOM      4  C   LIG    1        0.192  -2.979   4.775  0.00  0.00    +0.270 C 
ATOM      5  N   LIG    1       -1.013  -2.128   4.724  0.00  0.00    -0.600 N 
ATOM      6  C   LIG    1       -1.088  -0.843   5.388  0.00  0.00    +0.280 C 
ATOM      7  C   LIG    1       -2.085  -2.564   4.033  0.00  0.00    +0.560 C 
ATOM      8  O   LIG    1       -1.992  -3.547   3.323  0.00  0.00    -0.520 OA
ATOM      9  C   LIG    1       -0.599   0.269   4.430  0.00  0.00    +0.170 C 
ENDROOT
BRANCH   7  10
ATOM     10  C   LIG    1       -3.372  -1.849   4.138  0.00  0.00    -0.120 A 
ATOM     11  C   LIG    1       -3.429  -0.473   3.905  0.00  0.00    +0.050 A 
ATOM     12  C   LIG    1       -4.631   0.193   4.003  0.00  0.00    +0.030 A 
ATOM     13  C   LIG    1       -5.788  -0.498   4.333  0.00  0.00    +0.060 A 
ATOM     14  O   LIG    1       -7.076  -0.078   4.490  0.00  0.00    -0.300 OA
ATOM     15  C   LIG    1       -7.738  -1.126   5.222  0.00  0.00    +0.440 C 
ATOM     16  O   LIG    1       -6.996  -2.309   4.872  0.00  0.00    -0.300 OA
ATOM     17  C   LIG    1       -5.738  -1.873   4.568  0.00  0.00    +0.030 A 
ATOM     18  C   LIG    1       -4.537  -2.547   4.466  0.00  0.00    +0.090 A 
ENDBRANCH   7  10
BRANCH   1  19
ATOM     19  C   LIG    1        1.330   1.342   3.550  0.00  0.00    +0.310 C 
BRANCH  19  25
ATOM     20  C   LIG    1       -1.077   3.286   3.711  0.00  0.00    +0.320 C 
ATOM     21  N   LIG    1        0.143   3.373   4.518  0.00  0.00    -0.460 N 
ATOM     22  C   LIG    1        0.421   4.314   5.471  0.00  0.00    +0.110 A 
ATOM     23  C   LIG    1        1.643   4.026   5.958  0.00  0.00    +0.140 A 
ATOM     24  N   LIG    1        2.096   2.934   5.324  0.00  0.00    -0.470 NA
ATOM     25  C   LIG    1        1.201   2.535   4.462  0.00  0.00    +0.210 A 
ENDBRANCH  19  25
ENDBRANCH   1  19
TORSDOF 3
