REMARK  Name = ZINCrm00000VuOZc.0
REMARK                            x       y       z     vdW  Elec       q    Type
REMARK                         _______ _______ _______ _____ _____    ______ ____
ROOT
ATOM      1  N   LIG    1        4.261   3.018  -1.195  0.00  0.00    -0.390 N 
ATOM      2  C   LIG    1        4.645   4.381  -1.645  0.00  0.00    +0.290 C 
ATOM      3  C   LIG    1        5.547   4.107  -2.874  0.00  0.00    +0.060 C 
ATOM      4  C   LIG    1        6.329   2.841  -2.454  0.00  0.00    +0.190 C 
ATOM      5  C   LIG    1        5.471   2.183  -1.357  0.00  0.00    +0.290 C 
ATOM      6  H   LIG    1        3.511   2.660  -1.768  0.00  0.00    +0.430 HD
ENDROOT
BRANCH   1   7
ATOM      7  C   LIG    1        3.851   3.047   0.215  0.00  0.00    +0.330 C 
BRANCH   7  13
ATOM      8  C   LIG    1        1.295   7.315   0.913  0.00  0.00    +0.150 C 
ATOM      9  C   LIG    1        1.322   5.827   0.678  0.00  0.00    +0.130 A 
ATOM     10  N   LIG    1        0.189   5.159   0.588  0.00  0.00    -0.440 NA
ATOM     11  C   LIG    1        0.164   3.857   0.383  0.00  0.00    +0.320 A 
ATOM     12  C   LIG    1        1.336   3.137   0.253  0.00  0.00    -0.120 A 
ATOM     13  C   LIG    1        2.551   3.798   0.345  0.00  0.00    -0.140 A 
ATOM     14  C   LIG    1        2.540   5.173   0.557  0.00  0.00    +0.080 A 
BRANCH  14  15
ATOM     15  O   LIG    1        3.706   5.865   0.650  0.00  0.00    -0.490 OA
ATOM     16  H   LIG    1        4.056   5.927   1.550  0.00  0.00    +0.410 HD
ENDBRANCH  14  15
BRANCH  12  17
ATOM     17  C   LIG    1        1.295   1.649   0.019  0.00  0.00    +0.240 C 
BRANCH  17  18
ATOM     18  O   LIG    1       -0.065   1.212  -0.030  0.00  0.00    -0.560 OA
ATOM     19  H   LIG    1       -0.168   0.262  -0.179  0.00  0.00    +0.400 HD
ENDBRANCH  17  18
ENDBRANCH  12  17
ENDBRANCH   7  13
ENDBRANCH   1   7
BRANCH   4  20
ATOM     20  O   LIG    1        6.475   1.956  -3.567  0.00  0.00    -0.290 OA
BRANCH  20  21
ATOM     21  C   LIG    1        7.559   2.140  -4.362  0.00  0.00    +0.170 A 
ATOM     22  C   LIG    1        7.845   1.252  -5.396  0.00  0.00    +0.000 A 
ATOM     23  C   LIG    1        8.954   1.477  -6.186  0.00  0.00    +0.350 A 
ATOM     24  N   LIG    1        9.743   2.511  -5.965  0.00  0.00    -0.480 NA
ATOM     25  C   LIG    1        9.508   3.371  -4.992  0.00  0.00    +0.100 A 
ATOM     26  C   LIG    1        8.417   3.219  -4.162  0.00  0.00    -0.090 A 
BRANCH  25  27
ATOM     27  C   LIG    1       10.444   4.534  -4.786  0.00  0.00    +0.340 C 
BRANCH  27  28
ATOM     28  N   LIG    1       11.576   4.109  -3.952  0.00  0.00    -0.390 N 
ATOM     29  C   LIG    1       11.091   3.757  -2.610  0.00  0.00    +0.310 C 
ATOM     30  C   LIG    1       12.547   5.207  -3.849  0.00  0.00    +0.330 C 
ATOM     31  H   LIG    1       12.020   3.306  -4.371  0.00  0.00    +0.430 HD
ENDBRANCH  27  28
ENDBRANCH  25  27
ENDBRANCH  20  21
ENDBRANCH   4  20
TORSDOF 9
