REMARK  Name = ZINCrm00000VuOZc.1
REMARK                            x       y       z     vdW  Elec       q    Type
REMARK                         _______ _______ _______ _____ _____    ______ ____
ROOT
ATOM      1  N   LIG    1       -1.381  -2.693  -3.051  0.00  0.00    -0.390 N 
ATOM      2  C   LIG    1       -2.192  -3.516  -2.127  0.00  0.00    +0.270 C 
ATOM      3  C   LIG    1       -3.208  -4.291  -2.985  0.00  0.00    +0.070 C 
ATOM      4  C   LIG    1       -2.901  -3.882  -4.443  0.00  0.00    +0.180 C 
ATOM      5  C   LIG    1       -1.435  -3.388  -4.363  0.00  0.00    +0.300 C 
ATOM      6  H   LIG    1       -1.775  -1.768  -3.130  0.00  0.00    +0.430 HD
ENDROOT
BRANCH   1   7
ATOM      7  C   LIG    1        0.006  -2.615  -2.576  0.00  0.00    +0.350 C 
BRANCH   7  13
ATOM      8  C   LIG    1        0.141  -2.489   2.444  0.00  0.00    +0.150 C 
ATOM      9  C   LIG    1        0.114  -1.779   1.115  0.00  0.00    +0.130 A 
ATOM     10  N   LIG    1        0.129  -0.461   1.079  0.00  0.00    -0.440 NA
ATOM     11  C   LIG    1        0.107   0.202  -0.060  0.00  0.00    +0.320 A 
ATOM     12  C   LIG    1        0.067  -0.465  -1.270  0.00  0.00    -0.120 A 
ATOM     13  C   LIG    1        0.050  -1.851  -1.278  0.00  0.00    -0.130 A 
ATOM     14  C   LIG    1        0.080  -2.519  -0.058  0.00  0.00    +0.080 A 
BRANCH  14  15
ATOM     15  O   LIG    1        0.070  -3.877  -0.016  0.00  0.00    -0.480 OA
ATOM     16  H   LIG    1       -0.809  -4.261   0.104  0.00  0.00    +0.390 HD
ENDBRANCH  14  15
BRANCH  12  17
ATOM     17  C   LIG    1        0.042   0.305  -2.565  0.00  0.00    +0.240 C 
BRANCH  17  18
ATOM     18  O   LIG    1       -0.053   1.703  -2.286  0.00  0.00    -0.560 OA
ATOM     19  H   LIG    1       -0.074   2.261  -3.076  0.00  0.00    +0.400 HD
ENDBRANCH  17  18
ENDBRANCH  12  17
ENDBRANCH   7  13
ENDBRANCH   1   7
BRANCH   4  20
ATOM     20  O   LIG    1       -3.012  -5.006  -5.319  0.00  0.00    -0.280 OA
BRANCH  20  21
ATOM     21  C   LIG    1       -4.222  -5.221  -5.895  0.00  0.00    +0.170 A 
ATOM     22  C   LIG    1       -5.299  -4.378  -5.631  0.00  0.00    -0.080 A 
ATOM     23  C   LIG    1       -6.511  -4.626  -6.241  0.00  0.00    +0.340 A 
ATOM     24  N   LIG    1       -6.660  -5.653  -7.056  0.00  0.00    -0.480 NA
ATOM     25  C   LIG    1       -5.665  -6.477  -7.327  0.00  0.00    +0.100 A 
ATOM     26  C   LIG    1       -4.420  -6.293  -6.761  0.00  0.00    -0.010 A 
BRANCH  25  27
ATOM     27  C   LIG    1       -5.892  -7.633  -8.267  0.00  0.00    +0.350 C 
BRANCH  27  28
ATOM     28  N   LIG    1       -6.448  -8.770  -7.520  0.00  0.00    -0.380 N 
ATOM     29  C   LIG    1       -6.557  -9.934  -8.409  0.00  0.00    +0.340 C 
ATOM     30  C   LIG    1       -7.779  -8.416  -7.010  0.00  0.00    +0.320 C 
ATOM     31  H   LIG    1       -5.840  -8.993  -6.746  0.00  0.00    +0.420 HD
ENDBRANCH  27  28
ENDBRANCH  25  27
ENDBRANCH  20  21
ENDBRANCH   4  20
TORSDOF 9
