REMARK  Name = ZINCqH0000007zZ9.0
REMARK                            x       y       z     vdW  Elec       q    Type
REMARK                         _______ _______ _______ _____ _____    ______ ____
ROOT
ATOM      1  C   LIG    1       -2.482   0.853   0.018  0.00  0.00    +0.040 C 
ATOM      2  C   LIG    1       -2.545  -0.035   1.263  0.00  0.00    +0.050 C 
ENDROOT
BRANCH   1   8
ATOM      3  C   LIG    1       -7.743   4.481  -0.928  0.00  0.00    +0.130 A 
ATOM      4  C   LIG    1       -6.840   4.503   0.097  0.00  0.00    -0.020 A 
ATOM      5  C   LIG    1       -5.759   3.606   0.088  0.00  0.00    -0.010 A 
ATOM      6  C   LIG    1       -4.811   3.598   1.125  0.00  0.00    +0.010 A 
ATOM      7  C   LIG    1       -3.779   2.712   1.088  0.00  0.00    +0.050 A 
ATOM      8  C   LIG    1       -3.641   1.816   0.029  0.00  0.00    -0.070 A 
ATOM      9  C   LIG    1       -4.540   1.795  -0.993  0.00  0.00    +0.040 A 
ATOM     10  C   LIG    1       -5.622   2.691  -0.986  0.00  0.00    -0.080 A 
ATOM     11  C   LIG    1       -6.569   2.697  -2.025  0.00  0.00    +0.070 A 
ATOM     12  C   LIG    1       -7.605   3.578  -1.987  0.00  0.00    -0.060 A 
BRANCH   3  14
ATOM     13  C   LIG    1       -9.699   5.279  -2.018  0.00  0.00    +0.250 C 
ATOM     14  O   LIG    1       -8.789   5.349  -0.919  0.00  0.00    -0.320 OA
ENDBRANCH   3  14
ENDBRANCH   1   8
BRANCH   1  15
ATOM     15  C   LIG    1       -1.187   1.624   0.017  0.00  0.00    +0.520 C 
ATOM     16  N   LIG    1       -0.011   0.966   0.007  0.00  0.00    -0.730 N 
ATOM     17  H   LIG    1        0.002  -0.004   0.002  0.00  0.00    +0.400 HD
ATOM     18  O   LIG    1       -1.204   2.837   0.023  0.00  0.00    -0.520 OA
BRANCH  16  19
ATOM     19  C   LIG    1        1.248   1.716  -0.001  0.00  0.00    +0.260 C 
BRANCH  19  20
ATOM     20  C   LIG    1        2.424   0.737  -0.017  0.00  0.00    +0.010 C 
BRANCH  20  21
ATOM     21  C   LIG    1        3.738   1.520  -0.025  0.00  0.00    +0.030 C 
BRANCH  21  22
ATOM     22  C   LIG    1        4.915   0.542  -0.042  0.00  0.00    +0.300 C 
BRANCH  22  23
ATOM     23  N   LIG    1        6.173   1.292  -0.050  0.00  0.00    -0.460 N 
ATOM     24  C   LIG    1        6.881   1.701   1.047  0.00  0.00    +0.110 A 
ATOM     25  C   LIG    1        7.967   2.353   0.589  0.00  0.00    +0.140 A 
ATOM     26  N   LIG    1        7.923   2.342  -0.751  0.00  0.00    -0.500 NA
ATOM     27  C   LIG    1        6.854   1.702  -1.141  0.00  0.00    +0.380 A 
ENDBRANCH  22  23
ENDBRANCH  21  22
ENDBRANCH  20  21
ENDBRANCH  19  20
ENDBRANCH  16  19
ENDBRANCH   1  15
TORSDOF 8
