REMARK  Name = ZINCrD0000074I9M.0
REMARK                            x       y       z     vdW  Elec       q    Type
REMARK                         _______ _______ _______ _____ _____    ______ ____
ROOT
ATOM      1  C   LIG    1        6.663  -0.177  -5.102  0.00  0.00    +0.040 C 
ATOM      2  C   LIG    1        5.672   0.987  -5.050  0.00  0.00    +0.040 C 
ATOM      3  C   LIG    1        5.238   1.223  -3.602  0.00  0.00    +0.020 C 
ATOM      4  C   LIG    1        4.569  -0.041  -3.058  0.00  0.00    +0.230 C 
ATOM      5  C   LIG    1        5.561  -1.205  -3.110  0.00  0.00    +0.030 C 
ATOM      6  C   LIG    1        5.995  -1.441  -4.558  0.00  0.00    +0.060 C 
ENDROOT
BRANCH   4   7
ATOM      7  N   LIG    1        4.153   0.185  -1.672  0.00  0.00    -0.730 N 
ATOM      8  H   LIG    1        4.732  -0.086  -0.942  0.00  0.00    +0.400 HD
ATOM      9  C   LIG    1        2.967   0.769  -1.411  0.00  0.00    +0.520 C 
ATOM     10  O   LIG    1        2.244   1.108  -2.324  0.00  0.00    -0.530 OA
BRANCH   9  11
ATOM     11  C   LIG    1        2.539   1.002   0.015  0.00  0.00    +0.110 C 
BRANCH  11  12
ATOM     12  C   LIG    1        1.186   1.664   0.033  0.00  0.00    -0.020 A 
ATOM     13  C   LIG    1        0.025   0.906   0.058  0.00  0.00    -0.030 A 
ATOM     14  C   LIG    1       -1.199   1.548   0.067  0.00  0.00    +0.260 A 
ATOM     15  N   LIG    1       -1.269   2.865   0.065  0.00  0.00    -0.490 NA
ATOM     16  C   LIG    1       -0.187   3.617   0.040  0.00  0.00    +0.260 A 
ATOM     17  C   LIG    1        1.071   3.046   0.024  0.00  0.00    -0.030 A 
ENDBRANCH  11  12
ENDBRANCH   9  11
ENDBRANCH   4   7
BRANCH   1  18
ATOM     18  C   LIG    1        7.091  -0.409  -6.529  0.00  0.00    +0.460 C 
ATOM     19  O   LIG    1        6.883  -1.476  -7.056  0.00  0.00    -0.480 OA
BRANCH  18  20
ATOM     20  O   LIG    1        7.704   0.570  -7.213  0.00  0.00    -0.290 OA
BRANCH  20  25
ATOM     21  C   LIG    1        9.570  -0.703 -12.375  0.00  0.00    +0.110 C 
ATOM     22  C   LIG    1        9.072  -0.363 -10.994  0.00  0.00    -0.110 A 
ATOM     23  C   LIG    1        7.725  -0.131 -10.784  0.00  0.00    +0.060 A 
ATOM     24  C   LIG    1        7.266   0.182  -9.519  0.00  0.00    +0.020 A 
ATOM     25  C   LIG    1        8.155   0.262  -8.458  0.00  0.00    +0.100 A 
ATOM     26  C   LIG    1        9.507   0.035  -8.670  0.00  0.00    -0.010 A 
ATOM     27  C   LIG    1        9.963  -0.283  -9.937  0.00  0.00    +0.110 A 
ATOM     28  F   LIG    1       11.279  -0.509 -10.145  0.00  0.00    -0.130 F 
ENDBRANCH  20  25
ENDBRANCH  18  20
ENDBRANCH   1  18
TORSDOF 6
