REMARK  Name = ZINCpk00000e9wsQ.0
REMARK                            x       y       z     vdW  Elec       q    Type
REMARK                         _______ _______ _______ _____ _____    ______ ____
ROOT
ATOM      1  S   LIG    1       -2.623  -0.109   6.519  0.00  0.00    +2.690 S 
ATOM      2  O   LIG    1       -1.291  -0.425   6.899  0.00  0.00    -0.940 OA
ATOM      3  O   LIG    1       -3.663  -1.075   6.456  0.00  0.00    -0.950 OA
ENDROOT
BRANCH   1   7
ATOM      4  C   LIG    1       -4.039   3.108   9.372  0.00  0.00    -0.610 A 
ATOM      5  C   LIG    1       -4.959   2.305   8.724  0.00  0.00    +0.100 A 
ATOM      6  C   LIG    1       -4.527   1.323   7.853  0.00  0.00    +0.110 A 
ATOM      7  C   LIG    1       -3.174   1.143   7.630  0.00  0.00    -0.630 A 
ATOM      8  C   LIG    1       -2.254   1.942   8.282  0.00  0.00    +0.110 A 
ATOM      9  C   LIG    1       -2.686   2.928   9.149  0.00  0.00    +0.110 A 
BRANCH   4  10
ATOM     10  S   LIG    1       -4.589   4.360  10.482  0.00  0.00    +2.490 S 
ATOM     11  O   LIG    1       -5.896   4.683  10.027  0.00  0.00    -0.930 OA
ATOM     12  O   LIG    1       -3.548   5.327  10.465  0.00  0.00    -0.930 OA
BRANCH  10  14
ATOM     13  C   LIG    1       -5.135   4.530  13.157  0.00  0.00    +0.100 C 
ATOM     14  C   LIG    1       -4.664   3.534  12.096  0.00  0.00    -0.320 C 
ENDBRANCH  10  14
ENDBRANCH   4  10
ENDBRANCH   1   7
BRANCH   1  15
ATOM     15  N   LIG    1       -2.531   0.576   5.014  0.00  0.00    -1.110 NA
ATOM     16  H   LIG    1       -3.116   0.269   4.305  0.00  0.00    +0.420 HD
BRANCH  15  17
ATOM     17  C   LIG    1       -1.564   1.646   4.755  0.00  0.00    +0.380 C 
BRANCH  17  18
ATOM     18  C   LIG    1       -1.416   1.840   3.268  0.00  0.00    -0.020 A 
ATOM     19  C   LIG    1       -2.080   2.742   2.517  0.00  0.00    +0.150 A 
ATOM     20  N   LIG    1       -1.647   2.578   1.235  0.00  0.00    -0.450 N 
ATOM     21  C   LIG    1       -2.066   3.321   0.044  0.00  0.00    +0.280 C 
ATOM     22  C   LIG    1       -1.032   3.100  -1.065  0.00  0.00    +0.030 C 
ATOM     23  C   LIG    1       -0.767   1.600  -1.225  0.00  0.00    +0.030 C 
ATOM     24  C   LIG    1       -0.013   1.086   0.008  0.00  0.00    +0.150 C 
ATOM     25  C   LIG    1       -0.732   1.579   1.242  0.00  0.00    +0.210 A 
ATOM     26  N   LIG    1       -0.600   1.145   2.460  0.00  0.00    -0.470 NA
ENDBRANCH  17  18
ENDBRANCH  15  17
ENDBRANCH   1  15
TORSDOF 6
