REMARK  Name = ZINCqH0000008FhS.0
REMARK                            x       y       z     vdW  Elec       q    Type
REMARK                         _______ _______ _______ _____ _____    ______ ____
ROOT
ATOM      1  N   LIG    1       -1.466   6.057   0.146  0.00  0.00    -0.720 N 
ATOM      2  H   LIG    1       -0.604   5.612   0.136  0.00  0.00    +0.400 HD
ATOM      3  C   LIG    1       -2.599   5.333   0.052  0.00  0.00    +0.580 C 
ATOM      4  O   LIG    1       -3.676   5.895  -0.011  0.00  0.00    -0.520 OA
ENDROOT
BRANCH   1  16
ATOM      5  C   LIG    1       -0.318   7.583   2.445  0.00  0.00    +0.030 C 
ATOM      6  C   LIG    1       -0.287   8.024   0.980  0.00  0.00    -0.020 C 
ATOM      7  C   LIG    1       -0.273   9.555   0.901  0.00  0.00    +0.040 C 
ATOM      8  C   LIG    1       -0.002   9.961  -0.546  0.00  0.00    +0.080 C 
ATOM      9  C   LIG    1       -0.942   9.247  -1.481  0.00  0.00    -0.100 A 
ATOM     10  C   LIG    1       -1.089   9.759  -2.766  0.00  0.00    +0.090 A 
ATOM     11  C   LIG    1       -1.928   9.142  -3.675  0.00  0.00    -0.020 A 
ATOM     12  C   LIG    1       -2.625   8.008  -3.304  0.00  0.00    +0.030 A 
ATOM     13  C   LIG    1       -2.481   7.501  -2.029  0.00  0.00    +0.020 A 
ATOM     14  F   LIG    1       -0.408  10.868  -3.128  0.00  0.00    -0.140 F 
ATOM     15  C   LIG    1       -1.641   8.120  -1.113  0.00  0.00    -0.070 A 
ATOM     16  C   LIG    1       -1.536   7.515   0.263  0.00  0.00    +0.310 C 
ENDBRANCH   1  16
BRANCH   3  17
ATOM     17  C   LIG    1       -2.533   3.864   0.026  0.00  0.00    -0.220 A 
ATOM     18  C   LIG    1       -1.329   3.227  -0.012  0.00  0.00    +0.330 A 
ATOM     19  N   LIG    1       -1.227   1.876  -0.035  0.00  0.00    -0.620 N 
ATOM     20  H   LIG    1       -0.344   1.476  -0.062  0.00  0.00    +0.420 HD
ATOM     21  C   LIG    1       -2.304   1.068  -0.024  0.00  0.00    +0.550 A 
ATOM     22  C   LIG    1       -3.650   1.654   0.021  0.00  0.00    -0.160 A 
ATOM     23  C   LIG    1       -4.798   0.863   0.029  0.00  0.00    +0.090 A 
ATOM     24  C   LIG    1       -6.037   1.465   0.066  0.00  0.00    +0.000 A 
ATOM     25  C   LIG    1       -6.152   2.848   0.091  0.00  0.00    +0.050 A 
ATOM     26  C   LIG    1       -5.029   3.648   0.079  0.00  0.00    +0.050 A 
ATOM     27  O   LIG    1       -2.163  -0.141  -0.046  0.00  0.00    -0.510 OA
ATOM     28  C   LIG    1       -3.768   3.061   0.041  0.00  0.00    +0.020 A 
ENDBRANCH   3  17
TORSDOF 2
