REMARK  Name = ZINCtV00000tRQuS.0
REMARK                            x       y       z     vdW  Elec       q    Type
REMARK                         _______ _______ _______ _____ _____    ______ ____
ROOT
ATOM      1  C   LIG    1       -0.567  -2.110   0.157  0.00  0.00    +0.160 A 
ATOM      2  N   LIG    1        0.696  -2.007  -0.194  0.00  0.00    -0.280 NA
ATOM      3  N   LIG    1        1.028  -0.769  -0.291  0.00  0.00    -0.260 NA
ATOM      4  C   LIG    1        0.002  -0.004   0.002  0.00  0.00    +0.230 A 
ATOM      5  N   LIG    1       -1.054  -0.839   0.294  0.00  0.00    -0.410 N 
ENDROOT
BRANCH   4   6
ATOM      6  C   LIG    1       -0.018   1.474   0.010  0.00  0.00    -0.020 A 
ATOM      7  C   LIG    1        1.179   2.191   0.003  0.00  0.00    +0.090 A 
ATOM      8  C   LIG    1        1.154   3.571   0.010  0.00  0.00    +0.030 A 
ATOM      9  C   LIG    1       -0.054   4.244   0.024  0.00  0.00    +0.070 A 
ATOM     10  C   LIG    1       -1.246   3.538   0.031  0.00  0.00    -0.090 A 
ATOM     11 BR   LIG    1       -2.893   4.468   0.050  0.00  0.00    -0.040 Br
ATOM     12  C   LIG    1       -1.235   2.158   0.020  0.00  0.00    +0.060 A 
ENDBRANCH   4   6
BRANCH   5  13
ATOM     13  C   LIG    1       -2.356  -0.465   0.657  0.00  0.00    +0.090 A 
ATOM     14  C   LIG    1       -2.580   0.203   1.853  0.00  0.00    +0.030 A 
ATOM     15  C   LIG    1       -3.862   0.575   2.205  0.00  0.00    +0.040 A 
ATOM     16  C   LIG    1       -4.924   0.273   1.372  0.00  0.00    +0.050 A 
ATOM     17  C   LIG    1       -4.705  -0.398   0.183  0.00  0.00    +0.040 A 
ATOM     18  C   LIG    1       -3.424  -0.767  -0.177  0.00  0.00    +0.030 A 
ENDBRANCH   5  13
BRANCH   1  19
ATOM     19  S   LIG    1       -1.464  -3.606   0.403  0.00  0.00    +0.080 S 
BRANCH  19  20
ATOM     20  C   LIG    1       -0.166  -4.815   0.040  0.00  0.00    +0.100 C 
BRANCH  20  22
ATOM     21  O   LIG    1       -1.879  -6.368   0.512  0.00  0.00    -0.430 OA
ATOM     22  C   LIG    1       -0.721  -6.208   0.191  0.00  0.00    +0.420 C 
BRANCH  22  23
ATOM     23  C   LIG    1        0.143  -7.373  -0.051  0.00  0.00    -0.160 A 
ATOM     24  C   LIG    1        1.479  -7.192  -0.427  0.00  0.00    +0.090 A 
ATOM     25  C   LIG    1        2.284  -8.289  -0.647  0.00  0.00    +0.020 A 
ATOM     26  C   LIG    1        1.771  -9.569  -0.507  0.00  0.00    -0.000 A 
ATOM     27  C   LIG    1        0.448  -9.755  -0.140  0.00  0.00    +0.020 A 
ATOM     28 CL   LIG    1        2.790 -10.944  -0.794  0.00  0.00    -0.060 Cl
ATOM     29  C   LIG    1       -0.368  -8.668   0.089  0.00  0.00    +0.110 A 
ENDBRANCH  22  23
ENDBRANCH  20  22
ENDBRANCH  19  20
ENDBRANCH   1  19
TORSDOF 6
