REMARK  Name = ZINCqH0000031KKj.0
REMARK                            x       y       z     vdW  Elec       q    Type
REMARK                         _______ _______ _______ _____ _____    ______ ____
ROOT
ATOM      1  N   LIG    1        3.012  -2.131   0.545  0.00  0.00    -0.580 N 
ATOM      2  C   LIG    1        1.795  -1.578   0.373  0.00  0.00    +0.590 C 
ATOM      3  O   LIG    1        1.685  -0.371   0.272  0.00  0.00    -0.520 OA
ENDROOT
BRANCH   2   4
ATOM      4  C   LIG    1        0.595  -2.438   0.307  0.00  0.00    +0.010 A 
ATOM      5  N   LIG    1        0.726  -3.747   0.301  0.00  0.00    -0.160 NA
ATOM      6  N   LIG    1       -0.285  -4.536   0.245  0.00  0.00    -0.300 N 
ATOM      7  C   LIG    1       -1.547  -4.070   0.190  0.00  0.00    +0.480 A 
ATOM      8  C   LIG    1       -1.776  -2.677   0.193  0.00  0.00    -0.010 A 
ATOM      9  O   LIG    1       -2.486  -4.847   0.138  0.00  0.00    -0.510 OA
ATOM     10  C   LIG    1       -0.692  -1.851   0.252  0.00  0.00    +0.140 A 
BRANCH   6  11
ATOM     11  C   LIG    1       -0.069  -5.918   0.242  0.00  0.00    +0.110 A 
ATOM     12  C   LIG    1        0.795  -6.490   1.167  0.00  0.00    +0.030 A 
ATOM     13  C   LIG    1        1.002  -7.855   1.163  0.00  0.00    +0.030 A 
ATOM     14  C   LIG    1        0.359  -8.652   0.234  0.00  0.00    +0.030 A 
ATOM     15  C   LIG    1       -0.498  -8.085  -0.692  0.00  0.00    +0.020 A 
ATOM     16  C   LIG    1       -0.714  -6.721  -0.691  0.00  0.00    +0.050 A 
ENDBRANCH   6  11
ENDBRANCH   2   4
BRANCH   1  17
ATOM     17  C   LIG    1        4.189  -1.274   0.713  0.00  0.00    +0.300 C 
BRANCH  17  19
ATOM     18  C   LIG    1        4.597  -2.167   3.010  0.00  0.00    +0.030 C 
ATOM     19  C   LIG    1        4.343  -0.901   2.189  0.00  0.00    -0.080 C 
ATOM     20  C   LIG    1        3.062  -0.223   2.679  0.00  0.00    +0.030 C 
ATOM     21  C   LIG    1        5.523   0.059   2.352  0.00  0.00    +0.040 C 
ENDBRANCH  17  19
ENDBRANCH   1  17
BRANCH   1  22
ATOM     22  C   LIG    1        3.159  -3.588   0.565  0.00  0.00    +0.290 C 
BRANCH  22  23
ATOM     23  C   LIG    1        3.382  -4.097  -0.860  0.00  0.00    -0.070 C 
ATOM     24  C   LIG    1        2.251  -3.600  -1.763  0.00  0.00    +0.020 C 
ATOM     25  C   LIG    1        3.398  -5.627  -0.859  0.00  0.00    +0.040 C 
ATOM     26  C   LIG    1        4.721  -3.574  -1.385  0.00  0.00    +0.030 C 
ENDBRANCH  22  23
ENDBRANCH   1  22
TORSDOF 6
