REMARK  Name = ZINCqH0000008NUH.0
REMARK                            x       y       z     vdW  Elec       q    Type
REMARK                         _______ _______ _______ _____ _____    ______ ____
ROOT
ATOM      1  C   LIG    1        1.674   6.030   0.017  0.00  0.00    +0.360 C 
ENDROOT
BRANCH   1   2
ATOM      2  N   LIG    1        2.262   7.372   0.018  0.00  0.00    -0.530 N 
ATOM      3  C   LIG    1        2.579   8.081   1.134  0.00  0.00    +0.580 A 
ATOM      4  C   LIG    1        3.142   9.367   0.709  0.00  0.00    -0.160 A 
ATOM      5  C   LIG    1        3.654  10.522   1.274  0.00  0.00    +0.130 A 
ATOM      6  C   LIG    1        4.097  11.557   0.452  0.00  0.00    +0.010 A 
ATOM      7  C   LIG    1        4.056  11.496  -0.916  0.00  0.00    +0.080 A 
ATOM      8  C   LIG    1        3.544  10.341  -1.530  0.00  0.00    -0.030 A 
ATOM      9  C   LIG    1        3.435  10.126  -2.914  0.00  0.00    +0.030 A 
ATOM     10  C   LIG    1        2.910   8.940  -3.351  0.00  0.00    +0.040 A 
ATOM     11  C   LIG    1        2.478   7.931  -2.491  0.00  0.00    +0.020 A 
ATOM     12  C   LIG    1        3.104   9.315  -0.693  0.00  0.00    -0.100 A 
ATOM     13  O   LIG    1        2.424   7.712   2.283  0.00  0.00    -0.490 OA
ATOM     14  C   LIG    1        2.569   8.105  -1.122  0.00  0.00    +0.150 A 
ENDBRANCH   1   2
BRANCH   1  25
ATOM     15  C   LIG    1        4.307   2.673  -1.279  0.00  0.00    +0.050 C 
ATOM     16  C   LIG    1        3.446   2.597  -0.017  0.00  0.00    +0.220 C 
ATOM     17  C   LIG    1        2.611   1.306  -0.015  0.00  0.00    +0.110 C 
ATOM     18  C   LIG    1        1.175   1.781   0.000  0.00  0.00    -0.130 A 
ATOM     19  C   LIG    1       -0.013   1.076   0.008  0.00  0.00    +0.060 A 
ATOM     20  C   LIG    1       -1.220   1.749   0.017  0.00  0.00    -0.010 A 
ATOM     21  C   LIG    1       -1.236   3.132   0.029  0.00  0.00    +0.050 A 
ATOM     22  C   LIG    1       -0.053   3.840   0.022  0.00  0.00    -0.040 A 
ATOM     23  C   LIG    1        1.169   3.167   0.007  0.00  0.00    +0.140 A 
ATOM     24  N   LIG    1        2.467   3.688  -0.002  0.00  0.00    -0.550 N 
ATOM     25  C   LIG    1        2.773   5.000   0.001  0.00  0.00    +0.510 C 
ATOM     26  O   LIG    1        3.934   5.352  -0.008  0.00  0.00    -0.500 OA
ENDBRANCH   1  25
TORSDOF 2
