REMARK  Name = ZINCvU00000006Rx.0
REMARK                            x       y       z     vdW  Elec       q    Type
REMARK                         _______ _______ _______ _____ _____    ______ ____
ROOT
ATOM      1  C   LIG    1       -0.976   2.631   0.929  0.00  0.00    +0.330 C 
ENDROOT
BRANCH   1   6
ATOM      2  C   LIG    1        3.860   1.909   0.203  0.00  0.00    +0.250 C 
ATOM      3  C   LIG    1        2.558   1.570   0.371  0.00  0.00    -0.240 C 
ATOM      4  S   LIG    1        1.847  -0.056   0.383  0.00  0.00    -0.010 S 
ATOM      5  C   LIG    1        0.191   0.516   0.652  0.00  0.00    +0.530 C 
ATOM      6  N   LIG    1        0.246   1.851   0.717  0.00  0.00    -0.570 N 
ATOM      7  O   LIG    1       -0.805  -0.173   0.757  0.00  0.00    -0.420 OA
ATOM      8  C   LIG    1        1.412   2.463   0.584  0.00  0.00    +0.550 C 
ATOM      9  O   LIG    1        1.525   3.673   0.634  0.00  0.00    -0.450 OA
BRANCH   2  14
ATOM     10  C   LIG    1        5.339   7.432  -0.381  0.00  0.00    +0.100 C 
ATOM     11  C   LIG    1        4.951   5.984  -0.228  0.00  0.00    -0.060 A 
ATOM     12  C   LIG    1        5.758   5.129   0.502  0.00  0.00    -0.010 A 
ATOM     13  C   LIG    1        5.411   3.803   0.647  0.00  0.00    +0.060 A 
ATOM     14  C   LIG    1        4.238   3.322   0.054  0.00  0.00    -0.110 A 
ATOM     15  C   LIG    1        3.431   4.191  -0.688  0.00  0.00    +0.090 A 
ATOM     16  C   LIG    1        3.789   5.516  -0.818  0.00  0.00    +0.000 A 
ENDBRANCH   2  14
ENDBRANCH   1   6
BRANCH   1  17
ATOM     17  C   LIG    1       -1.204   2.825   2.429  0.00  0.00    +0.060 C 
BRANCH  17  18
ATOM     18  C   LIG    1       -2.461   3.627   2.647  0.00  0.00    +0.530 C 
ATOM     19  N   LIG    1       -2.863   3.922   3.899  0.00  0.00    -0.670 N 
ATOM     20  H   LIG    1       -2.311   3.675   4.657  0.00  0.00    +0.420 HD
ATOM     21  O   LIG    1       -3.111   4.006   1.696  0.00  0.00    -0.510 OA
BRANCH  19  22
ATOM     22  C   LIG    1       -4.077   4.587   4.105  0.00  0.00    +0.160 A 
ATOM     23  C   LIG    1       -4.524   5.522   3.182  0.00  0.00    +0.100 A 
ATOM     24  C   LIG    1       -5.723   6.176   3.388  0.00  0.00    -0.160 A 
ATOM     25  C   LIG    1       -6.479   5.902   4.513  0.00  0.00    +0.080 A 
ATOM     26  C   LIG    1       -6.037   4.972   5.436  0.00  0.00    +0.060 A 
ATOM     27  C   LIG    1       -4.841   4.308   5.232  0.00  0.00    -0.040 A 
ATOM     28 CL   LIG    1       -4.291   3.135   6.387  0.00  0.00    -0.050 Cl
BRANCH  24  29
ATOM     29  C   LIG    1       -6.209   7.191   2.385  0.00  0.00    +0.510 C 
ATOM     30  F   LIG    1       -5.111   7.801   1.769  0.00  0.00    -0.170 F 
ATOM     31  F   LIG    1       -6.975   8.163   3.038  0.00  0.00    -0.170 F 
ATOM     32  F   LIG    1       -6.992   6.553   1.417  0.00  0.00    -0.170 F 
ENDBRANCH  24  29
ENDBRANCH  19  22
ENDBRANCH  17  18
ENDBRANCH   1  17
TORSDOF 6
