REMARK  Name = ZINCCC00000009EB.0
REMARK                            x       y       z     vdW  Elec       q    Type
REMARK                         _______ _______ _______ _____ _____    ______ ____
ROOT
ATOM      1  C   LIG    1       -2.191   2.294   1.016  0.00  0.00    -0.660 A 
ATOM      2  C   LIG    1       -1.077   1.504   1.259  0.00  0.00    +0.130 A 
ATOM      3  C   LIG    1        0.183   2.059   1.216  0.00  0.00    +0.060 A 
ATOM      4  C   LIG    1        0.343   3.413   0.935  0.00  0.00    -0.140 A 
ATOM      5  S   LIG    1        1.791   4.408   0.810  0.00  0.00    +0.050 S 
ATOM      6  C   LIG    1        0.807   5.819   0.448  0.00  0.00    +0.310 A 
ATOM      7  N   LIG    1       -0.443   5.504   0.439  0.00  0.00    -0.490 NA
ATOM      8  C   LIG    1       -0.772   4.222   0.694  0.00  0.00    +0.090 A 
ATOM      9  C   LIG    1       -2.052   3.632   0.743  0.00  0.00    +0.180 A 
ENDROOT
BRANCH   6  10
ATOM     10  N   LIG    1        1.302   7.084   0.207  0.00  0.00    -0.440 N 
ATOM     11  C   LIG    1        0.841   7.592  -1.091  0.00  0.00    +0.220 C 
ATOM     12  C   LIG    1        1.287   9.046  -1.260  0.00  0.00    +0.060 C 
ATOM     13  C   LIG    1        2.814   9.120  -1.176  0.00  0.00    +0.010 C 
ATOM     14  C   LIG    1        3.272   8.540   0.165  0.00  0.00    +0.070 C 
ATOM     15  C   LIG    1        2.768   7.101   0.292  0.00  0.00    +0.210 C 
BRANCH  14  16
ATOM     16  C   LIG    1        4.777   8.554   0.233  0.00  0.00    -0.090 A 
ATOM     17  C   LIG    1        5.507   7.570  -0.407  0.00  0.00    +0.000 A 
ATOM     18  C   LIG    1        6.888   7.585  -0.349  0.00  0.00    +0.000 A 
ATOM     19  C   LIG    1        7.539   8.580   0.356  0.00  0.00    +0.000 A 
ATOM     20  C   LIG    1        6.809   9.561   1.000  0.00  0.00    +0.020 A 
ATOM     21  C   LIG    1        5.429   9.548   0.939  0.00  0.00    +0.010 A 
ENDBRANCH  14  16
BRANCH  13  22
ATOM     22  C   LIG    1        3.429   8.310  -2.319  0.00  0.00    +0.170 C 
BRANCH  22  23
ATOM     23  O   LIG    1        3.036   8.878  -3.570  0.00  0.00    -0.570 OA
ATOM     24  H   LIG    1        3.390   8.415  -4.341  0.00  0.00    +0.380 HD
ENDBRANCH  22  23
ENDBRANCH  13  22
ENDBRANCH   6  10
BRANCH   1  25
ATOM     25  S   LIG    1       -3.799   1.575   1.064  0.00  0.00    +2.690 S 
ATOM     26  O   LIG    1       -3.626   0.187   0.816  0.00  0.00    -0.940 OA
ATOM     27  O   LIG    1       -4.635   2.408   0.272  0.00  0.00    -0.950 OA
BRANCH  25  28
ATOM     28  N   LIG    1       -4.348   1.707   2.621  0.00  0.00    -1.110 NA
ATOM     29  H   LIG    1       -4.504   0.909   3.150  0.00  0.00    +0.420 HD
BRANCH  28  33
ATOM     30  N   LIG    1       -4.816   4.713   5.536  0.00  0.00    -0.530 NA
ATOM     31  C   LIG    1       -6.021   4.324   4.791  0.00  0.00    +0.200 C 
ATOM     32  C   LIG    1       -5.802   2.955   4.143  0.00  0.00    +0.060 C 
ATOM     33  C   LIG    1       -4.598   3.029   3.200  0.00  0.00    +0.240 C 
ATOM     34  C   LIG    1       -3.367   3.482   3.991  0.00  0.00    +0.030 C 
ATOM     35  C   LIG    1       -3.656   4.836   4.644  0.00  0.00    +0.170 C 
BRANCH  30  36
ATOM     36  C   LIG    1       -5.038   5.957   6.285  0.00  0.00    +0.190 C 
BRANCH  36  37
ATOM     37  C   LIG    1       -3.706   6.462   6.842  0.00  0.00    +0.250 C 
BRANCH  37  39
ATOM     38  C   LIG    1       -4.761   7.426   8.769  0.00  0.00    +0.320 C 
ATOM     39  N   LIG    1       -3.928   7.706   7.591  0.00  0.00    -0.390 N 
ATOM     40  C   LIG    1       -2.636   8.254   8.024  0.00  0.00    +0.320 C 
ATOM     41  H   LIG    1       -4.397   8.375   7.000  0.00  0.00    +0.430 HD
ENDBRANCH  37  39
ENDBRANCH  36  37
ENDBRANCH  30  36
ENDBRANCH  28  33
ENDBRANCH  25  28
ENDBRANCH   1  25
TORSDOF 10
