REMARK  Name = ZINCrH000004keSi.0
REMARK                            x       y       z     vdW  Elec       q    Type
REMARK                         _______ _______ _______ _____ _____    ______ ____
ROOT
ATOM      1  N   LIG    1       -0.737  -5.197  -0.017  0.00  0.00    -0.670 N 
ATOM      2  H   LIG    1       -1.653  -4.880  -0.056  0.00  0.00    +0.420 HD
ATOM      3  C   LIG    1        0.273  -4.320   0.149  0.00  0.00    +0.510 C 
ATOM      4  O   LIG    1        1.408  -4.723   0.294  0.00  0.00    -0.510 OA
ENDROOT
BRANCH   1   8
ATOM      5  C   LIG    1        0.074  -9.268  -0.361  0.00  0.00    -0.150 A 
ATOM      6  C   LIG    1       -1.100  -8.838   0.263  0.00  0.00    +0.100 A 
ATOM      7  C   LIG    1       -1.365  -7.492   0.375  0.00  0.00    -0.010 A 
ATOM      8  C   LIG    1       -0.465  -6.560  -0.132  0.00  0.00    +0.170 A 
ATOM      9  C   LIG    1        0.702  -6.985  -0.758  0.00  0.00    +0.010 A 
ATOM     10  C   LIG    1        0.976  -8.329  -0.869  0.00  0.00    +0.070 A 
BRANCH   5  14
ATOM     11  C   LIG    1        1.778 -12.556  -1.208  0.00  0.00    +0.290 C 
ATOM     12  N   LIG    1        1.494 -11.124  -1.086  0.00  0.00    -0.730 N 
ATOM     13  H   LIG    1        2.121 -10.473  -1.438  0.00  0.00    +0.400 HD
ATOM     14  C   LIG    1        0.361 -10.711  -0.484  0.00  0.00    +0.560 C 
ATOM     15  O   LIG    1       -0.425 -11.527  -0.042  0.00  0.00    -0.540 OA
ENDBRANCH   5  14
ENDBRANCH   1   8
BRANCH   3  16
ATOM     16  C   LIG    1       -0.007  -2.840   0.153  0.00  0.00    +0.310 C 
BRANCH  16  17
ATOM     17  N   LIG    1        1.246  -2.106   0.348  0.00  0.00    -0.740 N 
ATOM     18  H   LIG    1        2.080  -2.589   0.449  0.00  0.00    +0.410 HD
BRANCH  17  19
ATOM     19  C   LIG    1        1.238  -0.712   0.388  0.00  0.00    +0.230 A 
ATOM     20  C   LIG    1        0.046  -0.017   0.244  0.00  0.00    -0.080 A 
ATOM     21  C   LIG    1        0.041   1.364   0.284  0.00  0.00    +0.050 A 
ATOM     22  C   LIG    1        1.221   2.062   0.469  0.00  0.00    -0.050 A 
ATOM     23  C   LIG    1        2.415   1.384   0.614  0.00  0.00    +0.060 A 
ATOM     24  C   LIG    1        2.434  -0.007   0.575  0.00  0.00    -0.120 A 
BRANCH  24  25
ATOM     25  C   LIG    1        3.714  -0.740   0.730  0.00  0.00    -0.040 A 
ATOM     26  C   LIG    1        3.816  -1.783   1.649  0.00  0.00    +0.000 A 
ATOM     27  C   LIG    1        5.008  -2.464   1.786  0.00  0.00    +0.010 A 
ATOM     28  C   LIG    1        6.104  -2.107   1.020  0.00  0.00    +0.000 A 
ATOM     29  C   LIG    1        6.009  -1.070   0.110  0.00  0.00    +0.000 A 
ATOM     30  C   LIG    1        4.821  -0.385  -0.039  0.00  0.00    +0.010 A 
ENDBRANCH  24  25
ENDBRANCH  17  19
ENDBRANCH  16  17
ENDBRANCH   3  16
TORSDOF 6
