REMARK  Name = ZINCqH0000006gwm.0
REMARK                            x       y       z     vdW  Elec       q    Type
REMARK                         _______ _______ _______ _____ _____    ______ ____
ROOT
ATOM      1  C   LIG    1        3.640  -2.124  -0.027  0.00  0.00    +0.310 C 
ENDROOT
BRANCH   1   2
ATOM      2  C   LIG    1        5.067  -2.609  -0.054  0.00  0.00    +0.520 C 
ATOM      3  N   LIG    1        5.330  -3.931  -0.069  0.00  0.00    -0.680 N 
ATOM      4  H   LIG    1        4.604  -4.570   0.003  0.00  0.00    +0.420 HD
ATOM      5  O   LIG    1        5.979  -1.809  -0.063  0.00  0.00    -0.500 OA
BRANCH   3   6
ATOM      6  C   LIG    1        6.649  -4.381  -0.190  0.00  0.00    +0.200 A 
ATOM      7  C   LIG    1        7.684  -3.664   0.395  0.00  0.00    +0.030 A 
ATOM      8  C   LIG    1        8.985  -4.115   0.280  0.00  0.00    +0.070 A 
ATOM      9  C   LIG    1        9.258  -5.271  -0.428  0.00  0.00    +0.010 A 
ATOM     10  C   LIG    1        8.229  -5.983  -1.017  0.00  0.00    +0.090 A 
ATOM     11  C   LIG    1        6.926  -5.542  -0.900  0.00  0.00    -0.210 A 
BRANCH  11  12
ATOM     12  C   LIG    1        5.806  -6.319  -1.543  0.00  0.00    +0.510 C 
ATOM     13  F   LIG    1        5.146  -5.505  -2.470  0.00  0.00    -0.170 F 
ATOM     14  F   LIG    1        4.902  -6.733  -0.559  0.00  0.00    -0.180 F 
ATOM     15  F   LIG    1        6.330  -7.439  -2.195  0.00  0.00    -0.170 F 
ENDBRANCH  11  12
ENDBRANCH   3   6
ENDBRANCH   1   2
BRANCH   1  16
ATOM     16  N   LIG    1        3.622  -0.659  -0.015  0.00  0.00    -0.730 N 
ATOM     17  H   LIG    1        4.456  -0.164  -0.024  0.00  0.00    +0.420 HD
BRANCH  16  23
ATOM     18  C   LIG    1        2.382   1.419   0.022  0.00  0.00    +0.060 A 
ATOM     19  C   LIG    1        1.172   2.091   0.048  0.00  0.00    -0.030 A 
ATOM     20  C   LIG    1       -0.014   1.379   0.061  0.00  0.00    -0.020 A 
ATOM     21  C   LIG    1        0.004  -0.003   0.050  0.00  0.00    +0.010 A 
ATOM     22  C   LIG    1        1.208  -0.681   0.025  0.00  0.00    -0.040 A 
ATOM     23  C   LIG    1        2.402   0.025   0.011  0.00  0.00    +0.190 A 
BRANCH  18  24
ATOM     24  O   LIG    1        3.550   2.117   0.009  0.00  0.00    -0.310 OA
BRANCH  24  25
ATOM     25  C   LIG    1        3.453   3.542   0.022  0.00  0.00    +0.220 C 
BRANCH  25  26
ATOM     26  C   LIG    1        4.858   4.149   0.004  0.00  0.00    +0.190 C 
BRANCH  26  28
ATOM     27  C   LIG    1        6.826   4.346  -1.349  0.00  0.00    +0.200 C 
ATOM     28  O   LIG    1        5.501   3.824  -1.230  0.00  0.00    -0.380 OA
ENDBRANCH  26  28
ENDBRANCH  25  26
ENDBRANCH  24  25
ENDBRANCH  18  24
ENDBRANCH  16  23
ENDBRANCH   1  16
TORSDOF 9
