REMARK  Name = ZINCvU0000000BfT.0
REMARK                            x       y       z     vdW  Elec       q    Type
REMARK                         _______ _______ _______ _____ _____    ______ ____
ROOT
ATOM      1  C   LIG    1       -1.220   1.760   0.017  0.00  0.00    -0.070 A 
ATOM      2  C   LIG    1       -0.013   1.076   0.022  0.00  0.00    +0.020 A 
ATOM      3  C   LIG    1        1.190   1.800   0.014  0.00  0.00    +0.200 A 
ATOM      4  N   LIG    1        1.217   3.116   0.007  0.00  0.00    -0.440 NA
ATOM      5  C   LIG    1        0.105   3.853   0.008  0.00  0.00    +0.130 A 
ATOM      6  C   LIG    1        0.167   5.259   0.001  0.00  0.00    +0.050 A 
ATOM      7  C   LIG    1       -0.985   5.984   0.002  0.00  0.00    +0.030 A 
ATOM      8  C   LIG    1       -2.229   5.359   0.010  0.00  0.00    +0.020 A 
ATOM      9  C   LIG    1       -2.327   3.998   0.017  0.00  0.00    +0.060 A 
ATOM     10  C   LIG    1       -1.164   3.222   0.016  0.00  0.00    -0.060 A 
ENDROOT
BRANCH   3  11
ATOM     11  C   LIG    1        2.472   1.057   0.012  0.00  0.00    -0.070 A 
ATOM     12  C   LIG    1        2.473  -0.337   0.024  0.00  0.00    +0.070 A 
ATOM     13  C   LIG    1        3.669  -1.024   0.017  0.00  0.00    -0.010 A 
ATOM     14  C   LIG    1        4.869  -0.330   0.009  0.00  0.00    +0.120 A 
ATOM     15  C   LIG    1        4.873   1.056   0.003  0.00  0.00    -0.020 A 
ATOM     16  F   LIG    1        6.038  -1.007   0.007  0.00  0.00    -0.130 F 
ATOM     17  C   LIG    1        3.682   1.751   0.004  0.00  0.00    +0.110 A 
ENDBRANCH   3  11
BRANCH   1  20
ATOM     18  N   LIG    1       -2.534  -0.304  -0.090  0.00  0.00    -0.630 N 
ATOM     19  H   LIG    1       -1.703  -0.798  -0.170  0.00  0.00    +0.420 HD
ATOM     20  C   LIG    1       -2.511   1.040   0.019  0.00  0.00    +0.560 C 
ATOM     21  O   LIG    1       -3.552   1.659   0.119  0.00  0.00    -0.450 OA
BRANCH  18  27
ATOM     22  C   LIG    1       -8.006  -3.143  -0.065  0.00  0.00    +0.150 A 
ATOM     23  C   LIG    1       -8.331  -1.797   0.062  0.00  0.00    -0.040 A 
ATOM     24  C   LIG    1       -7.348  -0.842   0.094  0.00  0.00    +0.120 A 
ATOM     25  C   LIG    1       -5.989  -1.209  -0.001  0.00  0.00    +0.070 A 
ATOM     26  N   LIG    1       -4.897  -0.417   0.017  0.00  0.00    -0.450 NA
ATOM     27  C   LIG    1       -3.744  -0.978  -0.089  0.00  0.00    +0.320 A 
ATOM     28  S   LIG    1       -3.920  -2.722  -0.224  0.00  0.00    +0.080 S 
ATOM     29  C   LIG    1       -5.673  -2.566  -0.127  0.00  0.00    -0.140 A 
ATOM     30  C   LIG    1       -6.681  -3.525  -0.159  0.00  0.00    +0.030 A 
BRANCH  22  32
ATOM     31  C   LIG    1      -10.336  -3.615   0.007  0.00  0.00    +0.240 C 
ATOM     32  O   LIG    1       -8.989  -4.082  -0.095  0.00  0.00    -0.310 OA
ENDBRANCH  22  32
ENDBRANCH  18  27
ENDBRANCH   1  20
TORSDOF 4
