REMARK  Name = ZINCvU0000000IXo.1
REMARK                            x       y       z     vdW  Elec       q    Type
REMARK                         _______ _______ _______ _____ _____    ______ ____
ROOT
ATOM      1  N   LIG    1        8.590  -0.797   1.254  0.00  0.00    -0.380 N 
ATOM      2  C   LIG    1        8.229   0.246   2.222  0.00  0.00    +0.270 C 
ATOM      3  C   LIG    1        8.728  -0.153   3.612  0.00  0.00    +0.220 C 
ATOM      4  N   LIG    1       10.187  -0.327   3.575  0.00  0.00    -0.490 N 
ATOM      5  C   LIG    1       10.566  -1.351   2.592  0.00  0.00    +0.220 C 
ATOM      6  C   LIG    1       10.051  -0.942   1.210  0.00  0.00    +0.270 C 
ATOM      7  H   LIG    1        8.174  -1.673   1.533  0.00  0.00    +0.430 HD
ENDROOT
BRANCH   4   8
ATOM      8  C   LIG    1       10.687  -0.640   4.841  0.00  0.00    +0.100 A 
ATOM      9  C   LIG    1       11.427  -1.800   5.030  0.00  0.00    +0.010 A 
ATOM     10  C   LIG    1       11.923  -2.104   6.283  0.00  0.00    +0.050 A 
ATOM     11  C   LIG    1       11.675  -1.261   7.350  0.00  0.00    +0.050 A 
ATOM     12  C   LIG    1       10.934  -0.107   7.166  0.00  0.00    -0.150 A 
ATOM     13  C   LIG    1       10.439   0.205   5.916  0.00  0.00    +0.060 A 
BRANCH  12  14
ATOM     14  C   LIG    1       10.666   0.809   8.333  0.00  0.00    +0.510 C 
ATOM     15  F   LIG    1       10.546   2.125   7.874  0.00  0.00    -0.170 F 
ATOM     16  F   LIG    1       11.725   0.727   9.243  0.00  0.00    -0.170 F 
ATOM     17  F   LIG    1        9.478   0.425   8.964  0.00  0.00    -0.170 F 
ENDBRANCH  12  14
ENDBRANCH   4   8
BRANCH   1  18
ATOM     18  C   LIG    1        8.095  -0.422  -0.078  0.00  0.00    +0.330 C 
BRANCH  18  32
ATOM     19  O   LIG    1        6.539  -2.774  -0.077  0.00  0.00    -0.720 OA
ATOM     20  C   LIG    1        5.876  -1.587  -0.064  0.00  0.00    +0.280 A 
ATOM     21  C   LIG    1        4.493  -1.567  -0.050  0.00  0.00    -0.090 A 
ATOM     22  C   LIG    1        3.822  -0.349  -0.036  0.00  0.00    -0.040 A 
ATOM     23  C   LIG    1        4.539   0.855  -0.037  0.00  0.00    -0.040 A 
ATOM     24  O   LIG    1        3.658   1.880  -0.023  0.00  0.00    -0.210 OA
ATOM     25  C   LIG    1        2.381   1.436  -0.013  0.00  0.00    +0.100 A 
ATOM     26  C   LIG    1        1.160   2.100   0.002  0.00  0.00    +0.000 A 
ATOM     27  C   LIG    1       -0.017   1.382   0.010  0.00  0.00    +0.050 A 
ATOM     28  C   LIG    1        0.002  -0.004   0.002  0.00  0.00    -0.020 A 
ATOM     29  C   LIG    1        1.204  -0.680  -0.013  0.00  0.00    +0.070 A 
ATOM     30  C   LIG    1        5.929   0.817  -0.050  0.00  0.00    +0.090 A 
ATOM     31  C   LIG    1        2.397   0.035  -0.021  0.00  0.00    -0.140 A 
ATOM     32  C   LIG    1        6.589  -0.393  -0.064  0.00  0.00    -0.290 A 
ENDBRANCH  18  32
ENDBRANCH   1  18
TORSDOF 4
