REMARK  Name = ZINCpk00000y3SyR.0
REMARK                            x       y       z     vdW  Elec       q    Type
REMARK                         _______ _______ _______ _____ _____    ______ ____
ROOT
ATOM      1  C   LIG    1       -1.149   1.457  -1.095  0.00  0.00    +0.140 C 
ATOM      2  C   LIG    1       -0.669   0.735  -2.357  0.00  0.00    +0.050 C 
ATOM      3  C   LIG    1       -1.463   1.235  -3.566  0.00  0.00    +0.030 C 
ATOM      4  C   LIG    1       -1.218   2.736  -3.746  0.00  0.00    +0.270 C 
ATOM      5  N   LIG    1       -1.540   3.423  -2.487  0.00  0.00    -0.590 N 
ATOM      6  C   LIG    1       -2.405   4.456  -2.470  0.00  0.00    +0.600 C 
ATOM      7  O   LIG    1       -2.758   4.935  -1.411  0.00  0.00    -0.510 OA
ATOM      8  C   LIG    1       -0.900   2.961  -1.248  0.00  0.00    +0.280 C 
ENDROOT
BRANCH   6   9
ATOM      9  C   LIG    1       -2.926   5.008  -3.745  0.00  0.00    -0.010 A 
ATOM     10  N   LIG    1       -2.539   4.689  -4.956  0.00  0.00    -0.330 NA
ATOM     11  O   LIG    1       -3.150   5.305  -5.798  0.00  0.00    +0.120 OA
ATOM     12  C   LIG    1       -4.043   6.147  -5.249  0.00  0.00    +0.020 A 
ATOM     13  C   LIG    1       -3.938   5.992  -3.895  0.00  0.00    +0.010 A 
BRANCH  12  14
ATOM     14  C   LIG    1       -4.958   7.059  -5.968  0.00  0.00    -0.030 A 
ATOM     15  C   LIG    1       -5.838   7.874  -5.255  0.00  0.00    +0.040 A 
ATOM     16  C   LIG    1       -6.686   8.727  -5.931  0.00  0.00    +0.010 A 
ATOM     17  C   LIG    1       -6.672   8.768  -7.314  0.00  0.00    +0.030 A 
ATOM     18  C   LIG    1       -5.806   7.959  -8.027  0.00  0.00    +0.010 A 
ATOM     19  C   LIG    1       -4.949   7.105  -7.363  0.00  0.00    +0.040 A 
ENDBRANCH  12  14
ENDBRANCH   6   9
BRANCH   1  20
ATOM     20  O   LIG    1       -2.546   1.220  -0.912  0.00  0.00    -0.550 OA
ATOM     21  H   LIG    1       -2.918   1.649  -0.130  0.00  0.00    +0.390 HD
ENDBRANCH   1  20
BRANCH   1  22
ATOM     22  C   LIG    1       -0.378   0.932   0.118  0.00  0.00    +0.050 C 
BRANCH  22  26
ATOM     23  C   LIG    1       -0.768   2.035   3.763  0.00  0.00    +0.280 C 
ATOM     24  N   LIG    1       -0.308   1.343   2.556  0.00  0.00    -0.730 N 
ATOM     25  H   LIG    1        0.386   0.668   2.618  0.00  0.00    +0.400 HD
ATOM     26  C   LIG    1       -0.850   1.644   1.359  0.00  0.00    +0.510 C 
ATOM     27  O   LIG    1       -1.718   2.488   1.281  0.00  0.00    -0.530 OA
ENDBRANCH  22  26
ENDBRANCH   1  22
TORSDOF 5
