REMARK  Name = ZINCtV00000L6k81.0
REMARK                            x       y       z     vdW  Elec       q    Type
REMARK                         _______ _______ _______ _____ _____    ______ ____
ROOT
ATOM      1  C   LIG    1       -1.207  -0.751  -0.477  0.00  0.00    +0.060 C 
ATOM      2  S   LIG    1       -2.317  -0.134  -1.743  0.00  0.00    -0.070 S 
ATOM      3  C   LIG    1       -3.073   1.294  -1.060  0.00  0.00    -0.170 A 
ATOM      4  C   LIG    1       -4.406   1.546  -1.402  0.00  0.00    +0.060 A 
ATOM      5  C   LIG    1       -5.108   2.559  -0.790  0.00  0.00    +0.000 A 
ATOM      6  C   LIG    1       -4.514   3.320   0.204  0.00  0.00    +0.040 A 
ATOM      7  C   LIG    1       -3.188   3.122   0.512  0.00  0.00    +0.010 A 
ATOM      8  C   LIG    1       -2.437   2.166  -0.191  0.00  0.00    +0.200 A 
ATOM      9  N   LIG    1       -1.107   2.228  -0.095  0.00  0.00    -0.590 NA
ATOM     10  C   LIG    1       -0.063   1.542  -0.276  0.00  0.00    +0.340 C 
ATOM     11  C   LIG    1        1.192   2.312  -0.517  0.00  0.00    -0.080 A 
ATOM     12  C   LIG    1        1.135   3.708  -0.539  0.00  0.00    +0.080 A 
ATOM     13  C   LIG    1        2.287   4.435  -0.762  0.00  0.00    +0.000 A 
ATOM     14  C   LIG    1        3.490   3.780  -0.954  0.00  0.00    +0.020 A 
ATOM     15  C   LIG    1        3.551   2.397  -0.930  0.00  0.00    +0.000 A 
ATOM     16  C   LIG    1        2.404   1.657  -0.715  0.00  0.00    -0.050 A 
ATOM     17  C   LIG    1        2.482   0.153  -0.696  0.00  0.00    +0.080 C 
ATOM     18  C   LIG    1        1.146  -0.435  -1.145  0.00  0.00    +0.060 C 
ATOM     19  C   LIG    1        0.025   0.066  -0.222  0.00  0.00    +0.000 C 
ENDROOT
BRANCH   1  23
ATOM     20  C   LIG    1        0.020  -4.693  -1.594  0.00  0.00    +0.110 A 
ATOM     21  C   LIG    1       -0.071  -3.696  -2.551  0.00  0.00    -0.030 A 
ATOM     22  C   LIG    1       -0.468  -2.422  -2.187  0.00  0.00    +0.040 A 
ATOM     23  C   LIG    1       -0.774  -2.141  -0.869  0.00  0.00    -0.060 A 
ATOM     24  C   LIG    1       -0.680  -3.131   0.092  0.00  0.00    -0.020 A 
ATOM     25  C   LIG    1       -0.289  -4.410  -0.267  0.00  0.00    +0.110 A 
BRANCH  20  27
ATOM     26  C   LIG    1        0.710  -6.164  -3.331  0.00  0.00    +0.240 C 
ATOM     27  O   LIG    1        0.410  -5.946  -1.951  0.00  0.00    -0.300 OA
ENDBRANCH  20  27
BRANCH  25  28
ATOM     28  O   LIG    1       -0.201  -5.386   0.676  0.00  0.00    -0.300 OA
ATOM     29  C   LIG    1       -0.533  -5.023   2.018  0.00  0.00    +0.240 C 
ENDBRANCH  25  28
ENDBRANCH   1  23
TORSDOF 3
