REMARK  Name = ZINCpk00000xI517.0
REMARK                            x       y       z     vdW  Elec       q    Type
REMARK                         _______ _______ _______ _____ _____    ______ ____
ROOT
ATOM      1  N   LIG    1        1.073   2.293   0.004  0.00  0.00    -0.400 N 
ATOM      2  C   LIG    1       -0.018   1.503   0.010  0.00  0.00    +0.300 A 
ATOM      3  N   LIG    1       -1.099   2.241   0.019  0.00  0.00    -0.480 NA
ATOM      4  C   LIG    1       -0.763   3.534   0.028  0.00  0.00    +0.320 A 
ATOM      5  N   LIG    1       -1.488   4.715   0.040  0.00  0.00    -0.510 N 
ATOM      6  C   LIG    1       -2.952   4.674   0.052  0.00  0.00    +0.340 C 
ATOM      7  C   LIG    1       -0.848   5.900   0.039  0.00  0.00    +0.710 A 
ATOM      8  O   LIG    1       -1.501   6.925   0.050  0.00  0.00    -0.530 OA
ATOM      9  N   LIG    1        0.494   5.977   0.027  0.00  0.00    -0.550 N 
ATOM     10  C   LIG    1        1.141   7.292   0.027  0.00  0.00    +0.350 C 
ATOM     11  C   LIG    1        1.254   4.863   0.015  0.00  0.00    +0.590 A 
ATOM     12  O   LIG    1        2.469   4.946   0.003  0.00  0.00    -0.510 OA
ATOM     13  C   LIG    1        0.625   3.599   0.015  0.00  0.00    -0.150 A 
ENDROOT
BRANCH   1  14
ATOM     14  C   LIG    1        2.469   1.851  -0.011  0.00  0.00    +0.300 C 
BRANCH  14  15
ATOM     15  C   LIG    1        2.942   1.704  -1.458  0.00  0.00    +0.020 C 
BRANCH  15  17
ATOM     16  C   LIG    1        4.836   0.976  -2.916  0.00  0.00    +0.030 C 
ATOM     17  C   LIG    1        4.401   1.243  -1.474  0.00  0.00    -0.020 C 
ATOM     18  C   LIG    1        5.287   2.332  -0.866  0.00  0.00    +0.030 C 
ENDBRANCH  15  17
ENDBRANCH  14  15
ENDBRANCH   1  14
BRANCH   2  19
ATOM     19  C   LIG    1        0.002  -0.004   0.002  0.00  0.00    +0.310 C 
BRANCH  19  20
ATOM     20  N   LIG    1        0.022  -0.501   1.384  0.00  0.00    -0.530 NA
ATOM     21  C   LIG    1        1.274  -0.133   2.058  0.00  0.00    +0.150 C 
ATOM     22  C   LIG    1        1.200  -0.538   3.532  0.00  0.00    +0.020 C 
ATOM     23  C   LIG    1        0.970  -2.049   3.630  0.00  0.00    +0.010 C 
ATOM     24  C   LIG    1       -0.314  -2.412   2.880  0.00  0.00    +0.020 C 
ATOM     25  C   LIG    1       -0.196  -1.953   1.425  0.00  0.00    +0.180 C 
ENDBRANCH  19  20
ENDBRANCH   2  19
TORSDOF 5
