REMARK  Name = ZINCrH000004tVpI.0
REMARK                            x       y       z     vdW  Elec       q    Type
REMARK                         _______ _______ _______ _____ _____    ______ ____
ROOT
ATOM      1  O   LIG    1       -1.329   7.375  -5.644  0.00  0.00    -0.460 OA
ATOM      2  C   LIG    1       -0.140   7.467  -5.865  0.00  0.00    +0.510 C 
ATOM      3  N   LIG    1        0.751   7.133  -4.910  0.00  0.00    -0.640 N 
ATOM      4  H   LIG    1        1.702   7.207  -5.086  0.00  0.00    +0.420 HD
ENDROOT
BRANCH   3   5
ATOM      5  C   LIG    1        0.306   6.683  -3.672  0.00  0.00    +0.270 A 
ATOM      6  N   LIG    1       -0.938   6.549  -3.334  0.00  0.00    -0.470 NA
ATOM      7  C   LIG    1       -1.181   6.107  -2.114  0.00  0.00    +0.250 A 
ATOM      8  C   LIG    1       -0.091   5.857  -1.387  0.00  0.00    -0.230 A 
ATOM      9  S   LIG    1        1.321   6.234  -2.371  0.00  0.00    +0.120 S 
BRANCH   8  10
ATOM     10  C   LIG    1       -0.070   5.347   0.031  0.00  0.00    +0.190 C 
BRANCH  10  11
ATOM     11  C   LIG    1       -0.050   3.840   0.023  0.00  0.00    -0.080 A 
ATOM     12  C   LIG    1        1.156   3.165   0.008  0.00  0.00    +0.010 A 
ATOM     13  C   LIG    1        1.175   1.783   0.000  0.00  0.00    +0.000 A 
ATOM     14  C   LIG    1       -0.013   1.076   0.008  0.00  0.00    +0.000 A 
ATOM     15  C   LIG    1       -1.219   1.751   0.017  0.00  0.00    +0.000 A 
ATOM     16  C   LIG    1       -1.238   3.133   0.030  0.00  0.00    +0.010 A 
ENDBRANCH  10  11
ENDBRANCH   8  10
ENDBRANCH   3   5
BRANCH   2  17
ATOM     17  C   LIG    1        0.342   7.955  -7.207  0.00  0.00    +0.150 C 
BRANCH  17  18
ATOM     18  C   LIG    1       -0.843   8.259  -8.086  0.00  0.00    -0.170 A 
ATOM     19  C   LIG    1       -1.327   9.524  -8.155  0.00  0.00    +0.150 A 
ATOM     20  C   LIG    1       -2.477   9.786  -9.023  0.00  0.00    -0.130 A 
ATOM     21  C   LIG    1       -3.017  11.071  -9.138  0.00  0.00    +0.090 A 
ATOM     22  C   LIG    1       -4.095  11.282  -9.951  0.00  0.00    -0.020 A 
ATOM     23  C   LIG    1       -4.658  10.233 -10.664  0.00  0.00    +0.070 A 
ATOM     24  C   LIG    1       -4.142   8.958 -10.566  0.00  0.00    -0.030 A 
ATOM     25  C   LIG    1       -3.046   8.719  -9.744  0.00  0.00    +0.190 A 
ATOM     26  N   LIG    1       -2.510   7.455  -9.626  0.00  0.00    -0.630 N 
ATOM     27  H   LIG    1       -2.902   6.721 -10.123  0.00  0.00    +0.420 HD
ATOM     28  C   LIG    1       -1.450   7.224  -8.831  0.00  0.00    +0.550 A 
ATOM     29  O   LIG    1       -1.002   6.093  -8.750  0.00  0.00    -0.530 OA
ENDBRANCH  17  18
ENDBRANCH   2  17
TORSDOF 5
