REMARK  Name = ZINCpk000000pSJV.2
REMARK                            x       y       z     vdW  Elec       q    Type
REMARK                         _______ _______ _______ _____ _____    ______ ____
ROOT
ATOM      1  S   LIG    1        0.475   5.311  -0.567  0.00  0.00    +2.680 S 
ATOM      2  O   LIG    1       -0.343   4.475   0.240  0.00  0.00    -0.920 OA
ATOM      3  O   LIG    1        1.488   4.808  -1.427  0.00  0.00    -0.950 OA
ENDROOT
BRANCH   1  11
ATOM      4  C   LIG    1        0.000   6.959  -2.618  0.00  0.00    +0.260 C 
ATOM      5  C   LIG    1        0.022   6.082  -3.900  0.00  0.00    +0.190 C 
ATOM      6  N   LIG    1       -1.298   5.862  -4.358  0.00  0.00    -0.570 NA
ATOM      7  C   LIG    1       -2.178   5.112  -3.464  0.00  0.00    +0.180 C 
ATOM      8  C   LIG    1       -2.838   6.071  -2.498  0.00  0.00    +0.050 C 
ATOM      9  C   LIG    1       -1.997   6.172  -1.215  0.00  0.00    +0.270 C 
ATOM     10  C   LIG    1       -1.297   5.280  -5.707  0.00  0.00    +0.200 C 
ATOM     11  N   LIG    1       -0.553   6.192  -1.520  0.00  0.00    -0.990 NA
BRANCH   4  13
ATOM     12  C   LIG    1        1.373   8.518  -1.230  0.00  0.00    +0.010 C 
ATOM     13  C   LIG    1        1.425   7.395  -2.268  0.00  0.00    -0.010 C 
ENDBRANCH   4  13
ENDBRANCH   1  11
BRANCH   1  14
ATOM     14  C   LIG    1        1.268   6.440   0.529  0.00  0.00    -0.640 A 
ATOM     15  C   LIG    1        2.612   6.721   0.378  0.00  0.00    +0.130 A 
ATOM     16  C   LIG    1        3.234   7.607   1.238  0.00  0.00    +0.010 A 
ATOM     17  C   LIG    1        2.511   8.212   2.249  0.00  0.00    +0.070 A 
ATOM     18  C   LIG    1        1.167   7.926   2.404  0.00  0.00    +0.010 A 
ATOM     19  C   LIG    1        0.544   7.044   1.541  0.00  0.00    -0.010 A 
BRANCH  19  20
ATOM     20  C   LIG    1       -0.922   6.737   1.706  0.00  0.00    +0.360 C 
BRANCH  20  21
ATOM     21  N   LIG    1       -1.093   5.712   2.739  0.00  0.00    -0.370 N 
ATOM     22  C   LIG    1       -1.863   5.795   3.837  0.00  0.00    +0.460 A 
ATOM     23  N   LIG    1       -1.745   4.675   4.502  0.00  0.00    -0.540 NA
ATOM     24  C   LIG    1       -0.905   3.859   3.866  0.00  0.00    +0.390 A 
ATOM     25  N   LIG    1       -0.479   4.449   2.781  0.00  0.00    -0.260 NA
ENDBRANCH  20  21
ENDBRANCH  19  20
ENDBRANCH   1  14
TORSDOF 5
