REMARK  Name = ZINCkj00000hcuGD.1
REMARK                            x       y       z     vdW  Elec       q    Type
REMARK                         _______ _______ _______ _____ _____    ______ ____
ROOT
ATOM      1  N   LIG    1        2.164  -0.320   3.495  0.00  0.00    -1.120 NA
ATOM      2  H   LIG    1        3.030   0.025   3.763  0.00  0.00    +0.430 HD
ENDROOT
BRANCH   1   3
ATOM      3  S   LIG    1        1.496   0.147   2.053  0.00  0.00    +2.630 S 
ATOM      4  O   LIG    1        2.466   1.015   1.483  0.00  0.00    -0.930 OA
ATOM      5  O   LIG    1        1.143  -1.075   1.419  0.00  0.00    -0.940 OA
BRANCH   3  11
ATOM      6  C   LIG    1       -0.013   1.086   0.008  0.00  0.00    +0.050 C 
ATOM      7  C   LIG    1       -0.729   1.579   1.267  0.00  0.00    +0.200 C 
ATOM      8  O   LIG    1       -0.709   3.016   1.309  0.00  0.00    -0.360 OA
ATOM      9  C   LIG    1       -0.610   3.395   2.699  0.00  0.00    +0.230 C 
ATOM     10  C   LIG    1        0.390   2.366   3.284  0.00  0.00    +0.060 C 
ATOM     11  C   LIG    1        0.009   1.074   2.522  0.00  0.00    -0.480 C 
ENDBRANCH   3  11
ENDBRANCH   1   3
BRANCH   1  12
ATOM     12  C   LIG    1        1.446  -1.253   4.367  0.00  0.00    +0.280 C 
BRANCH  12  13
ATOM     13  C   LIG    1        2.405  -1.806   5.422  0.00  0.00    +0.260 C 
BRANCH  13  14
ATOM     14  N   LIG    1        1.686  -2.742   6.296  0.00  0.00    -0.380 N 
ATOM     15  C   LIG    1        1.254  -3.909   5.514  0.00  0.00    +0.330 C 
ATOM     16  H   LIG    1        0.878  -2.283   6.688  0.00  0.00    +0.420 HD
BRANCH  14  17
ATOM     17  C   LIG    1        2.574  -3.181   7.381  0.00  0.00    +0.160 C 
ATOM     18  C   LIG    1        1.824  -4.156   8.291  0.00  0.00    +0.040 C 
ATOM     19  C   LIG    1        2.749  -4.613   9.421  0.00  0.00    +0.040 C 
ATOM     20  C   LIG    1        3.199  -3.398  10.235  0.00  0.00    +0.020 C 
ATOM     21  C   LIG    1        3.948  -2.423   9.325  0.00  0.00    +0.040 C 
ATOM     22  C   LIG    1        3.023  -1.966   8.195  0.00  0.00    +0.040 C 
ENDBRANCH  14  17
ENDBRANCH  13  14
ENDBRANCH  12  13
ENDBRANCH   1  12
TORSDOF 6
