REMARK  Name = ZINCkj00000hcuGD.0
REMARK                            x       y       z     vdW  Elec       q    Type
REMARK                         _______ _______ _______ _____ _____    ______ ____
ROOT
ATOM      1  N   LIG    1        3.441   1.541  -3.653  0.00  0.00    -1.120 NA
ATOM      2  H   LIG    1        3.678   2.310  -3.111  0.00  0.00    +0.430 HD
ENDROOT
BRANCH   1   3
ATOM      3  S   LIG    1        4.589   0.802  -4.590  0.00  0.00    +2.630 S 
ATOM      4  O   LIG    1        4.487  -0.574  -4.249  0.00  0.00    -0.940 OA
ATOM      5  O   LIG    1        5.778   1.535  -4.330  0.00  0.00    -0.930 OA
BRANCH   3  11
ATOM      6  C   LIG    1        6.164  -0.227  -6.540  0.00  0.00    +0.050 C 
ATOM      7  C   LIG    1        5.036   0.479  -7.295  0.00  0.00    +0.200 C 
ATOM      8  O   LIG    1        5.570   1.572  -8.066  0.00  0.00    -0.360 OA
ATOM      9  C   LIG    1        4.570   2.613  -8.070  0.00  0.00    +0.230 C 
ATOM     10  C   LIG    1        4.020   2.591  -6.621  0.00  0.00    +0.060 C 
ATOM     11  C   LIG    1        4.030   1.079  -6.293  0.00  0.00    -0.480 C 
ENDBRANCH   3  11
ENDBRANCH   1   3
BRANCH   1  12
ATOM     12  C   LIG    1        2.067   1.034  -3.643  0.00  0.00    +0.280 C 
BRANCH  12  13
ATOM     13  C   LIG    1        1.313   1.627  -2.451  0.00  0.00    +0.260 C 
BRANCH  13  14
ATOM     14  N   LIG    1       -0.065   1.119  -2.440  0.00  0.00    -0.380 N 
ATOM     15  C   LIG    1       -0.776   1.605  -3.630  0.00  0.00    +0.330 C 
ATOM     16  H   LIG    1       -0.051   0.110  -2.446  0.00  0.00    +0.430 HD
BRANCH  14  17
ATOM     17  C   LIG    1       -0.753   1.593  -1.232  0.00  0.00    +0.170 C 
ATOM     18  C   LIG    1       -0.013   1.086   0.008  0.00  0.00    +0.040 C 
ATOM     19  C   LIG    1       -0.729   1.579   1.267  0.00  0.00    +0.040 C 
ATOM     20  C   LIG    1       -2.164   1.050   1.278  0.00  0.00    +0.020 C 
ATOM     21  C   LIG    1       -2.904   1.556   0.038  0.00  0.00    +0.040 C 
ATOM     22  C   LIG    1       -2.188   1.063  -1.221  0.00  0.00    +0.040 C 
ENDBRANCH  14  17
ENDBRANCH  13  14
ENDBRANCH  12  13
ENDBRANCH   1  12
TORSDOF 6
