REMARK  Name = ZINCqH0000038K88.1
REMARK                            x       y       z     vdW  Elec       q    Type
REMARK                         _______ _______ _______ _____ _____    ______ ____
ROOT
ATOM      1  C   LIG    1        1.802  -1.796  -0.025  0.00  0.00    +0.110 A 
ATOM      2  C   LIG    1        2.797  -2.301  -0.813  0.00  0.00    +0.000 A 
ATOM      3  C   LIG    1        2.899  -3.666  -0.462  0.00  0.00    -0.000 A 
ATOM      4  N   LIG    1        2.002  -3.897   0.475  0.00  0.00    -0.250 NA
ATOM      5  N   LIG    1        1.354  -2.822   0.751  0.00  0.00    -0.380 N 
ATOM      6  H   LIG    1        0.648  -2.753   1.413  0.00  0.00    +0.440 HD
ENDROOT
BRANCH   1  14
ATOM      7  C   LIG    1        3.611   0.808  -0.029  0.00  0.00    +0.160 C 
ATOM      8  C   LIG    1        2.104   0.765  -0.014  0.00  0.00    +0.110 A 
ATOM      9  N   LIG    1        1.307   1.800  -0.001  0.00  0.00    -0.290 NA
ATOM     10  N   LIG    1       -0.016   1.344   0.009  0.00  0.00    -0.370 N 
ATOM     11  C   LIG    1        0.002  -0.004   0.002  0.00  0.00    +0.110 A 
ATOM     12  C   LIG    1       -1.202  -0.911   0.009  0.00  0.00    +0.150 C 
ATOM     13  C   LIG    1       -1.215   2.187   0.020  0.00  0.00    +0.360 C 
ATOM     14  C   LIG    1        1.309  -0.399  -0.013  0.00  0.00    -0.190 A 
ENDBRANCH   1  14
BRANCH   3  15
ATOM     15  C   LIG    1        3.838  -4.650  -1.038  0.00  0.00    +0.630 C 
ATOM     16  N   LIG    1        3.825  -5.927  -0.605  0.00  0.00    -0.630 N 
ATOM     17  C   LIG    1        3.060  -6.702   0.384  0.00  0.00    +0.290 C 
ATOM     18  C   LIG    1        4.276  -7.629   0.517  0.00  0.00    -0.090 C 
ATOM     19  C   LIG    1        3.924  -9.113   0.634  0.00  0.00    +0.070 C 
ATOM     20  C   LIG    1        5.305  -7.168   1.552  0.00  0.00    +0.060 C 
ATOM     21  C   LIG    1        4.564  -7.159  -0.918  0.00  0.00    +0.320 C 
ATOM     22  O   LIG    1        4.622  -4.310  -1.902  0.00  0.00    -0.510 OA
BRANCH  21  23
ATOM     23  C   LIG    1        6.027  -6.927  -1.193  0.00  0.00    -0.190 A 
ATOM     24  C   LIG    1        6.826  -7.761  -1.861  0.00  0.00    +0.010 A 
ATOM     25  C   LIG    1        8.137  -7.335  -1.990  0.00  0.00    +0.000 A 
ATOM     26  C   LIG    1        8.402  -6.155  -1.429  0.00  0.00    -0.070 A 
ATOM     27  S   LIG    1        6.942  -5.511  -0.691  0.00  0.00    +0.160 S 
ENDBRANCH  21  23
ENDBRANCH   3  15
TORSDOF 3
