REMARK  Name = ZINCqH0000038K88.0
REMARK                            x       y       z     vdW  Elec       q    Type
REMARK                         _______ _______ _______ _____ _____    ______ ____
ROOT
ATOM      1  C   LIG    1       -3.229   2.077   0.444  0.00  0.00    +0.120 A 
ATOM      2  N   LIG    1       -3.155   1.758  -0.830  0.00  0.00    -0.260 NA
ATOM      3  N   LIG    1       -4.288   1.929  -1.409  0.00  0.00    -0.380 N 
ATOM      4  H   LIG    1       -4.467   1.755  -2.347  0.00  0.00    +0.440 HD
ATOM      5  C   LIG    1       -5.204   2.398  -0.510  0.00  0.00    -0.030 A 
ATOM      6  C   LIG    1       -4.545   2.503   0.700  0.00  0.00    +0.040 A 
ENDROOT
BRANCH   1  14
ATOM      7  C   LIG    1       -3.416   0.836   3.356  0.00  0.00    +0.160 C 
ATOM      8  C   LIG    1       -2.196   1.456   2.727  0.00  0.00    +0.100 A 
ATOM      9  N   LIG    1       -1.023   1.584   3.290  0.00  0.00    -0.290 NA
ATOM     10  N   LIG    1       -0.160   2.210   2.382  0.00  0.00    -0.370 N 
ATOM     11  C   LIG    1       -0.848   2.458   1.249  0.00  0.00    +0.120 A 
ATOM     12  C   LIG    1       -0.309   3.119   0.007  0.00  0.00    +0.150 C 
ATOM     13  C   LIG    1        1.248   2.538   2.622  0.00  0.00    +0.360 C 
ATOM     14  C   LIG    1       -2.121   2.006   1.432  0.00  0.00    -0.170 A 
ENDBRANCH   1  14
BRANCH   5  15
ATOM     15  C   LIG    1       -6.614   2.726  -0.777  0.00  0.00    +0.620 C 
ATOM     16  N   LIG    1       -7.119   2.571  -2.017  0.00  0.00    -0.650 N 
ATOM     17  C   LIG    1       -6.607   2.118  -3.319  0.00  0.00    +0.270 C 
ATOM     18  C   LIG    1       -7.674   3.000  -3.983  0.00  0.00    -0.080 C 
ATOM     19  C   LIG    1       -8.346   2.362  -5.201  0.00  0.00    +0.060 C 
ATOM     20  C   LIG    1       -7.234   4.446  -4.220  0.00  0.00    +0.070 C 
ATOM     21  C   LIG    1       -8.425   2.773  -2.661  0.00  0.00    +0.330 C 
ATOM     22  O   LIG    1       -7.323   3.137   0.122  0.00  0.00    -0.490 OA
BRANCH  21  23
ATOM     23  C   LIG    1       -9.155   3.995  -2.166  0.00  0.00    -0.190 A 
ATOM     24  C   LIG    1      -10.469   4.202  -2.275  0.00  0.00    +0.010 A 
ATOM     25  C   LIG    1      -10.916   5.401  -1.745  0.00  0.00    +0.000 A 
ATOM     26  C   LIG    1       -9.966   6.166  -1.206  0.00  0.00    -0.060 A 
ATOM     27  S   LIG    1       -8.408   5.362  -1.350  0.00  0.00    +0.150 S 
ENDBRANCH  21  23
ENDBRANCH   5  15
TORSDOF 3
