REMARK  Name = ZINCtj00000nxB49.0
REMARK                            x       y       z     vdW  Elec       q    Type
REMARK                         _______ _______ _______ _____ _____    ______ ____
ROOT
ATOM      1  C   LIG    1       -3.751  -2.460   0.244  0.00  0.00    +0.190 C 
ATOM      2  C   LIG    1       -2.318  -2.905   0.103  0.00  0.00    +0.140 A 
ATOM      3  C   LIG    1       -1.867  -4.193   0.043  0.00  0.00    -0.120 A 
ATOM      4  N   LIG    1       -0.529  -4.170  -0.084  0.00  0.00    -0.210 NA
ATOM      5  N   LIG    1       -0.119  -2.950  -0.114  0.00  0.00    -0.010 NA
ATOM      6  N   LIG    1       -1.232  -2.106   0.010  0.00  0.00    -0.300 N 
ENDROOT
BRANCH   6   7
ATOM      7  C   LIG    1       -1.221  -0.707   0.027  0.00  0.00    +0.130 A 
ATOM      8  C   LIG    1       -2.096   0.004  -0.764  0.00  0.00    +0.060 A 
ATOM      9  C   LIG    1       -2.096   1.396  -0.756  0.00  0.00    +0.040 A 
ATOM     10  C   LIG    1       -1.234   2.092   0.036  0.00  0.00    +0.090 A 
ATOM     11  C   LIG    1       -0.322   1.404   0.853  0.00  0.00    -0.100 A 
ATOM     12  C   LIG    1        0.585   2.093   1.679  0.00  0.00    +0.100 A 
ATOM     13  C   LIG    1        1.439   1.359   2.452  0.00  0.00    -0.020 A 
ATOM     14  C   LIG    1        1.396  -0.032   2.407  0.00  0.00    +0.320 A 
ATOM     15  N   LIG    1        0.550  -0.671   1.635  0.00  0.00    -0.470 NA
ATOM     16  C   LIG    1       -0.312  -0.013   0.855  0.00  0.00    +0.140 A 
ENDBRANCH   6   7
BRANCH   3  17
ATOM     17  C   LIG    1       -2.706  -5.404   0.107  0.00  0.00    +0.620 C 
ATOM     18  N   LIG    1       -2.136  -6.624   0.037  0.00  0.00    -0.730 N 
ATOM     19  H   LIG    1       -1.174  -6.705  -0.056  0.00  0.00    +0.400 HD
ATOM     20  O   LIG    1       -3.912  -5.303   0.224  0.00  0.00    -0.520 OA
BRANCH  18  21
ATOM     21  C   LIG    1       -2.970  -7.827   0.101  0.00  0.00    +0.280 C 
BRANCH  21  22
ATOM     22  C   LIG    1       -2.082  -9.069  -0.000  0.00  0.00    +0.120 C 
ATOM     23  C   LIG    1       -1.228  -8.986  -1.268  0.00  0.00    +0.230 C 
ATOM     24  N   LIG    1       -1.519 -10.124  -2.143  0.00  0.00    -0.370 N 
ATOM     25  C   LIG    1       -1.192 -11.386  -1.475  0.00  0.00    +0.250 C 
ATOM     26  C   LIG    1       -2.045 -11.548  -0.215  0.00  0.00    +0.080 C 
ATOM     27  C   LIG    1       -2.924 -10.108  -2.559  0.00  0.00    +0.260 C 
ATOM     28  C   LIG    1       -3.834 -10.228  -1.334  0.00  0.00    +0.080 C 
ATOM     29  H   LIG    1       -0.942 -10.049  -2.967  0.00  0.00    +0.430 HD
ATOM     30  C   LIG    1       -2.961 -10.324  -0.076  0.00  0.00    +0.050 C 
BRANCH  22  31
ATOM     31  O   LIG    1       -1.232  -9.144   1.146  0.00  0.00    -0.530 OA
ATOM     32  H   LIG    1       -0.645  -8.383   1.251  0.00  0.00    +0.390 HD
ENDBRANCH  22  31
ENDBRANCH  21  22
ENDBRANCH  18  21
ENDBRANCH   3  17
TORSDOF 5
