REMARK  Name = ZINCrH000004rnzV.0
REMARK                            x       y       z     vdW  Elec       q    Type
REMARK                         _______ _______ _______ _____ _____    ______ ____
ROOT
ATOM      1  C   LIG    1        7.317   1.330  -0.492  0.00  0.00    -0.030 A 
ATOM      2  C   LIG    1        8.036   0.991   0.639  0.00  0.00    -0.010 A 
ATOM      3  C   LIG    1        9.233   0.311   0.519  0.00  0.00    +0.120 A 
ATOM      4  C   LIG    1        9.717  -0.022  -0.732  0.00  0.00    -0.680 A 
ATOM      5  C   LIG    1        9.001   0.322  -1.863  0.00  0.00    +0.120 A 
ATOM      6  C   LIG    1        7.801   0.997  -1.744  0.00  0.00    -0.010 A 
ENDROOT
BRANCH   4   7
ATOM      7  S   LIG    1       11.246  -0.884  -0.884  0.00  0.00    +2.690 S 
ATOM      8  O   LIG    1       11.208  -1.550  -2.139  0.00  0.00    -0.950 OA
ATOM      9  O   LIG    1       11.450  -1.561   0.348  0.00  0.00    -0.950 OA
BRANCH   7  10
ATOM     10  N   LIG    1       12.442   0.255  -0.996  0.00  0.00    -1.000 NA
ATOM     11  C   LIG    1       12.865   0.772  -2.305  0.00  0.00    +0.290 C 
ATOM     12  C   LIG    1       12.780   2.305  -2.276  0.00  0.00    +0.010 C 
ATOM     13  C   LIG    1       13.601   2.834  -1.098  0.00  0.00    +0.020 C 
ATOM     14  C   LIG    1       13.022   2.295   0.212  0.00  0.00    +0.010 C 
ATOM     15  C   LIG    1       13.106   0.765   0.212  0.00  0.00    +0.290 C 
ENDBRANCH   7  10
ENDBRANCH   4   7
BRANCH   1  16
ATOM     16  C   LIG    1        6.009   2.067  -0.362  0.00  0.00    +0.110 C 
BRANCH  16  17
ATOM     17  C   LIG    1        4.864   1.058  -0.255  0.00  0.00    +0.070 C 
BRANCH  17  20
ATOM     18  N   LIG    1        2.402   1.106  -0.015  0.00  0.00    -0.670 N 
ATOM     19  H   LIG    1        2.419   0.139   0.046  0.00  0.00    +0.410 HD
ATOM     20  C   LIG    1        3.556   1.795  -0.124  0.00  0.00    +0.510 C 
ATOM     21  O   LIG    1        3.541   3.008  -0.118  0.00  0.00    -0.520 OA
BRANCH  18  26
ATOM     22  C   LIG    1       -2.551   3.870   0.079  0.00  0.00    +0.100 C 
ATOM     23  C   LIG    1       -1.235   3.136   0.054  0.00  0.00    -0.100 A 
ATOM     24  C   LIG    1       -1.145   1.903  -0.566  0.00  0.00    +0.030 A 
ATOM     25  C   LIG    1        0.059   1.225  -0.586  0.00  0.00    -0.010 A 
ATOM     26  C   LIG    1        1.181   1.788   0.008  0.00  0.00    +0.130 A 
ATOM     27  C   LIG    1        1.087   3.028   0.626  0.00  0.00    +0.020 A 
ATOM     28  C   LIG    1       -0.120   3.698   0.647  0.00  0.00    +0.030 A 
ENDBRANCH  18  26
ENDBRANCH  17  20
ENDBRANCH  16  17
ENDBRANCH   1  16
TORSDOF 6
