REMARK  Name = ZINCpk00000xI7p1.0
REMARK                            x       y       z     vdW  Elec       q    Type
REMARK                         _______ _______ _______ _____ _____    ______ ____
ROOT
ATOM      1  C   LIG    1       -0.702   4.822   4.037  0.00  0.00    +0.470 C 
ATOM      2  O   LIG    1       -1.088   4.257   5.042  0.00  0.00    -0.570 OA
ENDROOT
BRANCH   1   9
ATOM      3  N   LIG    1        1.472   7.252   5.576  0.00  0.00    -0.370 N 
ATOM      4  N   LIG    1        1.646   7.325   6.965  0.00  0.00    -0.480 N 
ATOM      5  H   LIG    1        2.214   7.956   7.434  0.00  0.00    +0.450 HD
ATOM      6  C   LIG    1        0.884   6.354   7.543  0.00  0.00    +0.350 A 
ATOM      7  C   LIG    1        0.232   5.675   6.573  0.00  0.00    -0.110 A 
ATOM      8  C   LIG    1        0.589   6.231   5.328  0.00  0.00    +0.480 A 
ATOM      9  N   LIG    1        0.153   5.835   4.132  0.00  0.00    -0.680 NA
BRANCH   3  11
ATOM     10  C   LIG    1        1.727   9.567   4.829  0.00  0.00    +0.040 C 
ATOM     11  C   LIG    1        2.112   8.109   4.574  0.00  0.00    +0.330 C 
BRANCH  11  12
ATOM     12  C   LIG    1        3.632   7.958   4.671  0.00  0.00    -0.070 C 
ATOM     13  C   LIG    1        4.429   9.159   5.184  0.00  0.00    +0.010 C 
ATOM     14  C   LIG    1        4.486   8.779   3.702  0.00  0.00    +0.040 C 
ENDBRANCH  11  12
ENDBRANCH   3  11
ENDBRANCH   1   9
BRANCH   1  15
ATOM     15  C   LIG    1       -1.194   4.375   2.685  0.00  0.00    +0.250 C 
BRANCH  15  16
ATOM     16  N   LIG    1       -2.010   3.163   2.837  0.00  0.00    -0.500 NA
ATOM     17  C   LIG    1       -1.237   2.084   3.467  0.00  0.00    +0.180 C 
ATOM     18  C   LIG    1       -2.068   0.799   3.477  0.00  0.00    +0.020 C 
ATOM     19  C   LIG    1       -3.366   1.042   4.252  0.00  0.00    +0.000 C 
ATOM     20  C   LIG    1       -4.128   2.201   3.605  0.00  0.00    +0.040 C 
ATOM     21  C   LIG    1       -3.238   3.446   3.591  0.00  0.00    +0.170 C 
BRANCH  21  22
ATOM     22  C   LIG    1       -3.988   4.602   2.927  0.00  0.00    +0.300 C 
ATOM     23  O   LIG    1       -4.319   4.272   1.559  0.00  0.00    -0.350 OA
ATOM     24  C   LIG    1       -5.422   5.143   1.233  0.00  0.00    +0.180 C 
ATOM     25  C   LIG    1       -6.058   5.507   2.590  0.00  0.00    +0.190 C 
ATOM     26  O   LIG    1       -5.263   4.811   3.572  0.00  0.00    -0.370 OA
ENDBRANCH  21  22
ENDBRANCH  15  16
ENDBRANCH   1  15
TORSDOF 6
