REMARK  Name = ZINCpk00000KfLC5.0
REMARK                            x       y       z     vdW  Elec       q    Type
REMARK                         _______ _______ _______ _____ _____    ______ ____
ROOT
ATOM      1  C   LIG    1       -0.784   2.972   1.267  0.00  0.00    +0.150 C 
ATOM      2  C   LIG    1       -1.534   3.499   0.041  0.00  0.00    +0.160 C 
ATOM      3  N   LIG    1       -0.839   3.061  -1.178  0.00  0.00    -0.530 NA
ATOM      4  C   LIG    1       -0.755   1.594  -1.231  0.00  0.00    +0.150 C 
ATOM      5  C   LIG    1       -0.013   1.086   0.008  0.00  0.00    +0.220 C 
ATOM      6  O   LIG    1       -0.684   1.548   1.183  0.00  0.00    -0.370 OA
ENDROOT
BRANCH   1   7
ATOM      7  C   LIG    1       -1.545   3.358   2.537  0.00  0.00    +0.360 C 
BRANCH   7  11
ATOM      8  C   LIG    1        0.291   0.694   6.370  0.00  0.00    +0.190 C 
ATOM      9  C   LIG    1        0.021   1.792   5.373  0.00  0.00    +0.220 A 
ATOM     10  N   LIG    1       -0.838   1.730   4.389  0.00  0.00    -0.300 NA
ATOM     11  N   LIG    1       -0.768   2.958   3.712  0.00  0.00    -0.370 N 
ATOM     12  C   LIG    1        0.148   3.697   4.362  0.00  0.00    +0.270 A 
ATOM     13  C   LIG    1        0.567   5.101   4.006  0.00  0.00    +0.190 C 
ATOM     14  N   LIG    1        0.614   2.985   5.356  0.00  0.00    -0.540 NA
ENDBRANCH   7  11
ENDBRANCH   1   7
BRANCH   3  15
ATOM     15  C   LIG    1       -1.496   3.594  -2.379  0.00  0.00    +0.250 C 
BRANCH  15  16
ATOM     16  C   LIG    1       -2.958   3.146  -2.402  0.00  0.00    +0.010 C 
BRANCH  16  17
ATOM     17  C   LIG    1       -3.632   3.693  -3.634  0.00  0.00    +0.520 C 
ATOM     18  N   LIG    1       -4.933   3.425  -3.866  0.00  0.00    -0.730 N 
ATOM     19  H   LIG    1       -5.435   2.881  -3.240  0.00  0.00    +0.400 HD
ATOM     20  O   LIG    1       -3.004   4.374  -4.417  0.00  0.00    -0.540 OA
BRANCH  18  21
ATOM     21  C   LIG    1       -5.587   3.957  -5.064  0.00  0.00    +0.230 C 
ATOM     22  C   LIG    1       -6.081   5.378  -4.787  0.00  0.00    +0.000 C 
ATOM     23  C   LIG    1       -6.765   5.934  -6.038  0.00  0.00    +0.010 C 
ATOM     24  C   LIG    1       -7.954   5.044  -6.407  0.00  0.00    +0.010 C 
ATOM     25  C   LIG    1       -7.460   3.623  -6.684  0.00  0.00    +0.020 C 
ATOM     26  C   LIG    1       -6.776   3.067  -5.433  0.00  0.00    +0.010 C 
ENDBRANCH  18  21
ENDBRANCH  16  17
ENDBRANCH  15  16
ENDBRANCH   3  15
TORSDOF 6
