REMARK  Name = ZINCqH0000035q5t.0
REMARK                            x       y       z     vdW  Elec       q    Type
REMARK                         _______ _______ _______ _____ _____    ______ ____
ROOT
ATOM      1  C   LIG    1       -2.555   3.867   0.045  0.00  0.00    +0.360 C 
ENDROOT
BRANCH   1   2
ATOM      2  C   LIG    1       -1.239   3.133   0.030  0.00  0.00    -0.070 A 
ATOM      3  C   LIG    1       -1.219   1.751   0.017  0.00  0.00    +0.040 A 
ATOM      4  C   LIG    1       -0.013   1.076   0.008  0.00  0.00    +0.060 A 
ATOM      5  C   LIG    1        1.176   1.784   0.000  0.00  0.00    -0.030 A 
ATOM      6  C   LIG    1        1.156   3.168   0.008  0.00  0.00    -0.030 A 
ATOM      7 CL   LIG    1        2.647   4.058  -0.003  0.00  0.00    -0.040 Cl
ATOM      8 CL   LIG    1        2.691   0.937  -0.019  0.00  0.00    -0.040 Cl
ATOM      9  C   LIG    1       -0.052   3.842   0.022  0.00  0.00    +0.070 A 
ENDBRANCH   1   2
BRANCH   1  13
ATOM     10  N   LIG    1       -5.402   3.244  -2.196  0.00  0.00    -0.750 N 
ATOM     11  H   LIG    1       -5.295   2.299  -2.386  0.00  0.00    +0.390 HD
ATOM     12  C   LIG    1       -4.528   3.871  -1.384  0.00  0.00    +0.710 C 
ATOM     13  N   LIG    1       -3.505   3.185  -0.837  0.00  0.00    -0.740 N 
ATOM     14  H   LIG    1       -3.397   2.240  -1.028  0.00  0.00    +0.400 HD
ATOM     15  O   LIG    1       -4.662   5.056  -1.145  0.00  0.00    -0.580 OA
BRANCH  10  16
ATOM     16  C   LIG    1       -6.514   3.989  -2.791  0.00  0.00    +0.290 C 
BRANCH  16  17
ATOM     17  C   LIG    1       -7.349   3.050  -3.663  0.00  0.00    +0.000 C 
BRANCH  17  18
ATOM     18  C   LIG    1       -8.511   3.828  -4.284  0.00  0.00    +0.220 C 
BRANCH  18  19
ATOM     19  O   LIG    1       -7.997   4.818  -5.178  0.00  0.00    -0.550 OA
ATOM     20  H   LIG    1       -7.474   4.456  -5.907  0.00  0.00    +0.370 HD
ENDBRANCH  18  19
BRANCH  18  21
ATOM     21  C   LIG    1       -9.416   2.865  -5.054  0.00  0.00    +0.140 C 
BRANCH  21  23
ATOM     22  C   LIG    1      -11.477   2.758  -6.274  0.00  0.00    +0.200 C 
ATOM     23  O   LIG    1      -10.562   3.571  -5.536  0.00  0.00    -0.380 OA
ENDBRANCH  21  23
ENDBRANCH  18  21
ENDBRANCH  17  18
ENDBRANCH  16  17
ENDBRANCH  10  16
ENDBRANCH   1  13
BRANCH   1  24
ATOM     24  C   LIG    1       -3.101   3.890   1.450  0.00  0.00    -0.090 A 
ATOM     25  C   LIG    1       -3.758   2.783   1.954  0.00  0.00    +0.020 A 
ATOM     26  C   LIG    1       -4.255   2.802   3.244  0.00  0.00    +0.000 A 
ATOM     27  C   LIG    1       -4.103   3.932   4.026  0.00  0.00    +0.000 A 
ATOM     28  C   LIG    1       -3.450   5.040   3.520  0.00  0.00    +0.000 A 
ATOM     29  C   LIG    1       -2.949   5.019   2.232  0.00  0.00    +0.020 A 
ENDBRANCH   1  24
TORSDOF 9
