REMARK  Name = ZINCpk00000ebcRU.0
REMARK                            x       y       z     vdW  Elec       q    Type
REMARK                         _______ _______ _______ _____ _____    ______ ____
ROOT
ATOM      1  C   LIG    1        2.661  -6.613  -3.893  0.00  0.00    -0.120 A 
ATOM      2  C   LIG    1        1.465  -7.299  -4.110  0.00  0.00    +0.030 A 
ATOM      3  C   LIG    1        1.482  -8.542  -4.710  0.00  0.00    +0.040 A 
ATOM      4  C   LIG    1        2.680  -9.112  -5.097  0.00  0.00    +0.010 A 
ATOM      5  C   LIG    1        3.877  -8.436  -4.885  0.00  0.00    +0.140 A 
ATOM      6  C   LIG    1        3.870  -7.185  -4.289  0.00  0.00    +0.090 A 
ENDROOT
BRANCH   1   9
ATOM      7  N   LIG    1        1.476  -4.729  -2.873  0.00  0.00    -0.730 N 
ATOM      8  H   LIG    1        0.644  -5.204  -3.023  0.00  0.00    +0.400 HD
ATOM      9  C   LIG    1        2.646  -5.282  -3.250  0.00  0.00    +0.560 C 
ATOM     10  O   LIG    1        3.688  -4.686  -3.062  0.00  0.00    -0.520 OA
BRANCH   7  11
ATOM     11  C   LIG    1        1.461  -3.409  -2.236  0.00  0.00    +0.280 C 
BRANCH  11  12
ATOM     12  C   LIG    1        0.019  -3.017  -1.910  0.00  0.00    +0.190 C 
BRANCH  12  17
ATOM     13  C   LIG    1       -0.149   1.917  -1.065  0.00  0.00    +0.200 C 
ATOM     14  C   LIG    1       -0.066   0.423  -0.884  0.00  0.00    +0.170 A 
ATOM     15  N   LIG    1        0.045  -0.210   0.246  0.00  0.00    -0.380 NA
ATOM     16  O   LIG    1        0.086  -1.407   0.055  0.00  0.00    +0.080 OA
ATOM     17  C   LIG    1        0.003  -1.659  -1.255  0.00  0.00    +0.180 A 
ATOM     18  N   LIG    1       -0.099  -0.501  -1.861  0.00  0.00    -0.470 NA
ENDBRANCH  12  17
ENDBRANCH  11  12
ENDBRANCH   7  11
ENDBRANCH   1   9
BRANCH   5  19
ATOM     19  N   LIG    1        5.088  -9.017  -5.279  0.00  0.00    -0.670 N 
ATOM     20  H   LIG    1        5.121  -9.582  -6.067  0.00  0.00    +0.410 HD
ATOM     21  C   LIG    1        6.207  -8.792  -4.564  0.00  0.00    +0.510 C 
ATOM     22  O   LIG    1        6.149  -8.165  -3.527  0.00  0.00    -0.490 OA
BRANCH  21  23
ATOM     23  C   LIG    1        7.532  -9.318  -5.053  0.00  0.00    +0.170 C 
ATOM     24  C   LIG    1        7.961  -8.579  -6.345  0.00  0.00    +0.030 C 
ATOM     25  C   LIG    1        9.502  -8.763  -6.293  0.00  0.00    +0.020 C 
ATOM     26  C   LIG    1        9.786  -8.715  -4.776  0.00  0.00    +0.210 C 
ATOM     27  O   LIG    1        8.566  -9.032  -4.097  0.00  0.00    -0.350 OA
ENDBRANCH  21  23
ENDBRANCH   5  19
TORSDOF 6
