REMARK  Name = ZINCpe000027pH5b.1
REMARK                            x       y       z     vdW  Elec       q    Type
REMARK                         _______ _______ _______ _____ _____    ______ ____
ROOT
ATOM      1  C   LIG    1        0.132  -1.416   1.648  0.00  0.00    +0.200 C 
ATOM      2  C   LIG    1       -0.733  -0.221   2.052  0.00  0.00    +0.060 C 
ATOM      3  C   LIG    1       -0.190  -1.168   3.121  0.00  0.00    -0.130 C 
ATOM      4  C   LIG    1        0.939  -0.653   4.020  0.00  0.00    +0.060 C 
ATOM      5  C   LIG    1        0.320   0.015   5.254  0.00  0.00    +0.270 C 
ATOM      6  N   LIG    1       -0.649  -0.909   5.857  0.00  0.00    -0.610 N 
ATOM      7  C   LIG    1       -1.758  -1.418   5.041  0.00  0.00    +0.280 C 
ATOM      8  C   LIG    1       -0.521  -1.285   7.145  0.00  0.00    +0.500 C 
ATOM      9  O   LIG    1       -1.368  -1.984   7.659  0.00  0.00    -0.520 OA
ATOM     10  C   LIG    1       -1.182  -2.115   3.803  0.00  0.00    +0.060 C 
ENDROOT
BRANCH   8  11
ATOM     11  C   LIG    1        0.674  -0.836   7.947  0.00  0.00    +0.040 C 
ATOM     12  C   LIG    1        1.972  -1.586   7.596  0.00  0.00    +0.210 C 
ATOM     13  N   LIG    1        2.225  -1.623   9.056  0.00  0.00    -0.650 NA
ATOM     14  H   LIG    1        2.721  -0.797   9.356  0.00  0.00    +0.350 HD
ATOM     15  C   LIG    1        0.776  -1.501   9.331  0.00  0.00    +0.260 C 
BRANCH  11  16
ATOM     16  O   LIG    1        0.821   0.585   7.979  0.00  0.00    -0.530 OA
ATOM     17  H   LIG    1        0.581   1.024   7.151  0.00  0.00    +0.390 HD
ENDBRANCH  11  16
ENDBRANCH   8  11
BRANCH   1  20
ATOM     18  C   LIG    1        3.350   0.420   0.692  0.00  0.00    +0.090 C 
ATOM     19  C   LIG    1        1.992   0.112   1.267  0.00  0.00    +0.520 C 
ATOM     20  N   LIG    1        1.499  -1.141   1.199  0.00  0.00    -0.570 N 
ATOM     21  O   LIG    1        1.341   0.991   1.792  0.00  0.00    -0.530 OA
BRANCH  20  22
ATOM     22  C   LIG    1        2.331  -2.227   0.674  0.00  0.00    +0.360 C 
BRANCH  22  23
ATOM     23  C   LIG    1        2.037  -2.422  -0.791  0.00  0.00    -0.130 A 
ATOM     24  C   LIG    1        2.702  -1.774  -1.748  0.00  0.00    -0.030 A 
ATOM     25  S   LIG    1        2.086  -2.256  -3.324  0.00  0.00    +0.110 S 
ATOM     26  C   LIG    1        0.926  -3.343  -2.571  0.00  0.00    -0.040 A 
ATOM     27  C   LIG    1        1.061  -3.292  -1.245  0.00  0.00    +0.010 A 
ENDBRANCH  22  23
ENDBRANCH  20  22
ENDBRANCH   1  20
TORSDOF 5
