REMARK  Name = ZINC550000002Dz7.0
REMARK                            x       y       z     vdW  Elec       q    Type
REMARK                         _______ _______ _______ _____ _____    ______ ____
ROOT
ATOM      1  C   LIG    1        2.534   3.726  -0.002  0.00  0.00    +0.280 C 
ENDROOT
BRANCH   1   2
ATOM      2  N   LIG    1        2.398   5.189   0.007  0.00  0.00    -0.640 N 
ATOM      3  H   LIG    1        3.314   5.612   0.001  0.00  0.00    +0.440 HD
ATOM      4  H   LIG    1        1.901   5.476   0.837  0.00  0.00    +0.440 HD
ATOM      5  H   LIG    1        1.886   5.484  -0.810  0.00  0.00    +0.440 HD
ENDBRANCH   1   2
BRANCH   1   6
ATOM      6  C   LIG    1        1.145   3.085   0.008  0.00  0.00    +0.040 C 
BRANCH   6   7
ATOM      7  C   LIG    1        1.286   1.562  -0.002  0.00  0.00    +0.200 C 
BRANCH   7   8
ATOM      8  O   LIG    1       -0.011   0.963   0.007  0.00  0.00    -0.570 OA
ATOM      9  H   LIG    1        0.002  -0.004   0.002  0.00  0.00    +0.400 HD
ENDBRANCH   7   8
ENDBRANCH   6   7
ENDBRANCH   1   6
TORSDOF 4
