REMARK  Name = ZINCrg00000fSsVj.0
REMARK                            x       y       z     vdW  Elec       q    Type
REMARK                         _______ _______ _______ _____ _____    ______ ____
ROOT
ATOM      1  N   LIG    1        1.200   1.718   2.761  0.00  0.00    -0.450 N 
ATOM      2  C   LIG    1        1.696   0.362   2.493  0.00  0.00    +0.180 C 
ATOM      3  C   LIG    1        3.214   0.327   2.697  0.00  0.00    +0.300 C 
ATOM      4  N   LIG    1        3.517   0.845   4.040  0.00  0.00    -0.630 N 
ATOM      5  C   LIG    1        2.940   2.139   4.433  0.00  0.00    +0.320 C 
ATOM      6  C   LIG    1        4.302   0.152   4.889  0.00  0.00    +0.710 C 
ATOM      7  N   LIG    1        4.739  -1.077   4.550  0.00  0.00    -0.740 N 
ATOM      8  H   LIG    1        4.551  -1.433   3.668  0.00  0.00    +0.400 HD
ATOM      9  O   LIG    1        4.616   0.635   5.959  0.00  0.00    -0.580 OA
ATOM     10  C   LIG    1        1.433   2.103   4.160  0.00  0.00    +0.230 C 
ENDROOT
BRANCH   1  16
ATOM     11  C   LIG    1       -0.019   1.082   0.013  0.00  0.00    +0.340 C 
ATOM     12  N   LIG    1       -0.704   1.555   1.219  0.00  0.00    -0.490 N 
ATOM     13  C   LIG    1       -2.038   1.817   1.362  0.00  0.00    +0.370 A 
ATOM     14  N   LIG    1       -2.227   2.211   2.590  0.00  0.00    -0.280 NA
ATOM     15  N   LIG    1       -1.109   2.225   3.225  0.00  0.00    -0.320 NA
ATOM     16  C   LIG    1       -0.141   1.831   2.431  0.00  0.00    +0.360 A 
ENDBRANCH   1  16
BRANCH   7  17
ATOM     17  C   LIG    1        5.499  -1.876   5.516  0.00  0.00    +0.340 C 
BRANCH  17  18
ATOM     18  C   LIG    1        5.866  -3.199   4.894  0.00  0.00    -0.080 A 
ATOM     19  C   LIG    1        5.017  -4.282   5.024  0.00  0.00    +0.020 A 
ATOM     20  C   LIG    1        5.348  -5.497   4.451  0.00  0.00    +0.050 A 
ATOM     21  C   LIG    1        6.534  -5.633   3.757  0.00  0.00    +0.010 A 
ATOM     22  C   LIG    1        7.391  -4.549   3.629  0.00  0.00    +0.140 A 
ATOM     23  C   LIG    1        7.054  -3.330   4.201  0.00  0.00    +0.030 A 
BRANCH  22  24
ATOM     24  N   LIG    1        8.597  -4.684   2.925  0.00  0.00    -0.410 N 
ATOM     25  C   LIG    1        9.059  -5.820   2.312  0.00  0.00    +0.130 A 
ATOM     26  C   LIG    1       10.246  -5.509   1.759  0.00  0.00    +0.160 A 
ATOM     27  N   LIG    1       10.507  -4.221   2.024  0.00  0.00    -0.480 NA
ATOM     28  C   LIG    1        9.524  -3.714   2.717  0.00  0.00    +0.400 A 
ENDBRANCH  22  24
ENDBRANCH  17  18
ENDBRANCH   7  17
TORSDOF 4
