REMARK  Name = ZINCpe00000VVGoI.0
REMARK                            x       y       z     vdW  Elec       q    Type
REMARK                         _______ _______ _______ _____ _____    ______ ____
ROOT
ATOM      1  N   LIG    1        1.550  -2.081   3.304  0.00  0.00    -1.000 NA
ATOM      2  C   LIG    1        0.119  -2.256   3.016  0.00  0.00    +0.310 C 
ATOM      3  C   LIG    1       -0.138  -1.852   1.561  0.00  0.00    +0.210 C 
ATOM      4  N   LIG    1        0.380  -0.496   1.334  0.00  0.00    -0.550 NA
ATOM      5  C   LIG    1        1.836  -0.444   1.520  0.00  0.00    +0.160 C 
ATOM      6  C   LIG    1        2.174  -0.790   2.974  0.00  0.00    +0.320 C 
ENDROOT
BRANCH   1   8
ATOM      7  O   LIG    1        3.547  -2.691   4.621  0.00  0.00    -0.950 OA
ATOM      8  S   LIG    1        2.437  -3.305   3.980  0.00  0.00    +2.700 S 
ATOM      9  O   LIG    1        1.512  -4.142   4.662  0.00  0.00    -0.940 OA
BRANCH   8  10
ATOM     10  C   LIG    1        3.095  -4.265   2.658  0.00  0.00    -0.740 A 
ATOM     11  C   LIG    1        4.331  -3.954   2.111  0.00  0.00    +0.170 A 
ATOM     12  C   LIG    1        4.809  -4.737   1.072  0.00  0.00    -0.040 A 
ATOM     13  C   LIG    1        4.044  -5.795   0.619  0.00  0.00    +0.320 A 
ATOM     14  N   LIG    1        2.873  -6.062   1.162  0.00  0.00    -0.490 NA
ATOM     15  C   LIG    1        2.389  -5.342   2.155  0.00  0.00    +0.370 A 
ENDBRANCH   8  10
ENDBRANCH   1   8
BRANCH   4  16
ATOM     16  C   LIG    1        0.002  -0.004   0.002  0.00  0.00    +0.520 C 
BRANCH  16  17
ATOM     17  N   LIG    1       -0.018   1.461   0.010  0.00  0.00    -0.370 N 
ATOM     18  N   LIG    1        1.095   2.318   0.004  0.00  0.00    -0.500 N 
ATOM     19  H   LIG    1        2.029   2.057  -0.006  0.00  0.00    +0.450 HD
ATOM     20  C   LIG    1        0.607   3.586   0.015  0.00  0.00    +0.420 A 
ATOM     21  N   LIG    1       -0.699   3.535   0.027  0.00  0.00    -0.510 NA
ATOM     22  C   LIG    1       -1.109   2.255   0.019  0.00  0.00    +0.480 A 
ATOM     23  S   LIG    1       -2.736   1.724   0.022  0.00  0.00    -0.540 S 
BRANCH  20  24
ATOM     24  C   LIG    1        1.435   4.845   0.014  0.00  0.00    +0.010 C 
ATOM     25  C   LIG    1        1.013   5.969   0.962  0.00  0.00    +0.080 C 
ATOM     26  C   LIG    1        0.790   6.115  -0.545  0.00  0.00    +0.090 C 
ENDBRANCH  20  24
ENDBRANCH  16  17
ENDBRANCH   4  16
TORSDOF 5
