REMARK  Name = ZINCkj000005hpC5.0
REMARK                            x       y       z     vdW  Elec       q    Type
REMARK                         _______ _______ _______ _____ _____    ______ ____
ROOT
ATOM      1  N   LIG    1       -0.716   2.015  -1.185  0.00  0.00    -0.640 N 
ATOM      2  C   LIG    1       -0.815   3.466  -1.393  0.00  0.00    +0.300 C 
ATOM      3  C   LIG    1        0.598   4.057  -1.436  0.00  0.00    +0.010 C 
ATOM      4  C   LIG    1        1.356   3.652  -0.169  0.00  0.00    +0.060 C 
ATOM      5  C   LIG    1        1.473   2.126  -0.111  0.00  0.00    +0.000 C 
ATOM      6  C   LIG    1        2.184   1.630  -1.372  0.00  0.00    +0.240 C 
ATOM      7  N   LIG    1        2.272   0.166  -1.350  0.00  0.00    -0.380 N 
ATOM      8  C   LIG    1        0.923  -0.412  -1.382  0.00  0.00    +0.240 C 
ATOM      9  C   LIG    1        0.165  -0.006  -0.117  0.00  0.00    +0.070 C 
ATOM     10  C   LIG    1        3.030  -0.296  -2.521  0.00  0.00    +0.330 C 
ATOM     11  H   LIG    1        2.744  -0.129  -0.508  0.00  0.00    +0.420 HD
ATOM     12  C   LIG    1        0.068   1.518  -0.047  0.00  0.00    +0.270 C 
ENDROOT
BRANCH   1  17
ATOM     13  C   LIG    1       -3.308  -1.564  -4.606  0.00  0.00    +0.370 C 
ATOM     14  N   LIG    1       -2.618  -0.619  -3.725  0.00  0.00    -0.410 N 
ATOM     15  N   LIG    1       -2.925  -0.591  -2.361  0.00  0.00    -0.180 NA
ATOM     16  C   LIG    1       -2.326   0.239  -1.554  0.00  0.00    +0.260 A 
ATOM     17  C   LIG    1       -1.350   1.133  -2.044  0.00  0.00    +0.230 A 
ATOM     18  C   LIG    1       -1.037   1.125  -3.391  0.00  0.00    -0.170 A 
ATOM     19 CL   LIG    1        0.154   2.217  -4.025  0.00  0.00    -0.000 Cl
ATOM     20  C   LIG    1       -1.693   0.217  -4.236  0.00  0.00    +0.510 A 
ATOM     21  O   LIG    1       -1.430   0.188  -5.429  0.00  0.00    -0.500 OA
ENDBRANCH   1  17
TORSDOF 1
