REMARK  Name = ZINCkj000005hpC5.1
REMARK                            x       y       z     vdW  Elec       q    Type
REMARK                         _______ _______ _______ _____ _____    ______ ____
ROOT
ATOM      1  N   LIG    1       -1.534   3.573   2.425  0.00  0.00    -0.640 N 
ATOM      2  C   LIG    1       -2.996   3.438   2.362  0.00  0.00    +0.290 C 
ATOM      3  C   LIG    1       -3.477   3.916   0.989  0.00  0.00    +0.040 C 
ATOM      4  C   LIG    1       -2.728   3.151  -0.105  0.00  0.00    +0.010 C 
ATOM      5  C   LIG    1       -1.229   3.432   0.009  0.00  0.00    -0.010 C 
ATOM      6  C   LIG    1       -0.481   2.699  -1.104  0.00  0.00    +0.270 C 
ATOM      7  N   LIG    1       -0.697   1.253  -0.979  0.00  0.00    -0.390 N 
ATOM      8  C   LIG    1       -0.135   0.775   0.290  0.00  0.00    +0.260 C 
ATOM      9  C   LIG    1       -0.878   1.428   1.457  0.00  0.00    +0.050 C 
ATOM     10  C   LIG    1       -0.038   0.562  -2.096  0.00  0.00    +0.310 C 
ATOM     11  H   LIG    1       -1.687   1.058  -1.002  0.00  0.00    +0.420 HD
ATOM     12  C   LIG    1       -0.722   2.949   1.372  0.00  0.00    +0.260 C 
ENDROOT
BRANCH   1  17
ATOM     13  C   LIG    1        0.909   6.444   6.551  0.00  0.00    +0.370 C 
ATOM     14  N   LIG    1        0.262   5.678   5.483  0.00  0.00    -0.410 N 
ATOM     15  N   LIG    1        0.369   6.109   4.157  0.00  0.00    -0.190 NA
ATOM     16  C   LIG    1       -0.192   5.444   3.186  0.00  0.00    +0.260 A 
ATOM     17  C   LIG    1       -0.934   4.275   3.457  0.00  0.00    +0.210 A 
ATOM     18  C   LIG    1       -1.052   3.833   4.763  0.00  0.00    -0.130 A 
ATOM     19 CL   LIG    1       -1.953   2.394   5.128  0.00  0.00    -0.000 Cl
ATOM     20  C   LIG    1       -0.433   4.564   5.787  0.00  0.00    +0.510 A 
ATOM     21  O   LIG    1       -0.524   4.194   6.948  0.00  0.00    -0.510 OA
ENDBRANCH   1  17
TORSDOF 1
