REMARK  Name = ZINCrH000004jEWr.1
REMARK                            x       y       z     vdW  Elec       q    Type
REMARK                         _______ _______ _______ _____ _____    ______ ____
ROOT
ATOM      1  C   LIG    1        2.480   1.073  -0.015  0.00  0.00    +0.540 C 
ATOM      2  O   LIG    1        2.501  -0.146  -0.022  0.00  0.00    -0.550 OA
ENDROOT
BRANCH   1   7
ATOM      3  N   LIG    1        6.975   0.644  -0.059  0.00  0.00    -0.380 N 
ATOM      4  C   LIG    1        6.297  -0.539  -0.060  0.00  0.00    +0.350 A 
ATOM      5  C   LIG    1        4.970  -0.284  -0.046  0.00  0.00    -0.110 A 
ATOM      6  C   LIG    1        4.790   1.115  -0.037  0.00  0.00    +0.490 A 
ATOM      7  N   LIG    1        3.626   1.761  -0.023  0.00  0.00    -0.680 NA
ATOM      8  N   LIG    1        6.039   1.688  -0.051  0.00  0.00    -0.470 N 
ATOM      9  H   LIG    1        6.236   2.637  -0.053  0.00  0.00    +0.450 HD
BRANCH   3  10
ATOM     10  C   LIG    1        8.432   0.798  -0.072  0.00  0.00    +0.350 C 
BRANCH  10  11
ATOM     11  C   LIG    1        8.965   0.719   1.360  0.00  0.00    +0.160 C 
BRANCH  11  13
ATOM     12  C   LIG    1       10.950   1.040   2.710  0.00  0.00    +0.200 C 
ATOM     13  N   LIG    1       10.426   0.873   1.347  0.00  0.00    -0.540 NA
ATOM     14  C   LIG    1       11.070  -0.261   0.671  0.00  0.00    +0.190 C 
ENDBRANCH  11  13
ENDBRANCH  10  11
ENDBRANCH   3  10
ENDBRANCH   1   7
BRANCH   1  15
ATOM     15  C   LIG    1        1.185   1.791   0.000  0.00  0.00    -0.110 A 
ATOM     16  C   LIG    1       -0.013   1.076   0.008  0.00  0.00    +0.170 A 
ATOM     17  C   LIG    1       -1.216   1.751   0.017  0.00  0.00    -0.200 A 
ATOM     18  C   LIG    1       -1.236   3.134   0.031  0.00  0.00    +0.150 A 
ATOM     19  C   LIG    1       -0.052   3.849   0.023  0.00  0.00    -0.200 A 
ATOM     20  C   LIG    1        1.158   3.186   0.008  0.00  0.00    +0.180 A 
BRANCH  19  21
ATOM     21  C   LIG    1       -0.083   5.356   0.032  0.00  0.00    +0.510 C 
ATOM     22  F   LIG    1       -0.741   5.802   1.183  0.00  0.00    -0.170 F 
ATOM     23  F   LIG    1       -0.763   5.815  -1.101  0.00  0.00    -0.170 F 
ATOM     24  F   LIG    1        1.226   5.849   0.023  0.00  0.00    -0.170 F 
ENDBRANCH  19  21
BRANCH  17  25
ATOM     25  C   LIG    1       -2.511   0.980   0.019  0.00  0.00    +0.510 C 
ATOM     26  F   LIG    1       -3.254   1.314  -1.118  0.00  0.00    -0.170 F 
ATOM     27  F   LIG    1       -3.243   1.301   1.167  0.00  0.00    -0.170 F 
ATOM     28  F   LIG    1       -2.236  -0.392   0.010  0.00  0.00    -0.170 F 
ENDBRANCH  17  25
ENDBRANCH   1  15
TORSDOF 7
