REMARK  Name = ZINCvU0000000HoY.0
REMARK                            x       y       z     vdW  Elec       q    Type
REMARK                         _______ _______ _______ _____ _____    ______ ____
ROOT
ATOM      1  C   LIG    1        0.012   0.008   0.189  0.00  0.00    +0.460 A 
ATOM      2  N   LIG    1       -0.015   1.316   0.017  0.00  0.00    -0.480 NA
ATOM      3  C   LIG    1        1.117   1.998  -0.185  0.00  0.00    +0.160 A 
ATOM      4  C   LIG    1        1.124   3.388  -0.371  0.00  0.00    +0.050 A 
ATOM      5  C   LIG    1        2.307   4.034  -0.574  0.00  0.00    +0.060 A 
ATOM      6  C   LIG    1        3.511   3.336  -0.599  0.00  0.00    +0.030 A 
ATOM      7  C   LIG    1        3.542   1.983  -0.420  0.00  0.00    +0.060 A 
ATOM      8  C   LIG    1        2.346   1.288  -0.211  0.00  0.00    -0.140 A 
ATOM      9  C   LIG    1        2.316  -0.117  -0.021  0.00  0.00    +0.270 A 
ATOM     10  N   LIG    1        1.141  -0.698   0.172  0.00  0.00    -0.480 NA
ENDROOT
BRANCH   9  11
ATOM     11  C   LIG    1        3.564  -0.913  -0.037  0.00  0.00    -0.070 A 
ATOM     12  C   LIG    1        3.614  -2.122  -0.732  0.00  0.00    +0.070 A 
ATOM     13  C   LIG    1        4.782  -2.857  -0.747  0.00  0.00    +0.010 A 
ATOM     14  C   LIG    1        5.898  -2.402  -0.067  0.00  0.00    -0.060 A 
ATOM     15  C   LIG    1        5.853  -1.207   0.627  0.00  0.00    +0.010 A 
ATOM     16  C   LIG    1        7.168  -3.213  -0.083  0.00  0.00    +0.100 C 
ATOM     17  C   LIG    1        4.693  -0.460   0.646  0.00  0.00    +0.040 A 
ENDBRANCH   9  11
BRANCH   1  19
ATOM     18  N   LIG    1       -2.241  -0.022   0.412  0.00  0.00    -0.150 NA
ATOM     19  N   LIG    1       -1.175  -0.654   0.392  0.00  0.00    -0.180 NA
BRANCH  18  20
ATOM     20  C   LIG    1       -3.507  -0.728   0.630  0.00  0.00    +0.270 C 
BRANCH  20  24
ATOM     21  C   LIG    1       -5.398   0.790   4.149  0.00  0.00    +0.230 A 
ATOM     22  C   LIG    1       -5.663   1.366   2.913  0.00  0.00    -0.080 A 
ATOM     23  C   LIG    1       -5.050   0.873   1.778  0.00  0.00    +0.090 A 
ATOM     24  C   LIG    1       -4.174  -0.193   1.871  0.00  0.00    -0.150 A 
ATOM     25  C   LIG    1       -3.912  -0.772   3.099  0.00  0.00    +0.070 A 
ATOM     26  C   LIG    1       -4.517  -0.280   4.239  0.00  0.00    -0.080 A 
BRANCH  21  27
ATOM     27  N   LIG    1       -6.017   1.286   5.299  0.00  0.00    -0.630 N 
BRANCH  27  29
ATOM     28  C   LIG    1       -4.543   1.384   7.248  0.00  0.00    +0.010 C 
ATOM     29  C   LIG    1       -5.736   0.677   6.602  0.00  0.00    +0.270 C 
ENDBRANCH  27  29
BRANCH  27  30
ATOM     30  C   LIG    1       -6.946   2.414   5.202  0.00  0.00    +0.270 C 
ATOM     31  C   LIG    1       -8.365   1.889   4.976  0.00  0.00    +0.010 C 
ENDBRANCH  27  30
ENDBRANCH  21  27
ENDBRANCH  20  24
ENDBRANCH  18  20
ENDBRANCH   1  19
TORSDOF 7
