REMARK  Name = ZINCqH0000037nr7.0
REMARK                            x       y       z     vdW  Elec       q    Type
REMARK                         _______ _______ _______ _____ _____    ______ ____
ROOT
ATOM      1  C   LIG    1       -2.369  -5.991  -3.691  0.00  0.00    +0.080 C 
ATOM      2  C   LIG    1       -1.078  -5.748  -2.906  0.00  0.00    +0.030 C 
ATOM      3  C   LIG    1       -0.278  -4.645  -3.582  0.00  0.00    +0.030 C 
ATOM      4  C   LIG    1        1.124  -4.467  -3.081  0.00  0.00    +0.300 C 
ATOM      5  N   LIG    1        1.146  -3.964  -1.698  0.00  0.00    -0.560 N 
ATOM      6  C   LIG    1        1.151  -4.896  -0.652  0.00  0.00    +0.140 A 
ATOM      7  C   LIG    1        2.311  -5.093   0.087  0.00  0.00    +0.020 A 
ATOM      8  C   LIG    1        2.333  -6.048   1.088  0.00  0.00    +0.050 A 
ATOM      9  C   LIG    1        1.213  -6.813   1.358  0.00  0.00    +0.030 A 
ATOM     10  C   LIG    1        0.046  -6.610   0.639  0.00  0.00    +0.080 A 
ATOM     11  C   LIG    1        0.020  -5.639  -0.343  0.00  0.00    -0.100 A 
ATOM     12  C   LIG    1        1.155  -2.640  -1.445  0.00  0.00    +0.520 C 
ATOM     13  O   LIG    1        1.151  -1.847  -2.362  0.00  0.00    -0.510 OA
ATOM     14  S   LIG    1       -1.490  -5.268  -1.204  0.00  0.00    -0.150 S 
ENDROOT
BRANCH  12  15
ATOM     15  C   LIG    1        1.171  -2.146  -0.021  0.00  0.00    +0.340 C 
BRANCH  15  16
ATOM     16  N   LIG    1        1.179  -0.681  -0.013  0.00  0.00    -0.480 N 
ATOM     17  C   LIG    1        0.002  -0.004   0.002  0.00  0.00    +0.390 A 
ATOM     18  C   LIG    1       -0.016   1.349   0.009  0.00  0.00    -0.290 A 
ATOM     19  C   LIG    1        1.189   2.066   0.002  0.00  0.00    +0.160 A 
ATOM     20  C   LIG    1        2.370   1.383  -0.014  0.00  0.00    -0.060 A 
ATOM     21  C   LIG    1        2.353  -0.022  -0.021  0.00  0.00    +0.520 A 
ATOM     22  O   LIG    1        3.402  -0.645  -0.034  0.00  0.00    -0.530 OA
BRANCH  18  23
ATOM     23  C   LIG    1       -1.331   2.086   0.020  0.00  0.00    +0.530 C 
ATOM     24  F   LIG    1       -2.325   1.273  -0.537  0.00  0.00    -0.180 F 
ATOM     25  F   LIG    1       -1.214   3.260  -0.731  0.00  0.00    -0.170 F 
ATOM     26  F   LIG    1       -1.676   2.406   1.337  0.00  0.00    -0.170 F 
ENDBRANCH  18  23
ENDBRANCH  15  16
ENDBRANCH  12  15
TORSDOF 3
