REMARK  Name = ZINCpe000000V0CG.0
REMARK                            x       y       z     vdW  Elec       q    Type
REMARK                         _______ _______ _______ _____ _____    ______ ____
ROOT
ATOM      1  C   LIG    1       -0.014   1.212   0.009  0.00  0.00    +0.590 C 
ATOM      2  N   LIG    1        1.044   1.765   0.633  0.00  0.00    -0.610 N 
ATOM      3  C   LIG    1        0.939   3.086   1.270  0.00  0.00    +0.290 C 
ATOM      4  C   LIG    1        1.463   2.970   2.710  0.00  0.00    +0.200 C 
ATOM      5  N   LIG    1        2.816   2.398   2.689  0.00  0.00    -0.480 N 
ATOM      6  C   LIG    1        2.808   1.032   2.148  0.00  0.00    +0.210 C 
ATOM      7  C   LIG    1        2.337   1.066   0.691  0.00  0.00    +0.290 C 
ATOM      8  O   LIG    1        0.109   0.151  -0.573  0.00  0.00    -0.520 OA
ENDROOT
BRANCH   5   9
ATOM      9  C   LIG    1        3.390   2.429   3.954  0.00  0.00    +0.310 A 
ATOM     10  C   LIG    1        3.496   3.638   4.633  0.00  0.00    -0.050 A 
ATOM     11  C   LIG    1        4.066   3.655   5.894  0.00  0.00    -0.020 A 
ATOM     12  C   LIG    1        4.522   2.458   6.430  0.00  0.00    -0.060 A 
ATOM     13  C   LIG    1        4.389   1.295   5.698  0.00  0.00    +0.290 A 
ATOM     14  C   LIG    1        4.195   4.943   6.665  0.00  0.00    +0.100 C 
ATOM     15  N   LIG    1        3.837   1.308   4.500  0.00  0.00    -0.520 NA
ENDBRANCH   5   9
BRANCH   1  18
ATOM     16  C   LIG    1       -3.530   2.286   0.133  0.00  0.00    -0.570 A 
ATOM     17  C   LIG    1       -2.645   1.278   0.178  0.00  0.00    +0.150 A 
ATOM     18  C   LIG    1       -1.320   1.896   0.025  0.00  0.00    -0.250 A 
ATOM     19  C   LIG    1       -1.550   3.235  -0.091  0.00  0.00    +0.290 A 
ATOM     20  O   LIG    1       -2.869   3.443  -0.030  0.00  0.00    -0.120 OA
BRANCH  16  21
ATOM     21  S   LIG    1       -5.278   2.117   0.268  0.00  0.00    +2.720 S 
ATOM     22  O   LIG    1       -5.584   0.786  -0.123  0.00  0.00    -0.930 OA
ATOM     23  O   LIG    1       -5.841   3.261  -0.361  0.00  0.00    -0.930 OA
BRANCH  21  25
ATOM     24  C   LIG    1       -5.427   3.487   2.595  0.00  0.00    +0.300 C 
ATOM     25  N   LIG    1       -5.660   2.232   1.875  0.00  0.00    -1.110 NA
ATOM     26  H   LIG    1       -6.037   1.469   2.340  0.00  0.00    +0.420 HD
ENDBRANCH  21  25
ENDBRANCH  16  21
ENDBRANCH   1  18
TORSDOF 4
