REMARK  Name = ZINCpe000000WWz4.0
REMARK                            x       y       z     vdW  Elec       q    Type
REMARK                         _______ _______ _______ _____ _____    ______ ____
ROOT
ATOM      1  C   LIG    1        1.725   2.210  -1.439  0.00  0.00    +0.080 C 
ATOM      2  C   LIG    1        1.283   1.968   0.006  0.00  0.00    +0.250 C 
ATOM      3  C   LIG    1       -0.020   1.210   0.014  0.00  0.00    +0.520 C 
ATOM      4  N   LIG    1       -1.198   1.864   0.018  0.00  0.00    -0.650 N 
ATOM      5  H   LIG    1       -2.026   1.360  -0.016  0.00  0.00    +0.420 HD
ATOM      6  C   LIG    1       -1.239   3.261   0.076  0.00  0.00    +0.130 A 
ATOM      7  C   LIG    1       -2.411   3.946  -0.199  0.00  0.00    +0.010 A 
ATOM      8  C   LIG    1       -2.434   5.328  -0.131  0.00  0.00    +0.030 A 
ATOM      9  C   LIG    1       -1.292   6.029   0.211  0.00  0.00    +0.010 A 
ATOM     10  C   LIG    1       -0.116   5.353   0.485  0.00  0.00    +0.060 A 
ATOM     11  C   LIG    1       -0.087   3.972   0.417  0.00  0.00    +0.110 A 
ATOM     12  O   LIG    1       -0.008  -0.003   0.012  0.00  0.00    -0.510 OA
ATOM     13  N   LIG    1        1.092   3.258   0.684  0.00  0.00    -0.550 N 
ATOM     14  C   LIG    1        2.019   3.740   1.536  0.00  0.00    +0.510 C 
ATOM     15  O   LIG    1        1.882   4.844   2.020  0.00  0.00    -0.490 OA
ENDROOT
BRANCH  14  16
ATOM     16  C   LIG    1        3.225   2.907   1.887  0.00  0.00    +0.420 C 
BRANCH  16  17
ATOM     17  N   LIG    1        4.013   3.597   2.912  0.00  0.00    -0.420 N 
ATOM     18  N   LIG    1        5.057   4.503   2.683  0.00  0.00    -0.280 NA
ATOM     19  C   LIG    1        5.506   4.903   3.850  0.00  0.00    +0.300 A 
ATOM     20  C   LIG    1        6.539   5.806   4.211  0.00  0.00    +0.040 A 
ATOM     21  C   LIG    1        6.796   6.030   5.522  0.00  0.00    +0.110 A 
ATOM     22  C   LIG    1        6.039   5.367   6.510  0.00  0.00    -0.020 A 
ATOM     23  C   LIG    1        5.061   4.511   6.163  0.00  0.00    +0.300 A 
ATOM     24  N   LIG    1        4.780   4.266   4.839  0.00  0.00    -0.480 N 
ATOM     25  C   LIG    1        3.868   3.469   4.247  0.00  0.00    +0.650 A 
ATOM     26  O   LIG    1        3.058   2.759   4.817  0.00  0.00    -0.530 OA
ENDBRANCH  16  17
ENDBRANCH  14  16
TORSDOF 2
