REMARK  Name = ZINCtV00000tRQAg.0
REMARK                            x       y       z     vdW  Elec       q    Type
REMARK                         _______ _______ _______ _____ _____    ______ ____
ROOT
ATOM      1  C   LIG    1        3.882   0.452   3.125  0.00  0.00    -0.100 C 
ATOM      2  C   LIG    1        4.127   1.653   2.537  0.00  0.00    +0.160 C 
ATOM      3  N   LIG    1        3.171   2.238   1.738  0.00  0.00    -0.640 N 
ATOM      4  H   LIG    1        3.213   3.189   1.555  0.00  0.00    +0.420 HD
ATOM      5  C   LIG    1        2.162   1.487   1.199  0.00  0.00    +0.220 C 
ATOM      6  C   LIG    1        1.838   0.288   1.727  0.00  0.00    -0.260 C 
ATOM      7  C   LIG    1        0.802  -0.489   1.180  0.00  0.00    +0.400 C 
ATOM      8  C   LIG    1        0.002  -0.004   0.002  0.00  0.00    +0.030 C 
ATOM      9  C   LIG    1       -0.019   1.528   0.010  0.00  0.00    +0.060 C 
ATOM     10  O   LIG    1        0.548  -1.573   1.668  0.00  0.00    -0.450 OA
ATOM     11  C   LIG    1        1.426   2.032  -0.001  0.00  0.00    +0.090 C 
ATOM     12  C   LIG    1        2.574  -0.256   2.926  0.00  0.00    +0.190 C 
ENDROOT
BRANCH  12  13
ATOM     13  C   LIG    1        1.722  -0.072   4.155  0.00  0.00    -0.050 A 
ATOM     14  C   LIG    1        1.333   1.196   4.543  0.00  0.00    +0.040 A 
ATOM     15  C   LIG    1        0.550   1.366   5.670  0.00  0.00    +0.030 A 
ATOM     16  C   LIG    1        0.156   0.267   6.410  0.00  0.00    +0.040 A 
ATOM     17  C   LIG    1        0.544  -1.003   6.023  0.00  0.00    -0.030 A 
ATOM     18 CL   LIG    1        0.049  -2.383   6.952  0.00  0.00    -0.050 Cl
ATOM     19  C   LIG    1        1.323  -1.173   4.891  0.00  0.00    -0.010 A 
ATOM     20 CL   LIG    1        1.806  -2.767   4.401  0.00  0.00    -0.030 Cl
ENDBRANCH  12  13
BRANCH   1  22
ATOM     21  N   LIG    1        5.688  -0.625   4.599  0.00  0.00    -0.400 NA
ATOM     22  C   LIG    1        4.889  -0.148   3.947  0.00  0.00    +0.250 C 
ENDBRANCH   1  22
BRANCH   2  23
ATOM     23  S   LIG    1        5.669   2.464   2.800  0.00  0.00    -0.030 S 
BRANCH  23  24
ATOM     24  C   LIG    1        5.414   3.954   1.806  0.00  0.00    +0.120 C 
BRANCH  24  25
ATOM     25  C   LIG    1        6.642   4.825   1.883  0.00  0.00    -0.090 A 
ATOM     26  C   LIG    1        6.745   5.788   2.869  0.00  0.00    +0.030 A 
ATOM     27  C   LIG    1        7.873   6.584   2.943  0.00  0.00    +0.010 A 
ATOM     28  C   LIG    1        8.893   6.423   2.024  0.00  0.00    +0.020 A 
ATOM     29  C   LIG    1        8.787   5.465   1.034  0.00  0.00    +0.010 A 
ATOM     30  C   LIG    1        7.662   4.666   0.963  0.00  0.00    +0.030 A 
ENDBRANCH  24  25
ENDBRANCH  23  24
ENDBRANCH   2  23
TORSDOF 5
