REMARK  Name = ZINCrg000000oV4w.0
REMARK                            x       y       z     vdW  Elec       q    Type
REMARK                         _______ _______ _______ _____ _____    ______ ____
ROOT
ATOM      1  C   LIG    1        3.562   2.975  -1.802  0.00  0.00    +0.510 C 
ATOM      2  N   LIG    1        2.991   1.814  -1.423  0.00  0.00    -0.720 N 
ATOM      3  H   LIG    1        2.925   1.078  -2.051  0.00  0.00    +0.400 HD
ATOM      4  O   LIG    1        3.644   3.895  -1.016  0.00  0.00    -0.490 OA
ENDROOT
BRANCH   2   5
ATOM      5  C   LIG    1        2.471   1.664  -0.061  0.00  0.00    +0.260 C 
ATOM      6  C   LIG    1        2.463   0.181   0.319  0.00  0.00    +0.040 C 
ATOM      7  C   LIG    1        1.359  -0.518  -0.482  0.00  0.00    +0.030 C 
ATOM      8  C   LIG    1        0.002  -0.004   0.002  0.00  0.00    +0.260 C 
ATOM      9  N   LIG    1       -0.018   1.453   0.010  0.00  0.00    -0.560 N 
ATOM     10  C   LIG    1        1.076   2.216   0.004  0.00  0.00    +0.510 C 
ATOM     11  O   LIG    1        0.937   3.420   0.053  0.00  0.00    -0.510 OA
BRANCH   9  12
ATOM     12  C   LIG    1       -1.263   2.092   0.019  0.00  0.00    +0.140 A 
ATOM     13  C   LIG    1       -1.879   2.398   1.225  0.00  0.00    +0.030 A 
ATOM     14  C   LIG    1       -3.105   3.034   1.231  0.00  0.00    +0.030 A 
ATOM     15  C   LIG    1       -3.725   3.356   0.038  0.00  0.00    +0.040 A 
ATOM     16  C   LIG    1       -3.118   3.048  -1.166  0.00  0.00    +0.030 A 
ATOM     17  C   LIG    1       -1.888   2.417  -1.179  0.00  0.00    -0.030 A 
ATOM     18 CL   LIG    1       -1.126   2.031  -2.690  0.00  0.00    -0.060 Cl
ENDBRANCH   9  12
ENDBRANCH   2   5
BRANCH   1  19
ATOM     19  C   LIG    1        4.096   3.130  -3.202  0.00  0.00    +0.210 C 
BRANCH  19  21
ATOM     20  C   LIG    1        3.616   5.502  -3.275  0.00  0.00    +0.220 C 
ATOM     21  N   LIG    1        4.663   4.475  -3.364  0.00  0.00    -0.510 NA
BRANCH  21  22
ATOM     22  C   LIG    1        5.403   4.586  -4.629  0.00  0.00    +0.150 C 
ATOM     23  C   LIG    1        6.000   5.997  -4.768  0.00  0.00    +0.080 C 
ATOM     24  C   LIG    1        7.037   5.985  -5.909  0.00  0.00    -0.310 C 
ATOM     25  S   LIG    1        7.665   4.268  -5.964  0.00  0.00    +2.390 S 
ATOM     26  O   LIG    1        9.020   4.249  -5.537  0.00  0.00    -0.930 OA
ATOM     27  O   LIG    1        7.305   3.674  -7.203  0.00  0.00    -0.930 OA
ATOM     28  C   LIG    1        6.595   3.596  -4.635  0.00  0.00    -0.300 C 
ENDBRANCH  21  22
ENDBRANCH  19  21
ENDBRANCH   1  19
TORSDOF 5
