REMARK  Name = ZINCvU0000000Cd0.0
REMARK                            x       y       z     vdW  Elec       q    Type
REMARK                         _______ _______ _______ _____ _____    ______ ____
ROOT
ATOM      1  C   LIG    1        3.491   3.219   0.366  0.00  0.00    +0.210 C 
ENDROOT
BRANCH   1   2
ATOM      2  N   LIG    1        3.487   1.802   0.755  0.00  0.00    -0.500 NA
ATOM      3  C   LIG    1        4.792   1.179   0.491  0.00  0.00    +0.240 C 
ATOM      4  C   LIG    1        5.192   1.451  -0.964  0.00  0.00    +0.080 C 
ATOM      5  C   LIG    1        4.012   1.104  -1.848  0.00  0.00    -0.180 A 
ATOM      6  C   LIG    1        2.755   0.931  -1.392  0.00  0.00    -0.130 A 
ATOM      7  C   LIG    1        1.839   0.617  -2.389  0.00  0.00    +0.030 A 
ATOM      8  C   LIG    1        2.334   0.536  -3.622  0.00  0.00    -0.040 A 
ATOM      9  S   LIG    1        4.060   0.868  -3.587  0.00  0.00    +0.100 S 
ATOM     10  C   LIG    1        2.403   1.075   0.082  0.00  0.00    +0.300 C 
BRANCH  10  11
ATOM     11  C   LIG    1        1.115   1.844   0.221  0.00  0.00    -0.080 A 
ATOM     12  C   LIG    1        0.185   1.468   1.173  0.00  0.00    +0.030 A 
ATOM     13  C   LIG    1       -1.000   2.170   1.297  0.00  0.00    +0.000 A 
ATOM     14  C   LIG    1       -1.249   3.255   0.477  0.00  0.00    +0.010 A 
ATOM     15  C   LIG    1       -0.320   3.631  -0.475  0.00  0.00    +0.000 A 
ATOM     16  C   LIG    1        0.863   2.925  -0.602  0.00  0.00    +0.010 A 
ENDBRANCH  10  11
ENDBRANCH   1   2
BRANCH   1  18
ATOM     17  N   LIG    1        4.601   5.308   1.087  0.00  0.00    -0.600 N 
ATOM     18  C   LIG    1        4.434   3.982   1.260  0.00  0.00    +0.520 C 
ATOM     19  O   LIG    1        5.044   3.403   2.134  0.00  0.00    -0.520 OA
ATOM     20  C   LIG    1        3.866   6.008   0.031  0.00  0.00    +0.290 C 
BRANCH  17  22
ATOM     21  C   LIG    1        4.745   7.139   2.703  0.00  0.00    +0.070 C 
ATOM     22  C   LIG    1        5.519   6.051   1.956  0.00  0.00    +0.330 C 
BRANCH  22  23
ATOM     23  C   LIG    1        6.599   6.686   1.119  0.00  0.00    +0.080 A 
ATOM     24  N   LIG    1        6.387   7.307   0.021  0.00  0.00    -0.460 NA
ATOM     25  C   LIG    1        7.449   7.830  -0.621  0.00  0.00    +0.080 A 
ATOM     26  C   LIG    1        7.504   8.556  -1.828  0.00  0.00    +0.070 A 
ATOM     27  C   LIG    1        8.698   8.996  -2.314  0.00  0.00    +0.030 A 
ATOM     28  C   LIG    1        9.880   8.741  -1.634  0.00  0.00    +0.040 A 
ATOM     29  C   LIG    1        9.857   8.034  -0.452  0.00  0.00    +0.060 A 
ATOM     30  C   LIG    1        8.645   7.575   0.060  0.00  0.00    -0.180 A 
ATOM     31  S   LIG    1        8.259   6.661   1.514  0.00  0.00    +0.120 S 
ENDBRANCH  22  23
ENDBRANCH  17  22
ENDBRANCH   1  18
TORSDOF 5
