REMARK  Name = ZINCvU0000000IhL.0
REMARK                            x       y       z     vdW  Elec       q    Type
REMARK                         _______ _______ _______ _____ _____    ______ ____
ROOT
ATOM      1  O   LIG    1       -1.147  -2.753  -5.038  0.00  0.00    -0.500 OA
ATOM      2  C   LIG    1       -0.929  -3.868  -4.611  0.00  0.00    +0.530 C 
ATOM      3  N   LIG    1       -1.257  -4.947  -5.348  0.00  0.00    -0.660 N 
ATOM      4  H   LIG    1       -1.012  -5.835  -5.043  0.00  0.00    +0.420 HD
ENDROOT
BRANCH   3   5
ATOM      5  C   LIG    1       -1.952  -4.788  -6.550  0.00  0.00    +0.160 A 
ATOM      6  C   LIG    1       -2.742  -3.667  -6.754  0.00  0.00    +0.020 A 
ATOM      7  C   LIG    1       -3.424  -3.508  -7.945  0.00  0.00    +0.040 A 
ATOM      8  C   LIG    1       -3.333  -4.471  -8.935  0.00  0.00    +0.000 A 
ATOM      9  C   LIG    1       -2.555  -5.595  -8.744  0.00  0.00    +0.040 A 
ATOM     10  C   LIG    1       -1.859  -5.763  -7.550  0.00  0.00    -0.080 A 
BRANCH  10  11
ATOM     11  C   LIG    1       -1.022  -6.969  -7.339  0.00  0.00    -0.050 A 
ATOM     12  C   LIG    1        0.295  -6.839  -6.902  0.00  0.00    +0.000 A 
ATOM     13  C   LIG    1        1.067  -7.965  -6.702  0.00  0.00    +0.010 A 
ATOM     14  C   LIG    1        0.540  -9.221  -6.945  0.00  0.00    +0.000 A 
ATOM     15  C   LIG    1       -0.765  -9.356  -7.384  0.00  0.00    +0.010 A 
ATOM     16  C   LIG    1       -1.548  -8.237  -7.582  0.00  0.00    +0.030 A 
ENDBRANCH  10  11
ENDBRANCH   3   5
BRANCH   2  17
ATOM     17  C   LIG    1       -0.290  -4.045  -3.258  0.00  0.00    +0.110 C 
BRANCH  17  18
ATOM     18  S   LIG    1        0.028  -2.421  -2.524  0.00  0.00    +0.100 S 
BRANCH  18  19
ATOM     19  C   LIG    1        0.753  -2.913  -0.996  0.00  0.00    +0.140 A 
ATOM     20  N   LIG    1        0.962  -4.144  -0.591  0.00  0.00    -0.290 NA
ATOM     21  N   LIG    1        1.508  -4.136   0.573  0.00  0.00    -0.280 NA
ATOM     22  C   LIG    1        1.685  -2.910   0.977  0.00  0.00    +0.230 A 
ATOM     23  N   LIG    1        1.205  -2.084  -0.005  0.00  0.00    -0.410 N 
BRANCH  23  24
ATOM     24  C   LIG    1        1.187  -0.682   0.000  0.00  0.00    +0.100 A 
ATOM     25  C   LIG    1       -0.023  -0.002   0.006  0.00  0.00    +0.030 A 
ATOM     26  C   LIG    1       -0.038   1.379   0.012  0.00  0.00    +0.040 A 
ATOM     27  C   LIG    1        1.151   2.085   0.013  0.00  0.00    +0.030 A 
ATOM     28  C   LIG    1        2.359   1.410   0.007  0.00  0.00    +0.040 A 
ATOM     29  C   LIG    1        2.380   0.029   0.001  0.00  0.00    +0.030 A 
ENDBRANCH  23  24
BRANCH  22  30
ATOM     30  C   LIG    1        2.300  -2.480   2.284  0.00  0.00    +0.040 C 
ATOM     31  C   LIG    1        2.951  -3.562   3.148  0.00  0.00    +0.080 C 
ATOM     32  C   LIG    1        1.617  -2.944   3.572  0.00  0.00    +0.060 C 
ENDBRANCH  22  30
ENDBRANCH  18  19
ENDBRANCH  17  18
ENDBRANCH   2  17
TORSDOF 7
