REMARK  Name = ZINCqH0000051y6b.0
REMARK                            x       y       z     vdW  Elec       q    Type
REMARK                         _______ _______ _______ _____ _____    ______ ____
ROOT
ATOM      1  C   LIG    1       -4.695  -0.519   1.497  0.00  0.00    +0.320 C 
ENDROOT
BRANCH   1   2
ATOM      2  C   LIG    1       -5.697  -1.599   1.813  0.00  0.00    -0.120 A 
ATOM      3  C   LIG    1       -5.340  -2.928   1.697  0.00  0.00    +0.170 A 
ATOM      4  C   LIG    1       -6.260  -3.919   1.987  0.00  0.00    -0.070 A 
ATOM      5  C   LIG    1       -7.537  -3.583   2.393  0.00  0.00    +0.150 A 
ATOM      6  C   LIG    1       -7.900  -2.254   2.510  0.00  0.00    -0.200 A 
ATOM      7  C   LIG    1       -9.298  -1.898   2.950  0.00  0.00    +0.320 C 
ATOM      8  O   LIG    1       -9.331  -0.526   3.355  0.00  0.00    -0.380 OA
ATOM      9  C   LIG    1       -8.717   0.354   2.406  0.00  0.00    +0.460 C 
ATOM     10  O   LIG    1       -7.321   0.053   2.341  0.00  0.00    -0.320 OA
ATOM     11  C   LIG    1       -6.978  -1.258   2.228  0.00  0.00    +0.200 A 
BRANCH   4  12
ATOM     12  N   LIG    1       -5.875  -5.343   1.863  0.00  0.00    +0.030 N 
ATOM     13  O   LIG    1       -6.684  -6.217   2.118  0.00  0.00    -0.160 OA
ATOM     14  O   LIG    1       -4.749  -5.641   1.505  0.00  0.00    -0.160 OA
ENDBRANCH   4  12
ENDBRANCH   1   2
BRANCH   1  15
ATOM     15  O   LIG    1       -3.439  -1.127   1.095  0.00  0.00    -0.360 OA
BRANCH  15  17
ATOM     16  O   LIG    1       -2.596   0.911   0.831  0.00  0.00    -0.490 OA
ATOM     17  C   LIG    1       -2.430  -0.292   0.776  0.00  0.00    +0.530 C 
BRANCH  17  18
ATOM     18  C   LIG    1       -1.129  -0.837   0.360  0.00  0.00    -0.150 A 
ATOM     19  C   LIG    1       -0.873  -2.167   0.277  0.00  0.00    -0.010 A 
ATOM     20  S   LIG    1        0.728  -2.444  -0.233  0.00  0.00    +0.210 S 
ATOM     21  C   LIG    1        1.077  -0.727  -0.341  0.00  0.00    -0.210 A 
ATOM     22  C   LIG    1        2.407  -0.134  -0.763  0.00  0.00    +0.110 C 
ATOM     23  C   LIG    1        2.195   1.338  -1.130  0.00  0.00    +0.020 C 
ATOM     24  C   LIG    1        1.424   2.028  -0.001  0.00  0.00    +0.020 C 
ATOM     25  C   LIG    1       -0.018   1.516   0.010  0.00  0.00    +0.110 C 
ATOM     26  C   LIG    1        0.002  -0.004   0.002  0.00  0.00    -0.050 A 
ENDBRANCH  17  18
ENDBRANCH  15  17
ENDBRANCH   1  15
TORSDOF 5
