REMARK  Name = ZINCnE000001F2fM.0
REMARK                            x       y       z     vdW  Elec       q    Type
REMARK                         _______ _______ _______ _____ _____    ______ ____
ROOT
ATOM      1  N   LIG    1       -1.266  -2.111  -0.099  0.00  0.00    -0.600 N 
ATOM      2  C   LIG    1       -1.301  -0.809   0.247  0.00  0.00    +0.530 C 
ATOM      3  O   LIG    1       -2.365  -0.233   0.333  0.00  0.00    -0.520 OA
ENDROOT
BRANCH   2   4
ATOM      4  C   LIG    1       -0.030  -0.076   0.523  0.00  0.00    +0.440 C 
ATOM      5  N   LIG    1       -0.055   1.252   0.755  0.00  0.00    -0.610 NA
ATOM      6  O   LIG    1        1.026  -0.675   0.539  0.00  0.00    -0.570 OA
BRANCH   5   7
ATOM      7  C   LIG    1        1.130   1.936   1.013  0.00  0.00    +0.150 A 
ATOM      8  C   LIG    1        1.288   3.263   1.266  0.00  0.00    +0.030 A 
ATOM      9  N   LIG    1        2.522   3.653   1.479  0.00  0.00    -0.210 NA
ATOM     10  N   LIG    1        3.462   2.783   1.434  0.00  0.00    -0.320 NA
ATOM     11  S   LIG    1        2.726   1.291   1.091  0.00  0.00    +0.130 S 
ENDBRANCH   5   7
ENDBRANCH   2   4
BRANCH   1  12
ATOM     12  C   LIG    1       -2.504  -2.808  -0.458  0.00  0.00    +0.270 C 
BRANCH  12  13
ATOM     13  C   LIG    1       -2.743  -2.679  -1.964  0.00  0.00    +0.000 C 
BRANCH  13  14
ATOM     14  C   LIG    1       -4.036  -3.405  -2.339  0.00  0.00    +0.000 C 
BRANCH  14  15
ATOM     15  C   LIG    1       -4.275  -3.276  -3.845  0.00  0.00    +0.000 C 
BRANCH  15  17
ATOM     16  C   LIG    1       -5.807  -3.874  -5.726  0.00  0.00    +0.000 C 
ATOM     17  C   LIG    1       -5.568  -4.003  -4.220  0.00  0.00    +0.000 C 
ENDBRANCH  15  17
ENDBRANCH  14  15
ENDBRANCH  13  14
ENDBRANCH  12  13
ENDBRANCH   1  12
BRANCH   1  18
ATOM     18  C   LIG    1        0.010  -2.831  -0.115  0.00  0.00    +0.280 C 
BRANCH  18  19
ATOM     19  C   LIG    1        0.345  -3.307   1.300  0.00  0.00    +0.000 C 
BRANCH  19  20
ATOM     20  C   LIG    1        1.678  -4.058   1.283  0.00  0.00    +0.010 C 
BRANCH  20  21
ATOM     21  C   LIG    1        2.013  -4.535   2.698  0.00  0.00    +0.000 C 
BRANCH  21  22
ATOM     22  C   LIG    1        3.346  -5.286   2.681  0.00  0.00    +0.000 C 
ATOM     23  C   LIG    1        3.681  -5.762   4.095  0.00  0.00    +0.000 C 
ENDBRANCH  21  22
ENDBRANCH  20  21
ENDBRANCH  19  20
ENDBRANCH  18  19
ENDBRANCH   1  18
TORSDOF 12
