REMARK  Name = ZINCpk00000kiHJH.0
REMARK                            x       y       z     vdW  Elec       q    Type
REMARK                         _______ _______ _______ _____ _____    ______ ____
ROOT
ATOM      1  C   LIG    1        2.512   0.854   0.039  0.00  0.00    +0.540 C 
ATOM      2  N   LIG    1        3.651   1.575   0.053  0.00  0.00    -0.610 N 
ATOM      3  C   LIG    1        4.003   2.999  -0.049  0.00  0.00    +0.340 C 
ATOM      4  C   LIG    1        5.267   2.687   0.769  0.00  0.00    +0.120 C 
ATOM      5  C   LIG    1        5.087   1.284   0.172  0.00  0.00    +0.280 C 
ATOM      6  O   LIG    1        2.558  -0.354   0.143  0.00  0.00    -0.510 OA
ENDROOT
BRANCH   4   7
ATOM      7  C   LIG    1        6.505   3.405   0.297  0.00  0.00    -0.100 A 
ATOM      8  C   LIG    1        7.051   3.103  -0.936  0.00  0.00    +0.020 A 
ATOM      9  C   LIG    1        8.183   3.766  -1.372  0.00  0.00    +0.010 A 
ATOM     10  C   LIG    1        8.775   4.723  -0.570  0.00  0.00    +0.010 A 
ATOM     11  C   LIG    1        8.232   5.022   0.666  0.00  0.00    +0.010 A 
ATOM     12  C   LIG    1        7.096   4.363   1.099  0.00  0.00    +0.030 A 
ENDBRANCH   4   7
BRANCH   1  15
ATOM     13  N   LIG    1        0.056   0.821  -0.120  0.00  0.00    -0.640 N 
ATOM     14  H   LIG    1        0.095  -0.148  -0.093  0.00  0.00    +0.430 HD
ATOM     15  C   LIG    1        1.194   1.542  -0.105  0.00  0.00    +0.520 C 
ATOM     16  O   LIG    1        1.149   2.750  -0.209  0.00  0.00    -0.490 OA
BRANCH  13  21
ATOM     17  C   LIG    1       -2.576   3.253  -0.939  0.00  0.00    +0.100 A 
ATOM     18  C   LIG    1       -3.628   2.668  -0.247  0.00  0.00    +0.160 A 
ATOM     19  N   LIG    1       -3.452   1.552   0.432  0.00  0.00    -0.430 NA
ATOM     20  C   LIG    1       -2.285   0.943   0.481  0.00  0.00    +0.210 A 
ATOM     21  C   LIG    1       -1.181   1.469  -0.181  0.00  0.00    +0.130 A 
ATOM     22  C   LIG    1       -1.326   2.646  -0.909  0.00  0.00    +0.050 A 
BRANCH  17  24
ATOM     23  C   LIG    1       -4.080   4.965  -1.617  0.00  0.00    +0.250 C 
ATOM     24  O   LIG    1       -2.766   4.404  -1.636  0.00  0.00    -0.310 OA
ENDBRANCH  17  24
ENDBRANCH  13  21
ENDBRANCH   1  15
BRANCH   4  25
ATOM     25  O   LIG    1        5.084   2.749   2.185  0.00  0.00    -0.350 OA
ATOM     26  C   LIG    1        6.055   2.011   2.930  0.00  0.00    +0.210 C 
ENDBRANCH   4  25
TORSDOF 5
