REMARK  Name = ZINCpe000000XeWQ.0
REMARK                            x       y       z     vdW  Elec       q    Type
REMARK                         _______ _______ _______ _____ _____    ______ ____
ROOT
ATOM      1  N   LIG    1       -0.445   5.162   2.084  0.00  0.00    -0.740 N 
ATOM      2  H   LIG    1       -0.850   5.570   1.303  0.00  0.00    +0.390 HD
ATOM      3  C   LIG    1       -0.416   3.820   2.205  0.00  0.00    +0.710 C 
ATOM      4  N   LIG    1       -0.856   3.043   1.196  0.00  0.00    -0.630 N 
ATOM      5  C   LIG    1       -0.729   1.581   1.267  0.00  0.00    +0.310 C 
ATOM      6  C   LIG    1       -0.009   1.087   0.008  0.00  0.00    +0.060 C 
ATOM      7  C   LIG    1       -0.750   1.594  -1.232  0.00  0.00    -0.450 C 
ATOM      8  C   LIG    1       -0.744   3.124  -1.241  0.00  0.00    +0.060 C 
ATOM      9  C   LIG    1       -1.472   3.642   0.004  0.00  0.00    +0.280 C 
ATOM     10  O   LIG    1        0.008   3.310   3.224  0.00  0.00    -0.580 OA
ENDROOT
BRANCH   7  11
ATOM     11  S   LIG    1        0.076   0.977  -2.724  0.00  0.00    +2.620 S 
ATOM     12  O   LIG    1       -0.181  -0.409  -2.900  0.00  0.00    -0.950 OA
ATOM     13  O   LIG    1        1.397   1.494  -2.813  0.00  0.00    -0.940 OA
BRANCH  11  14
ATOM     14  N   LIG    1       -0.732   1.704  -3.974  0.00  0.00    -1.010 NA
ATOM     15  C   LIG    1       -1.908   1.158  -4.667  0.00  0.00    +0.260 C 
ATOM     16  C   LIG    1       -2.299   2.165  -5.769  0.00  0.00    +0.030 C 
ATOM     17  C   LIG    1       -0.978   2.943  -6.011  0.00  0.00    +0.030 C 
ATOM     18  C   LIG    1       -0.387   3.003  -4.580  0.00  0.00    +0.270 C 
ENDBRANCH  11  14
ENDBRANCH   7  11
BRANCH   1  20
ATOM     19  C   LIG    1       -0.899   6.228   4.238  0.00  0.00    +0.040 C 
ATOM     20  C   LIG    1        0.135   6.004   3.133  0.00  0.00    +0.250 C 
BRANCH  20  21
ATOM     21  C   LIG    1        0.544   7.353   2.536  0.00  0.00    +0.330 C 
BRANCH  21  22
ATOM     22  N   LIG    1        1.619   7.150   1.562  0.00  0.00    -0.370 N 
ATOM     23  C   LIG    1        1.610   7.553   0.274  0.00  0.00    +0.220 A 
ATOM     24  C   LIG    1        2.784   7.176  -0.284  0.00  0.00    -0.120 A 
ATOM     25  C   LIG    1        3.536   6.521   0.697  0.00  0.00    +0.230 A 
ATOM     26  N   LIG    1        2.841   6.510   1.805  0.00  0.00    -0.290 NA
ENDBRANCH  21  22
ENDBRANCH  20  21
ENDBRANCH   1  20
TORSDOF 5
