REMARK  Name = ZINCrH000004joCp.0
REMARK                            x       y       z     vdW  Elec       q    Type
REMARK                         _______ _______ _______ _____ _____    ______ ____
ROOT
ATOM      1  N   LIG    1       -6.742   0.788   2.571  0.00  0.00    -0.530 N 
ATOM      2  C   LIG    1       -8.085   0.809   2.411  0.00  0.00    +0.560 A 
ATOM      3  C   LIG    1       -8.606   0.824   1.037  0.00  0.00    -0.200 A 
ATOM      4  C   LIG    1       -9.974   0.846   0.768  0.00  0.00    +0.150 A 
ATOM      5  C   LIG    1      -10.406   0.860  -0.540  0.00  0.00    -0.120 A 
ATOM      6  C   LIG    1       -9.492   0.851  -1.587  0.00  0.00    +0.110 A 
ATOM      7  C   LIG    1       -8.147   0.829  -1.345  0.00  0.00    +0.040 A 
ATOM      8 BR   LIG    1      -12.259   0.890  -0.915  0.00  0.00    -0.030 Br
ATOM      9  C   LIG    1       -7.678   0.815  -0.029  0.00  0.00    +0.180 A 
ATOM     10  N   LIG    1       -6.353   0.799   0.251  0.00  0.00    -0.530 NA
ATOM     11  O   LIG    1       -8.835   0.815   3.370  0.00  0.00    -0.490 OA
ATOM     12  C   LIG    1       -5.914   0.781   1.485  0.00  0.00    +0.380 A 
ENDROOT
BRANCH   1  14
ATOM     13  C   LIG    1       -5.950   2.210   4.397  0.00  0.00    +0.050 C 
ATOM     14  C   LIG    1       -6.171   0.773   3.920  0.00  0.00    +0.290 C 
ENDBRANCH   1  14
BRANCH  12  15
ATOM     15  S   LIG    1       -4.173   0.753   1.756  0.00  0.00    +0.040 S 
BRANCH  15  16
ATOM     16  C   LIG    1       -3.588   0.752   0.043  0.00  0.00    +0.240 C 
BRANCH  16  17
ATOM     17  C   LIG    1       -2.081   0.729   0.027  0.00  0.00    +0.280 A 
ATOM     18  N   LIG    1       -1.319   1.783   0.030  0.00  0.00    -0.440 NA
ATOM     19  C   LIG    1       -0.017   1.401   0.010  0.00  0.00    -0.030 A 
ATOM     20  C   LIG    1        1.196   2.098   0.002  0.00  0.00    +0.180 A 
ATOM     21  C   LIG    1        2.361   1.376  -0.015  0.00  0.00    -0.030 A 
ATOM     22  C   LIG    1        2.309  -0.015  -0.021  0.00  0.00    +0.370 A 
ATOM     23  N   LIG    1        1.155  -0.657  -0.013  0.00  0.00    -0.550 NA
ATOM     24  C   LIG    1        0.002  -0.004   0.002  0.00  0.00    +0.290 A 
ATOM     25  N   LIG    1       -1.318  -0.399   0.013  0.00  0.00    -0.580 N 
ATOM     26  H   LIG    1       -1.644  -1.313   0.012  0.00  0.00    +0.430 HD
BRANCH  22  27
ATOM     27  O   LIG    1        3.466  -0.725  -0.036  0.00  0.00    -0.300 OA
ATOM     28  C   LIG    1        3.353  -2.149  -0.043  0.00  0.00    +0.260 C 
ENDBRANCH  22  27
ENDBRANCH  16  17
ENDBRANCH  15  16
ENDBRANCH  12  15
TORSDOF 5
