REMARK  Name = ZINCrH00000No4TH.0
REMARK                            x       y       z     vdW  Elec       q    Type
REMARK                         _______ _______ _______ _____ _____    ______ ____
ROOT
ATOM      1  N   LIG    1       -2.118   5.887   4.427  0.00  0.00    -0.660 N 
ATOM      2  H   LIG    1       -2.615   5.067   4.578  0.00  0.00    +0.410 HD
ATOM      3  C   LIG    1       -2.639   7.070   4.808  0.00  0.00    +0.550 C 
ATOM      4  O   LIG    1       -2.063   8.107   4.528  0.00  0.00    -0.520 OA
ENDROOT
BRANCH   1  11
ATOM      5  N   LIG    1       -0.624   3.045   1.345  0.00  0.00    -0.480 NA
ATOM      6  C   LIG    1        0.778   3.486   1.526  0.00  0.00    +0.230 C 
ATOM      7  C   LIG    1        0.706   4.739   2.370  0.00  0.00    -0.080 A 
ATOM      8  C   LIG    1        1.622   5.749   2.599  0.00  0.00    +0.000 A 
ATOM      9  C   LIG    1        1.299   6.804   3.432  0.00  0.00    +0.040 A 
ATOM     10  C   LIG    1        0.060   6.853   4.040  0.00  0.00    +0.020 A 
ATOM     11  C   LIG    1       -0.863   5.840   3.813  0.00  0.00    +0.170 A 
ATOM     12  C   LIG    1       -0.537   4.782   2.977  0.00  0.00    -0.140 A 
ATOM     13  C   LIG    1       -1.316   3.559   2.548  0.00  0.00    +0.230 C 
BRANCH   5  15
ATOM     14  C   LIG    1       -2.179   1.158   1.212  0.00  0.00    +0.050 C 
ATOM     15  C   LIG    1       -0.709   1.580   1.274  0.00  0.00    +0.130 C 
BRANCH  15  16
ATOM     16  C   LIG    1        0.016   1.087   0.020  0.00  0.00    +0.180 C 
BRANCH  16  17
ATOM     17  O   LIG    1       -0.665   1.563  -1.142  0.00  0.00    -0.560 OA
ATOM     18  H   LIG    1       -0.259   1.288  -1.976  0.00  0.00    +0.380 HD
ENDBRANCH  16  17
ENDBRANCH  15  16
ENDBRANCH   5  15
ENDBRANCH   1  11
BRANCH   3  19
ATOM     19  C   LIG    1       -3.856   7.109   5.534  0.00  0.00    -0.070 C 
ATOM     20  C   LIG    1       -4.378   8.298   5.917  0.00  0.00    +0.190 C 
BRANCH  20  21
ATOM     21  C   LIG    1       -5.633   8.338   6.665  0.00  0.00    +0.030 A 
ATOM     22  C   LIG    1       -6.251   9.471   7.101  0.00  0.00    +0.020 A 
ATOM     23  C   LIG    1       -7.461   9.031   7.794  0.00  0.00    -0.140 A 
ATOM     24  C   LIG    1       -8.501   9.692   8.452  0.00  0.00    +0.070 A 
ATOM     25  C   LIG    1       -9.516   8.969   9.012  0.00  0.00    -0.010 A 
ATOM     26  C   LIG    1       -9.520   7.583   8.931  0.00  0.00    +0.060 A 
ATOM     27  C   LIG    1       -8.503   6.912   8.286  0.00  0.00    +0.020 A 
ATOM     28  C   LIG    1       -7.460   7.625   7.709  0.00  0.00    +0.060 A 
ATOM     29  O   LIG    1       -6.358   7.258   7.024  0.00  0.00    -0.190 OA
ENDBRANCH  20  21
ENDBRANCH   3  19
TORSDOF 6
