REMARK  Name = ZINCqH0000037DV0.0
REMARK                            x       y       z     vdW  Elec       q    Type
REMARK                         _______ _______ _______ _____ _____    ______ ____
ROOT
ATOM      1  S   LIG    1        4.460   0.370  -1.742  0.00  0.00    +2.720 S 
ATOM      2  O   LIG    1        5.299   1.268  -1.028  0.00  0.00    -0.930 OA
ATOM      3  O   LIG    1        4.531   0.194  -3.150  0.00  0.00    -0.930 OA
ENDROOT
BRANCH   1   6
ATOM      4  C   LIG    1        3.976  -2.576  -3.056  0.00  0.00    +0.160 C 
ATOM      5  C   LIG    1        4.484  -2.385  -1.650  0.00  0.00    -0.030 A 
ATOM      6  C   LIG    1        4.712  -1.221  -1.028  0.00  0.00    -0.540 A 
ATOM      7  O   LIG    1        5.166  -1.442   0.218  0.00  0.00    -0.140 OA
ATOM      8  C   LIG    1        5.249  -2.764   0.472  0.00  0.00    +0.070 A 
ATOM      9  C   LIG    1        5.647  -3.499   1.581  0.00  0.00    +0.070 A 
ATOM     10  C   LIG    1        5.627  -4.877   1.538  0.00  0.00    +0.060 A 
ATOM     11  C   LIG    1        5.213  -5.544   0.392  0.00  0.00    +0.080 A 
ATOM     12  C   LIG    1        4.813  -4.832  -0.720  0.00  0.00    +0.060 A 
ATOM     13  F   LIG    1        5.200  -6.894   0.367  0.00  0.00    -0.130 F 
ATOM     14  C   LIG    1        4.829  -3.438  -0.686  0.00  0.00    -0.130 A 
ENDBRANCH   1   6
BRANCH   1  15
ATOM     15  N   LIG    1        2.901   0.818  -1.404  0.00  0.00    -1.100 NA
ATOM     16  H   LIG    1        2.262   0.927  -2.125  0.00  0.00    +0.420 HD
BRANCH  15  17
ATOM     17  C   LIG    1        2.489   1.048  -0.017  0.00  0.00    +0.320 C 
BRANCH  17  18
ATOM     18  C   LIG    1        1.175   1.784   0.000  0.00  0.00    -0.160 A 
ATOM     19  C   LIG    1       -0.013   1.076   0.008  0.00  0.00    +0.060 A 
ATOM     20  C   LIG    1       -1.217   1.751   0.017  0.00  0.00    -0.070 A 
ATOM     21  C   LIG    1       -1.236   3.141   0.029  0.00  0.00    +0.230 A 
ATOM     22  N   LIG    1       -2.467   3.806   0.038  0.00  0.00    -0.750 N 
ATOM     23  H   LIG    1       -3.287   3.326  -0.153  0.00  0.00    +0.400 HD
ATOM     24  C   LIG    1       -2.496   5.243   0.343  0.00  0.00    +0.260 C 
ATOM     25  C   LIG    1       -1.364   5.913  -0.447  0.00  0.00    +0.010 C 
ATOM     26  C   LIG    1       -0.026   5.356   0.039  0.00  0.00    +0.080 C 
ATOM     27  C   LIG    1       -0.044   3.851   0.025  0.00  0.00    -0.160 A 
ATOM     28  C   LIG    1        1.159   3.166   0.010  0.00  0.00    +0.080 A 
ENDBRANCH  17  18
ENDBRANCH  15  17
ENDBRANCH   1  15
TORSDOF 4
