REMARK  Name = ZINCpk00001AZion.0
REMARK                            x       y       z     vdW  Elec       q    Type
REMARK                         _______ _______ _______ _____ _____    ______ ____
ROOT
ATOM      1  C   LIG    1        1.278   2.115   0.001  0.00  0.00    +0.250 C 
ENDROOT
BRANCH   1   3
ATOM      2  C   LIG    1        0.180   4.279   0.217  0.00  0.00    +0.550 C 
ATOM      3  N   LIG    1        1.029   3.482  -0.462  0.00  0.00    -0.720 N 
ATOM      4  H   LIG    1        1.476   3.814  -1.256  0.00  0.00    +0.400 HD
ATOM      5  O   LIG    1       -0.379   3.863   1.213  0.00  0.00    -0.510 OA
BRANCH   2   7
ATOM      6  C   LIG    1       -0.908   6.438   0.422  0.00  0.00    +0.130 C 
ATOM      7  C   LIG    1       -0.070   5.652  -0.248  0.00  0.00    -0.100 C 
ENDBRANCH   2   7
ENDBRANCH   1   3
BRANCH   1   8
ATOM      8  C   LIG    1       -0.016   1.344   0.009  0.00  0.00    +0.500 C 
ATOM      9  N   LIG    1        0.002  -0.004   0.002  0.00  0.00    -0.730 N 
ATOM     10  H   LIG    1        0.849  -0.478  -0.009  0.00  0.00    +0.400 HD
ATOM     11  O   LIG    1       -1.075   1.936   0.018  0.00  0.00    -0.500 OA
BRANCH   9  12
ATOM     12  C   LIG    1       -1.256  -0.754   0.010  0.00  0.00    +0.270 C 
BRANCH  12  13
ATOM     13  C   LIG    1       -0.957  -2.254  -0.001  0.00  0.00    +0.110 C 
BRANCH  13  14
ATOM     14  C   LIG    1       -2.251  -3.025   0.007  0.00  0.00    -0.200 A 
ATOM     15  C   LIG    1       -2.955  -3.463   1.079  0.00  0.00    -0.020 A 
ATOM     16  O   LIG    1       -4.033  -4.094   0.593  0.00  0.00    +0.100 OA
ATOM     17  N   LIG    1       -4.045  -4.087  -0.616  0.00  0.00    -0.360 NA
ATOM     18  C   LIG    1       -2.597  -3.275   2.531  0.00  0.00    +0.190 C 
ATOM     19  C   LIG    1       -3.010  -3.465  -1.102  0.00  0.00    +0.030 A 
ATOM     20  C   LIG    1       -2.685  -3.254  -2.558  0.00  0.00    +0.160 C 
ENDBRANCH  13  14
ENDBRANCH  12  13
ENDBRANCH   9  12
ENDBRANCH   1   8
BRANCH   1  21
ATOM     21  C   LIG    1        1.858   2.153   1.417  0.00  0.00    +0.050 C 
BRANCH  21  22
ATOM     22  C   LIG    1        3.232   2.827   1.387  0.00  0.00    -0.010 C 
ATOM     23  C   LIG    1        4.207   1.967   0.578  0.00  0.00    -0.010 C 
ATOM     24  C   LIG    1        5.597   2.607   0.621  0.00  0.00    +0.200 C 
ATOM     25  O   LIG    1        6.016   2.743   1.981  0.00  0.00    -0.380 OA
ATOM     26  C   LIG    1        5.168   3.577   2.772  0.00  0.00    +0.200 C 
ATOM     27  C   LIG    1        3.761   2.974   2.817  0.00  0.00    -0.010 C 
ENDBRANCH  21  22
ENDBRANCH   1  21
TORSDOF 8
