REMARK  Name = ZINCrH000004lBLX.0
REMARK                            x       y       z     vdW  Elec       q    Type
REMARK                         _______ _______ _______ _____ _____    ______ ____
ROOT
ATOM      1  C   LIG    1       -2.553   3.867   0.048  0.00  0.00    +0.330 C 
ENDROOT
BRANCH   1   2
ATOM      2  C   LIG    1       -1.237   3.133   0.031  0.00  0.00    -0.150 A 
ATOM      3  C   LIG    1       -1.218   1.751   0.017  0.00  0.00    +0.070 A 
ATOM      4  C   LIG    1       -0.013   1.076   0.008  0.00  0.00    -0.020 A 
ATOM      5  C   LIG    1        1.179   1.786   0.000  0.00  0.00    +0.140 A 
ATOM      6  C   LIG    1        1.157   3.174   0.008  0.00  0.00    -0.080 A 
ATOM      7  C   LIG    1       -0.051   3.844   0.023  0.00  0.00    +0.070 A 
BRANCH   5   8
ATOM      8  O   LIG    1        2.366   1.125  -0.015  0.00  0.00    -0.310 OA
BRANCH   8   9
ATOM      9  C   LIG    1        3.553   1.921  -0.022  0.00  0.00    +0.270 C 
BRANCH   9  10
ATOM     10  C   LIG    1        4.761   1.021  -0.039  0.00  0.00    -0.150 A 
ATOM     11  C   LIG    1        5.339   0.600   1.149  0.00  0.00    +0.090 A 
ATOM     12  C   LIG    1        6.447  -0.233   1.085  0.00  0.00    -0.030 A 
ATOM     13  C   LIG    1        6.941  -0.602  -0.152  0.00  0.00    +0.270 A 
ATOM     14  N   LIG    1        6.369  -0.177  -1.262  0.00  0.00    -0.490 NA
ATOM     15  C   LIG    1        5.311   0.610  -1.239  0.00  0.00    +0.290 A 
ENDBRANCH   9  10
ENDBRANCH   8   9
ENDBRANCH   5   8
ENDBRANCH   1   2
BRANCH   1  17
ATOM     16  C   LIG    1       -4.153   4.759  -1.559  0.00  0.00    +0.560 C 
ATOM     17  N   LIG    1       -2.994   4.112  -1.327  0.00  0.00    -0.720 N 
ATOM     18  H   LIG    1       -2.450   3.809  -2.072  0.00  0.00    +0.400 HD
ATOM     19  O   LIG    1       -4.834   5.138  -0.626  0.00  0.00    -0.530 OA
BRANCH  16  24
ATOM     20  C   LIG    1       -6.207   5.903  -4.488  0.00  0.00    -0.100 A 
ATOM     21  C   LIG    1       -5.430   5.470  -5.547  0.00  0.00    +0.060 A 
ATOM     22  C   LIG    1       -4.238   4.806  -5.313  0.00  0.00    +0.000 A 
ATOM     23  C   LIG    1       -3.816   4.577  -4.020  0.00  0.00    +0.050 A 
ATOM     24  C   LIG    1       -4.598   5.006  -2.947  0.00  0.00    -0.140 A 
ATOM     25  C   LIG    1       -5.798   5.675  -3.190  0.00  0.00    +0.100 A 
BRANCH  20  26
ATOM     26  C   LIG    1       -7.503   6.626  -4.752  0.00  0.00    +0.220 C 
BRANCH  26  28
ATOM     27  C   LIG    1       -8.426   8.812  -5.085  0.00  0.00    +0.200 C 
ATOM     28  O   LIG    1       -7.256   8.031  -4.835  0.00  0.00    -0.390 OA
ENDBRANCH  26  28
ENDBRANCH  20  26
ENDBRANCH  16  24
ENDBRANCH   1  17
TORSDOF 8
