REMARK  Name = ZINCfA000000Jm8s.0
REMARK                            x       y       z     vdW  Elec       q    Type
REMARK                         _______ _______ _______ _____ _____    ______ ____
ROOT
ATOM      1  C   LIG    1        0.730   3.058   0.011  0.00  0.00    -0.200 A 
ATOM      2  C   LIG    1        1.098   1.767   0.001  0.00  0.00    +0.270 A 
ATOM      3  N   LIG    1       -0.011   0.966   0.007  0.00  0.00    -0.590 N 
ATOM      4  H   LIG    1        0.002  -0.004   0.002  0.00  0.00    +0.430 HD
ATOM      5  C   LIG    1       -1.149   1.742   0.016  0.00  0.00    +0.110 A 
ATOM      6  C   LIG    1       -2.508   1.446   0.020  0.00  0.00    +0.030 A 
ATOM      7  C   LIG    1       -3.434   2.466   0.029  0.00  0.00    +0.070 A 
ATOM      8  C   LIG    1       -3.025   3.793   0.034  0.00  0.00    -0.110 A 
ATOM      9  C   LIG    1       -1.685   4.109   0.040  0.00  0.00    +0.080 A 
ATOM     10 BR   LIG    1       -4.316   5.174   0.047  0.00  0.00    -0.040 Br
ATOM     11  C   LIG    1       -0.734   3.086   0.026  0.00  0.00    -0.100 A 
ENDROOT
BRANCH   1  12
ATOM     12  C   LIG    1        1.650   4.252   0.009  0.00  0.00    +0.120 C 
BRANCH  12  13
ATOM     13  C   LIG    1        1.875   4.725   1.447  0.00  0.00    +0.250 C 
BRANCH  13  15
ATOM     14  C   LIG    1        2.113   7.012   0.765  0.00  0.00    +0.320 C 
ATOM     15  N   LIG    1        2.772   5.888   1.444  0.00  0.00    -0.390 N 
ATOM     16  C   LIG    1        3.084   6.269   2.829  0.00  0.00    +0.310 C 
ATOM     17  H   LIG    1        3.625   5.655   0.959  0.00  0.00    +0.430 HD
ENDBRANCH  13  15
ENDBRANCH  12  13
ENDBRANCH   1  12
TORSDOF 3
