REMARK  Name = ZINCrg000000thoL.0
REMARK                            x       y       z     vdW  Elec       q    Type
REMARK                         _______ _______ _______ _____ _____    ______ ____
ROOT
ATOM      1  C   LIG    1       -1.585   3.727   5.554  0.00  0.00    +0.510 C 
ATOM      2  N   LIG    1       -1.989   4.302   6.705  0.00  0.00    -0.590 N 
ATOM      3  O   LIG    1       -0.524   4.043   5.059  0.00  0.00    -0.520 OA
ENDROOT
BRANCH   2   4
ATOM      4  C   LIG    1       -1.201   5.384   7.300  0.00  0.00    +0.280 C 
ATOM      5  C   LIG    1        0.224   4.890   7.607  0.00  0.00    +0.060 C 
ATOM      6  C   LIG    1        1.117   6.111   7.904  0.00  0.00    -0.310 C 
ATOM      7  S   LIG    1        0.365   7.491   6.967  0.00  0.00    +2.390 S 
ATOM      8  O   LIG    1        1.232   7.867   5.906  0.00  0.00    -0.930 OA
ATOM      9  O   LIG    1       -0.109   8.475   7.876  0.00  0.00    -0.930 OA
ATOM     10  C   LIG    1       -1.058   6.553   6.292  0.00  0.00    -0.320 C 
ENDBRANCH   2   4
BRANCH   2  11
ATOM     11  C   LIG    1       -3.217   3.844   7.360  0.00  0.00    +0.230 C 
ATOM     12  C   LIG    1       -4.243   4.994   7.421  0.00  0.00    +0.020 C 
ATOM     13  C   LIG    1       -4.939   4.808   8.793  0.00  0.00    +0.020 C 
ATOM     14  C   LIG    1       -3.774   4.362   9.711  0.00  0.00    +0.010 C 
ATOM     15  C   LIG    1       -2.919   3.442   8.815  0.00  0.00    +0.020 C 
ENDBRANCH   2  11
BRANCH   1  16
ATOM     16  C   LIG    1       -2.452   2.693   4.884  0.00  0.00    +0.330 C 
BRANCH  16  27
ATOM     17  O   LIG    1       -2.969   3.911   2.517  0.00  0.00    -0.530 OA
ATOM     18  C   LIG    1       -2.178   2.984   2.478  0.00  0.00    +0.530 A 
ATOM     19  C   LIG    1       -1.586   2.595   1.254  0.00  0.00    -0.240 A 
ATOM     20  C   LIG    1       -0.707   1.565   1.256  0.00  0.00    +0.180 A 
ATOM     21  N   LIG    1       -0.431   0.936   2.409  0.00  0.00    -0.530 NA
ATOM     22  C   LIG    1       -0.979   1.291   3.538  0.00  0.00    +0.580 A 
ATOM     23  C   LIG    1       -0.012   1.085   0.009  0.00  0.00    +0.110 C 
ATOM     24  C   LIG    1       -0.742   1.585  -1.237  0.00  0.00    +0.030 C 
ATOM     25  C   LIG    1       -0.947   3.099  -1.102  0.00  0.00    +0.020 C 
ATOM     26  C   LIG    1       -1.966   3.348   0.009  0.00  0.00    +0.110 C 
ATOM     27  N   LIG    1       -1.855   2.313   3.601  0.00  0.00    -0.510 N 
ENDBRANCH  16  27
ENDBRANCH   1  16
TORSDOF 4
