REMARK  Name = ZINCqH0000051arY.0
REMARK                            x       y       z     vdW  Elec       q    Type
REMARK                         _______ _______ _______ _____ _____    ______ ____
ROOT
ATOM      1  O   LIG    1       -4.954  -3.237  -2.087  0.00  0.00    -0.510 OA
ATOM      2  C   LIG    1       -4.412  -2.869  -3.107  0.00  0.00    +0.520 C 
ATOM      3  N   LIG    1       -4.936  -3.198  -4.305  0.00  0.00    -0.720 N 
ATOM      4  H   LIG    1       -4.502  -2.904  -5.121  0.00  0.00    +0.400 HD
ENDROOT
BRANCH   3   5
ATOM      5  C   LIG    1       -6.159  -4.002  -4.373  0.00  0.00    +0.340 C 
BRANCH   5   6
ATOM      6  C   LIG    1       -5.805  -5.464  -4.287  0.00  0.00    -0.090 A 
ATOM      7  C   LIG    1       -4.695  -5.947  -4.955  0.00  0.00    +0.020 A 
ATOM      8  C   LIG    1       -4.368  -7.287  -4.872  0.00  0.00    +0.000 A 
ATOM      9  C   LIG    1       -5.157  -8.147  -4.130  0.00  0.00    +0.000 A 
ATOM     10  C   LIG    1       -6.270  -7.665  -3.467  0.00  0.00    +0.000 A 
ATOM     11  C   LIG    1       -6.594  -6.323  -3.546  0.00  0.00    +0.020 A 
ENDBRANCH   5   6
BRANCH   5  12
ATOM     12  C   LIG    1       -6.864  -3.731  -5.677  0.00  0.00    -0.090 A 
ATOM     13  C   LIG    1       -6.133  -3.582  -6.841  0.00  0.00    +0.010 A 
ATOM     14  C   LIG    1       -6.781  -3.339  -8.038  0.00  0.00    +0.020 A 
ATOM     15  C   LIG    1       -8.159  -3.235  -8.069  0.00  0.00    +0.000 A 
ATOM     16  C   LIG    1       -8.890  -3.379  -6.905  0.00  0.00    +0.020 A 
ATOM     17  C   LIG    1       -8.243  -3.627  -5.709  0.00  0.00    +0.030 A 
ENDBRANCH   5  12
ENDBRANCH   3   5
BRANCH   2  18
ATOM     18  C   LIG    1       -3.154  -2.042  -3.036  0.00  0.00    +0.250 C 
BRANCH  18  19
ATOM     19  O   LIG    1       -2.796  -1.824  -1.646  0.00  0.00    -0.330 OA
BRANCH  19  20
ATOM     20  C   LIG    1       -1.691  -1.100  -1.408  0.00  0.00    +0.460 C 
ATOM     21  O   LIG    1       -1.044  -0.664  -2.330  0.00  0.00    -0.500 OA
BRANCH  20  22
ATOM     22  C   LIG    1       -1.257  -0.832   0.010  0.00  0.00    +0.190 C 
BRANCH  22  23
ATOM     23  C   LIG    1        0.002  -0.004   0.002  0.00  0.00    -0.100 A 
ATOM     24  C   LIG    1        1.219  -0.550  -0.013  0.00  0.00    -0.030 A 
ATOM     25  S   LIG    1        2.435   0.721  -0.017  0.00  0.00    +0.110 S 
ATOM     26  C   LIG    1        1.185   1.958   0.001  0.00  0.00    -0.040 A 
ATOM     27  C   LIG    1       -0.017   1.380   0.010  0.00  0.00    +0.020 A 
ENDBRANCH  22  23
ENDBRANCH  20  22
ENDBRANCH  19  20
ENDBRANCH  18  19
ENDBRANCH   2  18
TORSDOF 8
