REMARK  Name = ZINCrH000004u44o.0
REMARK                            x       y       z     vdW  Elec       q    Type
REMARK                         _______ _______ _______ _____ _____    ______ ____
ROOT
ATOM      1  O   LIG    1        3.548   7.293   4.550  0.00  0.00    -0.540 OA
ATOM      2  C   LIG    1        2.789   6.608   5.208  0.00  0.00    +0.720 C 
ATOM      3  N   LIG    1        1.798   5.925   4.600  0.00  0.00    -0.640 N 
ATOM      4  H   LIG    1        1.193   5.378   5.125  0.00  0.00    +0.410 HD
ATOM      5  N   LIG    1        2.938   6.532   6.545  0.00  0.00    -0.670 N 
ATOM      6  H   LIG    1        2.285   6.052   7.079  0.00  0.00    +0.420 HD
ENDROOT
BRANCH   5   7
ATOM      7  C   LIG    1        4.035   7.145   7.164  0.00  0.00    +0.190 A 
ATOM      8  C   LIG    1        5.200   7.372   6.446  0.00  0.00    +0.030 A 
ATOM      9  C   LIG    1        6.281   7.982   7.059  0.00  0.00    +0.110 A 
ATOM     10  C   LIG    1        6.206   8.357   8.389  0.00  0.00    +0.020 A 
ATOM     11  C   LIG    1        5.048   8.128   9.111  0.00  0.00    +0.010 A 
ATOM     12  F   LIG    1        7.414   8.209   6.358  0.00  0.00    -0.130 F 
ATOM     13  C   LIG    1        3.961   7.522   8.503  0.00  0.00    +0.060 A 
BRANCH  13  14
ATOM     14  O   LIG    1        2.823   7.295   9.212  0.00  0.00    -0.320 OA
BRANCH  14  15
ATOM     15  C   LIG    1        2.818   7.708  10.580  0.00  0.00    +0.600 C 
ATOM     16  F   LIG    1        3.037   9.088  10.652  0.00  0.00    -0.200 F 
ATOM     17  F   LIG    1        3.833   7.039  11.273  0.00  0.00    -0.200 F 
ENDBRANCH  14  15
ENDBRANCH  13  14
ENDBRANCH   5   7
BRANCH   3  18
ATOM     18  C   LIG    1        1.643   6.004   3.209  0.00  0.00    +0.310 A 
ATOM     19  N   LIG    1        0.721   5.396   2.500  0.00  0.00    -0.320 NA
ATOM     20  N   LIG    1        0.914   5.731   1.154  0.00  0.00    -0.360 N 
ATOM     21  C   LIG    1        1.972   6.566   1.078  0.00  0.00    +0.250 A 
ATOM     22  C   LIG    1        2.444   6.753   2.331  0.00  0.00    -0.090 A 
BRANCH  20  23
ATOM     23  C   LIG    1        0.104   5.263   0.026  0.00  0.00    +0.410 C 
BRANCH  23  24
ATOM     24  C   LIG    1        0.074   3.757   0.021  0.00  0.00    +0.110 A 
ATOM     25  C   LIG    1       -1.141   3.098   0.027  0.00  0.00    -0.010 A 
ATOM     26  C   LIG    1       -1.158   1.711   0.016  0.00  0.00    +0.070 A 
ATOM     27  C   LIG    1        0.054   1.037   0.011  0.00  0.00    -0.030 A 
ATOM     28  C   LIG    1        1.229   1.764   0.005  0.00  0.00    +0.260 A 
ATOM     29  N   LIG    1        1.207   3.082   0.010  0.00  0.00    -0.470 NA
ENDBRANCH  23  24
ENDBRANCH  20  23
ENDBRANCH   3  18
TORSDOF 6
