REMARK  Name = ZINCrD0000071pz8.0
REMARK                            x       y       z     vdW  Elec       q    Type
REMARK                         _______ _______ _______ _____ _____    ______ ____
ROOT
ATOM      1  C   LIG    1        6.875   4.875  -0.361  0.00  0.00    +0.190 C 
ATOM      2  C   LIG    1        7.614   4.531   0.934  0.00  0.00    +0.070 C 
ENDROOT
BRANCH   1   5
ATOM      3  N   LIG    1        5.215   3.048  -0.209  0.00  0.00    -0.670 N 
ATOM      4  H   LIG    1        5.953   2.423  -0.135  0.00  0.00    +0.410 HD
ATOM      5  C   LIG    1        5.457   4.372  -0.279  0.00  0.00    +0.520 C 
ATOM      6  O   LIG    1        4.534   5.158  -0.276  0.00  0.00    -0.490 OA
BRANCH   3  10
ATOM      7  C   LIG    1        1.296   1.639  -0.307  0.00  0.00    -0.090 A 
ATOM      8  C   LIG    1        2.250   0.972   0.439  0.00  0.00    +0.030 A 
ATOM      9  C   LIG    1        3.551   1.433   0.469  0.00  0.00    -0.010 A 
ATOM     10  C   LIG    1        3.899   2.575  -0.242  0.00  0.00    +0.140 A 
ATOM     11  C   LIG    1        2.937   3.245  -0.986  0.00  0.00    +0.010 A 
ATOM     12  C   LIG    1        1.638   2.776  -1.017  0.00  0.00    +0.030 A 
BRANCH   7  14
ATOM     13  C   LIG    1       -0.695   1.118   1.076  0.00  0.00    +0.030 C 
ATOM     14  C   LIG    1       -0.122   1.130  -0.343  0.00  0.00    +0.020 C 
ATOM     15  C   LIG    1       -0.140  -0.290  -0.912  0.00  0.00    +0.040 C 
ENDBRANCH   7  14
ENDBRANCH   3  10
ENDBRANCH   1   5
BRANCH   1  16
ATOM     16  O   LIG    1        6.867   6.316  -0.545  0.00  0.00    -0.320 OA
BRANCH  16  17
ATOM     17  C   LIG    1        7.897   6.850  -1.232  0.00  0.00    +0.530 C 
ATOM     18  O   LIG    1        8.777   6.132  -1.664  0.00  0.00    -0.520 OA
BRANCH  17  19
ATOM     19  C   LIG    1        7.955   8.304  -1.458  0.00  0.00    -0.220 A 
ATOM     20  C   LIG    1        7.011   9.147  -0.865  0.00  0.00    +0.130 A 
ATOM     21  C   LIG    1        7.072  10.506  -1.080  0.00  0.00    -0.070 A 
ATOM     22  C   LIG    1        8.065  11.044  -1.883  0.00  0.00    +0.100 A 
ATOM     23  C   LIG    1        9.004  10.226  -2.476  0.00  0.00    -0.090 A 
ATOM     24  C   LIG    1        8.964   8.854  -2.266  0.00  0.00    +0.290 A 
BRANCH  24  25
ATOM     25  N   LIG    1        9.911   8.029  -2.857  0.00  0.00    -0.720 N 
ATOM     26  H   LIG    1        9.938   7.085  -2.636  0.00  0.00    +0.420 HD
BRANCH  25  27
ATOM     27  C   LIG    1       10.871   8.585  -3.814  0.00  0.00    +0.260 C 
BRANCH  27  28
ATOM     28  C   LIG    1       11.797   7.473  -4.312  0.00  0.00    +0.170 C 
BRANCH  28  29
ATOM     29  O   LIG    1       11.036   6.516  -5.052  0.00  0.00    -0.570 OA
ATOM     30  H   LIG    1       11.560   5.780  -5.399  0.00  0.00    +0.380 HD
ENDBRANCH  28  29
ENDBRANCH  27  28
ENDBRANCH  25  27
ENDBRANCH  24  25
ENDBRANCH  17  19
ENDBRANCH  16  17
ENDBRANCH   1  16
TORSDOF 10
