REMARK  Name = ZINCrH000004mlXm.0
REMARK                            x       y       z     vdW  Elec       q    Type
REMARK                         _______ _______ _______ _____ _____    ______ ____
ROOT
ATOM      1  C   LIG    1        1.177   3.606  -0.287  0.00  0.00    +0.070 A 
ATOM      2  C   LIG    1        0.068   4.395  -0.165  0.00  0.00    +0.010 A 
ATOM      3  C   LIG    1        0.551   5.666   0.216  0.00  0.00    -0.000 A 
ATOM      4  N   LIG    1        1.865   5.582   0.291  0.00  0.00    -0.250 NA
ATOM      5  N   LIG    1        2.256   4.393   0.004  0.00  0.00    -0.230 N 
ENDROOT
BRANCH   3   6
ATOM      6  C   LIG    1       -0.265   6.870   0.475  0.00  0.00    +0.640 C 
ATOM      7  N   LIG    1        0.333   8.026   0.828  0.00  0.00    -0.630 N 
ATOM      8  C   LIG    1        1.716   8.474   1.058  0.00  0.00    +0.330 C 
ATOM      9  C   LIG    1        1.154   9.537   1.993  0.00  0.00    -0.190 C 
ATOM     10  C   LIG    1        1.317   9.690   3.497  0.00  0.00    +0.060 C 
ATOM     11  C   LIG    1        1.812  10.790   2.552  0.00  0.00    +0.050 C 
ATOM     12  C   LIG    1       -0.115   9.389   1.157  0.00  0.00    +0.320 C 
ATOM     13  O   LIG    1       -1.475   6.819   0.371  0.00  0.00    -0.530 OA
ENDBRANCH   3   6
BRANCH   1  17
ATOM     14  C   LIG    1        1.256  -0.501  -1.378  0.00  0.00    +0.140 A 
ATOM     15  C   LIG    1        0.131   0.030  -0.762  0.00  0.00    -0.010 A 
ATOM     16  C   LIG    1        0.102   1.362  -0.406  0.00  0.00    +0.090 A 
ATOM     17  C   LIG    1        1.205   2.176  -0.666  0.00  0.00    -0.070 A 
ATOM     18  C   LIG    1        2.334   1.638  -1.284  0.00  0.00    +0.070 A 
ATOM     19  C   LIG    1        2.356   0.305  -1.637  0.00  0.00    -0.070 A 
BRANCH  14  21
ATOM     20  C   LIG    1        2.471  -2.295  -2.357  0.00  0.00    +0.240 C 
ATOM     21  O   LIG    1        1.282  -1.814  -1.727  0.00  0.00    -0.310 OA
ENDBRANCH  14  21
ENDBRANCH   1  17
BRANCH   5  22
ATOM     22  C   LIG    1        3.589   3.966  -0.010  0.00  0.00    +0.120 A 
ATOM     23  C   LIG    1        3.941   2.763   0.587  0.00  0.00    +0.030 A 
ATOM     24  C   LIG    1        5.256   2.342   0.568  0.00  0.00    +0.030 A 
ATOM     25  C   LIG    1        6.224   3.123  -0.037  0.00  0.00    +0.030 A 
ATOM     26  C   LIG    1        5.878   4.324  -0.628  0.00  0.00    +0.030 A 
ATOM     27  C   LIG    1        4.564   4.748  -0.616  0.00  0.00    +0.030 A 
ENDBRANCH   5  22
TORSDOF 4
