REMARK  Name = ZINCpk00000FboYp.0
REMARK                            x       y       z     vdW  Elec       q    Type
REMARK                         _______ _______ _______ _____ _____    ______ ____
ROOT
ATOM      1  C   LIG    1       -1.159   1.874   3.545  0.00  0.00    +0.010 C 
ATOM      2  C   LIG    1       -2.384   2.260   2.684  0.00  0.00    +0.070 C 
ATOM      3  C   LIG    1       -2.019   1.798   1.290  0.00  0.00    +0.520 C 
ATOM      4  N   LIG    1       -0.698   1.558   1.213  0.00  0.00    -0.610 N 
ATOM      5  C   LIG    1       -0.013   1.086   0.008  0.00  0.00    +0.310 C 
ATOM      6  O   LIG    1       -2.804   1.662   0.376  0.00  0.00    -0.520 OA
ATOM      7  C   LIG    1       -0.031   1.836   2.490  0.00  0.00    +0.320 C 
ENDROOT
BRANCH   7   8
ATOM      8  C   LIG    1        0.675   3.167   2.431  0.00  0.00    -0.240 A 
ATOM      9  C   LIG    1        1.876   3.456   2.984  0.00  0.00    +0.250 A 
ATOM     10  N   LIG    1        2.157   4.749   2.704  0.00  0.00    -0.320 N 
ATOM     11  N   LIG    1        1.088   5.271   1.964  0.00  0.00    -0.280 NA
ATOM     12  C   LIG    1        0.201   4.322   1.801  0.00  0.00    +0.260 A 
BRANCH  10  13
ATOM     13  C   LIG    1        3.311   5.445   3.091  0.00  0.00    +0.150 A 
ATOM     14  C   LIG    1        4.294   4.803   3.832  0.00  0.00    +0.030 A 
ATOM     15  C   LIG    1        5.432   5.490   4.209  0.00  0.00    +0.020 A 
ATOM     16  C   LIG    1        5.588   6.820   3.856  0.00  0.00    +0.090 A 
ATOM     17  C   LIG    1        4.606   7.463   3.121  0.00  0.00    +0.020 A 
ATOM     18  F   LIG    1        6.699   7.491   4.230  0.00  0.00    -0.130 F 
ATOM     19  C   LIG    1        3.469   6.779   2.739  0.00  0.00    +0.060 A 
ENDBRANCH  10  13
ENDBRANCH   7   8
BRANCH   1  20
ATOM     20  C   LIG    1       -1.352   0.499   4.189  0.00  0.00    +0.300 C 
BRANCH  20  25
ATOM     21  C   LIG    1       -3.950  -1.594   7.740  0.00  0.00    +0.310 C 
ATOM     22  N   LIG    1       -3.587  -0.405   6.965  0.00  0.00    -0.750 N 
ATOM     23  H   LIG    1       -4.004   0.449   7.164  0.00  0.00    +0.400 HD
ATOM     24  C   LIG    1       -2.676  -0.496   5.976  0.00  0.00    +0.700 C 
ATOM     25  N   LIG    1       -2.343   0.599   5.264  0.00  0.00    -0.750 N 
ATOM     26  H   LIG    1       -2.759   1.452   5.463  0.00  0.00    +0.400 HD
ATOM     27  O   LIG    1       -2.155  -1.565   5.727  0.00  0.00    -0.590 OA
ENDBRANCH  20  25
ENDBRANCH   1  20
TORSDOF 4
