REMARK  Name = ZINCkj000005gImU.1
REMARK                            x       y       z     vdW  Elec       q    Type
REMARK                         _______ _______ _______ _____ _____    ______ ____
ROOT
ATOM      1  N   LIG    1        5.964   3.387   0.614  0.00  0.00    -0.380 N 
ATOM      2  C   LIG    1        5.874   1.933   0.798  0.00  0.00    +0.260 C 
ATOM      3  C   LIG    1        4.905   1.347  -0.234  0.00  0.00    +0.330 C 
ATOM      4  N   LIG    1        3.620   2.054  -0.120  0.00  0.00    -0.630 N 
ATOM      5  C   LIG    1        3.634   3.525  -0.137  0.00  0.00    +0.310 C 
ATOM      6  C   LIG    1        2.462   1.373  -0.010  0.00  0.00    +0.580 C 
ATOM      7  O   LIG    1        2.476   0.163   0.105  0.00  0.00    -0.490 OA
ATOM      8  C   LIG    1        4.664   4.008   0.896  0.00  0.00    +0.260 C 
ATOM      9  H   LIG    1        6.231   3.588  -0.339  0.00  0.00    +0.430 HD
ENDROOT
BRANCH   6  10
ATOM     10  C   LIG    1        1.175   2.098  -0.028  0.00  0.00    -0.180 A 
ATOM     11  C   LIG    1        0.878   2.975  -1.073  0.00  0.00    +0.070 A 
ATOM     12  C   LIG    1       -0.325   3.648  -1.084  0.00  0.00    +0.010 A 
ATOM     13  C   LIG    1       -1.239   3.458  -0.062  0.00  0.00    +0.090 A 
ATOM     14  C   LIG    1       -0.957   2.587   0.974  0.00  0.00    +0.000 A 
ATOM     15  C   LIG    1        0.247   1.909   1.002  0.00  0.00    +0.150 A 
ATOM     16  F   LIG    1        0.525   1.063   2.018  0.00  0.00    -0.120 F 
ENDBRANCH   6  10
BRANCH   1  17
ATOM     17  C   LIG    1        6.975   3.933   1.529  0.00  0.00    +0.230 C 
BRANCH  17  18
ATOM     18  C   LIG    1        8.357   3.406   1.136  0.00  0.00    +0.200 C 
BRANCH  18  20
ATOM     19  C   LIG    1       10.771   3.352   1.776  0.00  0.00    +0.040 C 
ATOM     20  C   LIG    1        9.409   3.974   2.090  0.00  0.00    +0.010 C 
ENDBRANCH  18  20
BRANCH  18  21
ATOM     21  O   LIG    1        8.658   3.810  -0.201  0.00  0.00    -0.550 OA
ATOM     22  H   LIG    1        8.671   4.769  -0.329  0.00  0.00    +0.390 HD
ENDBRANCH  18  21
ENDBRANCH  17  18
ENDBRANCH   1  17
TORSDOF 5
