REMARK  Name = ZINCkj000005jHBq.0
REMARK                            x       y       z     vdW  Elec       q    Type
REMARK                         _______ _______ _______ _____ _____    ______ ____
ROOT
ATOM      1  N   LIG    1        1.503   2.402  -0.787  0.00  0.00    -0.750 N 
ATOM      2  H   LIG    1        1.715   3.338  -0.935  0.00  0.00    +0.390 HD
ATOM      3  C   LIG    1        0.242   1.961  -0.962  0.00  0.00    +0.710 C 
ATOM      4  N   LIG    1       -0.745   2.835  -1.247  0.00  0.00    -0.620 N 
ATOM      5  C   LIG    1       -2.139   2.384  -1.344  0.00  0.00    +0.300 C 
ATOM      6  C   LIG    1       -2.999   3.249  -0.409  0.00  0.00    +0.020 C 
ATOM      7  C   LIG    1       -2.791   4.725  -0.755  0.00  0.00    -0.010 C 
ATOM      8  C   LIG    1       -1.322   5.098  -0.542  0.00  0.00    +0.020 C 
ATOM      9  C   LIG    1       -0.444   4.255  -1.472  0.00  0.00    +0.260 C 
ATOM     10  O   LIG    1       -0.006   0.774  -0.869  0.00  0.00    -0.580 OA
ENDROOT
BRANCH   1  12
ATOM     11  C   LIG    1        3.127   0.768  -1.607  0.00  0.00    +0.030 C 
ATOM     12  C   LIG    1        2.555   1.470  -0.374  0.00  0.00    +0.280 C 
BRANCH  12  13
ATOM     13  C   LIG    1        3.668   2.240   0.338  0.00  0.00    -0.100 C 
ATOM     14  C   LIG    1        3.096   2.942   1.571  0.00  0.00    +0.070 C 
ATOM     15  C   LIG    1        4.257   3.283  -0.615  0.00  0.00    +0.050 C 
BRANCH  13  16
ATOM     16  C   LIG    1        4.767   1.266   0.769  0.00  0.00    +0.280 C 
BRANCH  16  17
ATOM     17  N   LIG    1        5.819   2.001   1.484  0.00  0.00    -0.390 N 
ATOM     18  C   LIG    1        7.093   1.281   1.353  0.00  0.00    +0.310 C 
ATOM     19  C   LIG    1        5.462   2.110   2.904  0.00  0.00    +0.300 C 
ATOM     20  H   LIG    1        5.913   2.924   1.088  0.00  0.00    +0.420 HD
ENDBRANCH  16  17
ENDBRANCH  13  16
ENDBRANCH  12  13
ENDBRANCH   1  12
BRANCH   7  21
ATOM     21  C   LIG    1       -3.673   5.589   0.148  0.00  0.00    +0.170 C 
BRANCH  21  22
ATOM     22  O   LIG    1       -5.048   5.324  -0.135  0.00  0.00    -0.570 OA
ATOM     23  H   LIG    1       -5.666   5.838   0.403  0.00  0.00    +0.380 HD
ENDBRANCH  21  22
ENDBRANCH   7  21
TORSDOF 6
