REMARK  Name = ZINCrD000000fcgu.0
REMARK                            x       y       z     vdW  Elec       q    Type
REMARK                         _______ _______ _______ _____ _____    ______ ____
ROOT
ATOM      1  N   LIG    1        0.004  -0.004   0.003  0.00  0.00    -0.600 N 
ATOM      2  C   LIG    1        1.024  -0.670   0.579  0.00  0.00    +0.520 C 
ATOM      3  O   LIG    1        1.928  -0.058   1.107  0.00  0.00    -0.520 OA
ATOM      4  C   LIG    1       -1.088  -0.744  -0.634  0.00  0.00    +0.290 C 
ENDROOT
BRANCH   1   5
ATOM      5  C   LIG    1       -0.012   1.461   0.013  0.00  0.00    +0.340 C 
BRANCH   5   8
ATOM      6  N   LIG    1       -0.862   3.269   1.472  0.00  0.00    -0.670 N 
ATOM      7  H   LIG    1       -0.445   3.908   0.873  0.00  0.00    +0.410 HD
ATOM      8  C   LIG    1       -0.725   1.947   1.249  0.00  0.00    +0.500 C 
ATOM      9  O   LIG    1       -1.175   1.148   2.043  0.00  0.00    -0.510 OA
BRANCH   6  14
ATOM     10  C   LIG    1       -2.336   3.461   4.845  0.00  0.00    +0.030 A 
ATOM     11  C   LIG    1       -3.091   4.630   4.730  0.00  0.00    +0.020 A 
ATOM     12  C   LIG    1       -3.099   5.332   3.542  0.00  0.00    +0.030 A 
ATOM     13  C   LIG    1       -2.357   4.886   2.465  0.00  0.00    -0.010 A 
ATOM     14  C   LIG    1       -1.607   3.720   2.567  0.00  0.00    +0.140 A 
ATOM     15  C   LIG    1       -1.593   3.007   3.756  0.00  0.00    +0.040 A 
BRANCH  10  17
ATOM     16  C   LIG    1       -2.317   2.132   7.086  0.00  0.00    +0.060 C 
ATOM     17  C   LIG    1       -2.326   2.731   6.076  0.00  0.00    -0.160 C 
ENDBRANCH  10  17
ENDBRANCH   6  14
ENDBRANCH   5   8
ENDBRANCH   1   5
BRANCH   2  18
ATOM     18  C   LIG    1        1.041  -2.177   0.569  0.00  0.00    +0.120 C 
BRANCH  18  19
ATOM     19  C   LIG    1        2.278  -2.671   1.273  0.00  0.00    -0.070 A 
ATOM     20  C   LIG    1        3.440  -2.889   0.557  0.00  0.00    +0.060 A 
ATOM     21  C   LIG    1        4.577  -3.337   1.203  0.00  0.00    +0.020 A 
ATOM     22  C   LIG    1        4.549  -3.577   2.564  0.00  0.00    +0.070 A 
ATOM     23  C   LIG    1        3.385  -3.364   3.280  0.00  0.00    -0.180 A 
ATOM     24  C   LIG    1        2.250  -2.911   2.634  0.00  0.00    +0.080 A 
BRANCH  23  25
ATOM     25  C   LIG    1        3.354  -3.626   4.764  0.00  0.00    +0.510 C 
ATOM     26  F   LIG    1        2.432  -2.766   5.370  0.00  0.00    -0.180 F 
ATOM     27  F   LIG    1        4.625  -3.401   5.303  0.00  0.00    -0.180 F 
ATOM     28  F   LIG    1        2.977  -4.953   4.995  0.00  0.00    -0.180 F 
ENDBRANCH  23  25
ENDBRANCH  18  19
ENDBRANCH   2  18
TORSDOF 7
