REMARK  Name = ZINCb80000002B4V.1
REMARK                            x       y       z     vdW  Elec       q    Type
REMARK                         _______ _______ _______ _____ _____    ______ ____
ROOT
ATOM      1  C   LIG    1        3.928   2.808  -2.887  0.00  0.00    +0.220 A 
ATOM      2  C   LIG    1        2.735   2.262  -3.360  0.00  0.00    +0.000 A 
ATOM      3  C   LIG    1        1.781   1.815  -2.489  0.00  0.00    +0.090 A 
ATOM      4  C   LIG    1        1.996   1.900  -1.120  0.00  0.00    -0.020 A 
ATOM      5  C   LIG    1        3.196   2.449  -0.630  0.00  0.00    +0.070 A 
ATOM      6  N   LIG    1        3.100   2.392   0.714  0.00  0.00    -0.240 NA
ATOM      7  N   LIG    1        1.968   1.873   1.036  0.00  0.00    -0.000 NA
ATOM      8  N   LIG    1        1.275   1.556  -0.002  0.00  0.00    -0.180 N 
ATOM      9  C   LIG    1        4.164   2.904  -1.529  0.00  0.00    -0.010 A 
ENDROOT
BRANCH   1  10
ATOM     10  N   LIG    1        4.893   3.261  -3.794  0.00  0.00    -0.870 N 
ATOM     11  H   LIG    1        4.731   3.195  -4.748  0.00  0.00    +0.400 HD
ATOM     12  H   LIG    1        5.724   3.641  -3.468  0.00  0.00    +0.400 HD
ENDBRANCH   1  10
BRANCH   8  13
ATOM     13  O   LIG    1       -0.011   0.963   0.007  0.00  0.00    -0.260 OA
ATOM     14  H   LIG    1        0.002  -0.004   0.002  0.00  0.00    +0.400 HD
ENDBRANCH   8  13
TORSDOF 2
