REMARK  Name = ZINCb80000001CK4.0
REMARK                            x       y       z     vdW  Elec       q    Type
REMARK                         _______ _______ _______ _____ _____    ______ ____
ROOT
ATOM      1  C   LIG    1       -0.018   1.473   0.010  0.00  0.00    -0.040 A 
ATOM      2  N   LIG    1       -1.083   2.260   0.019  0.00  0.00    -0.210 NA
ATOM      3  N   LIG    1       -0.687   3.483   0.026  0.00  0.00    -0.220 N 
ATOM      4  H   LIG    1       -1.279   4.252   0.036  0.00  0.00    +0.480 HD
ATOM      5  N   LIG    1        0.596   3.554   0.015  0.00  0.00    -0.280 NA
ATOM      6  C   LIG    1        1.093   2.341   0.004  0.00  0.00    +0.080 A 
ATOM      7  C   LIG    1        2.549   1.954  -0.012  0.00  0.00    +0.190 C 
ENDROOT
BRANCH   1   8
ATOM      8  C   LIG    1        0.002  -0.004   0.002  0.00  0.00    +0.560 C 
ATOM      9  O   LIG    1        1.062  -0.597  -0.011  0.00  0.00    -0.490 OA
BRANCH   8  10
ATOM     10  O   LIG    1       -1.155  -0.693   0.009  0.00  0.00    -0.340 OA
BRANCH  10  12
ATOM     11  C   LIG    1       -2.465  -2.746   0.011  0.00  0.00    +0.070 C 
ATOM     12  C   LIG    1       -1.060  -2.142   0.001  0.00  0.00    +0.200 C 
ENDBRANCH  10  12
ENDBRANCH   8  10
ENDBRANCH   1   8
TORSDOF 3
