REMARK  Name = ZINCpe00000MBqq5.0
REMARK                            x       y       z     vdW  Elec       q    Type
REMARK                         _______ _______ _______ _____ _____    ______ ____
ROOT
ATOM      1  N   LIG    1       -2.143   3.373   1.268  0.00  0.00    -0.560 N 
ATOM      2  C   LIG    1       -2.885   2.260   1.268  0.00  0.00    +0.710 C 
ATOM      3  N   LIG    1       -2.135   1.139   1.269  0.00  0.00    -0.720 N 
ATOM      4  H   LIG    1       -2.455   0.224   1.271  0.00  0.00    +0.440 HD
ATOM      5  C   LIG    1       -0.729   1.579   1.267  0.00  0.00    +0.170 C 
ATOM      6  C   LIG    1       -0.013   1.086   0.008  0.00  0.00    +0.100 C 
ATOM      7  O   LIG    1       -4.101   2.258   1.269  0.00  0.00    -0.530 OA
ATOM      8  C   LIG    1       -0.825   3.092   1.267  0.00  0.00    +0.540 C 
ATOM      9  O   LIG    1        0.092   3.884   1.267  0.00  0.00    -0.440 OA
ENDROOT
BRANCH   5  10
ATOM     10  C   LIG    1       -0.019   1.093   2.504  0.00  0.00    -0.110 A 
ATOM     11  C   LIG    1       -0.682   0.287   3.409  0.00  0.00    +0.040 A 
ATOM     12  C   LIG    1       -0.028  -0.165   4.543  0.00  0.00    +0.090 A 
ATOM     13  C   LIG    1        1.287   0.201   4.775  0.00  0.00    +0.040 A 
ATOM     14  C   LIG    1        1.949   1.012   3.873  0.00  0.00    +0.030 A 
ATOM     15  F   LIG    1       -0.674  -0.958   5.425  0.00  0.00    -0.130 F 
ATOM     16  C   LIG    1        1.296   1.458   2.736  0.00  0.00    +0.120 A 
ATOM     17  F   LIG    1        1.943   2.251   1.854  0.00  0.00    -0.110 F 
ENDBRANCH   5  10
BRANCH   1  18
ATOM     18  C   LIG    1       -2.696   4.730   1.268  0.00  0.00    +0.360 C 
BRANCH  18  21
ATOM     19  N   LIG    1       -3.385   6.422  -0.400  0.00  0.00    -0.720 N 
ATOM     20  H   LIG    1       -3.623   7.006   0.338  0.00  0.00    +0.410 HD
ATOM     21  C   LIG    1       -2.886   5.195  -0.153  0.00  0.00    +0.500 C 
ATOM     22  O   LIG    1       -2.589   4.464  -1.075  0.00  0.00    -0.530 OA
BRANCH  19  23
ATOM     23  C   LIG    1       -3.570   6.874  -1.781  0.00  0.00    +0.250 C 
ATOM     24  C   LIG    1       -2.259   7.463  -2.305  0.00  0.00    +0.040 C 
BRANCH  23  25
ATOM     25  C   LIG    1       -4.664   7.943  -1.825  0.00  0.00    +0.180 C 
BRANCH  25  27
ATOM     26  C   LIG    1       -5.183  10.163  -1.085  0.00  0.00    +0.200 C 
ATOM     27  O   LIG    1       -4.230   9.098  -1.105  0.00  0.00    -0.390 OA
ENDBRANCH  25  27
ENDBRANCH  23  25
ENDBRANCH  19  23
ENDBRANCH  18  21
ENDBRANCH   1  18
TORSDOF 6
