REMARK  Name = ZINCtV00001bB3in.0
REMARK                            x       y       z     vdW  Elec       q    Type
REMARK                         _______ _______ _______ _____ _____    ______ ____
ROOT
ATOM      1  C   LIG    1       -5.976   2.602   0.044  0.00  0.00    +0.210 C 
ATOM      2  C   LIG    1       -4.946   1.811   0.470  0.00  0.00    -0.030 C 
ENDROOT
BRANCH   1   6
ATOM      3  C   LIG    1       -9.886  -0.657  -0.207  0.00  0.00    +0.120 C 
ATOM      4  C   LIG    1       -9.050   0.595  -0.160  0.00  0.00    +0.030 A 
ATOM      5  C   LIG    1       -7.710   0.633  -0.061  0.00  0.00    -0.010 A 
ATOM      6  C   LIG    1       -7.330   2.052  -0.049  0.00  0.00    -0.190 A 
ATOM      7  C   LIG    1       -8.512   2.763  -0.139  0.00  0.00    +0.100 A 
ATOM      8  C   LIG    1       -8.644   4.264  -0.157  0.00  0.00    +0.140 C 
ATOM      9  N   LIG    1       -9.533   1.873  -0.210  0.00  0.00    -0.390 N 
BRANCH   9  10
ATOM     10  C   LIG    1      -10.889   2.213  -0.314  0.00  0.00    +0.110 A 
ATOM     11  C   LIG    1      -11.652   2.390   0.832  0.00  0.00    +0.050 A 
ATOM     12  C   LIG    1      -12.986   2.732   0.726  0.00  0.00    +0.030 A 
ATOM     13  C   LIG    1      -13.565   2.886  -0.520  0.00  0.00    +0.050 A 
ATOM     14  C   LIG    1      -12.810   2.705  -1.664  0.00  0.00    +0.040 A 
ATOM     15  C   LIG    1      -11.473   2.369  -1.565  0.00  0.00    -0.030 A 
ATOM     16 CL   LIG    1      -10.526   2.142  -3.002  0.00  0.00    -0.040 Cl
ENDBRANCH   9  10
ENDBRANCH   1   6
BRANCH   2  17
ATOM     17  C   LIG    1       -3.561   2.316   0.423  0.00  0.00    +0.130 A 
ATOM     18  N   LIG    1       -2.506   1.654   0.801  0.00  0.00    -0.460 NA
ATOM     19  C   LIG    1       -1.341   2.267   0.686  0.00  0.00    +0.120 A 
ATOM     20  C   LIG    1       -1.392   3.520   0.191  0.00  0.00    -0.060 A 
ATOM     21  S   LIG    1       -3.076   3.908  -0.154  0.00  0.00    +0.110 S 
BRANCH  19  22
ATOM     22  C   LIG    1       -0.064   1.624   1.081  0.00  0.00    -0.030 A 
ATOM     23  C   LIG    1        1.140   2.310   0.936  0.00  0.00    +0.020 A 
ATOM     24  C   LIG    1        2.325   1.704   1.300  0.00  0.00    +0.010 A 
ATOM     25  C   LIG    1        2.320   0.418   1.808  0.00  0.00    +0.010 A 
ATOM     26  C   LIG    1        1.128  -0.269   1.955  0.00  0.00    +0.010 A 
ATOM     27  C   LIG    1       -0.064   0.328   1.594  0.00  0.00    +0.050 A 
ENDBRANCH  19  22
ENDBRANCH   2  17
BRANCH   2  28
ATOM     28  C   LIG    1       -5.212   0.493   0.963  0.00  0.00    +0.280 C 
ATOM     29  N   LIG    1       -5.422  -0.553   1.353  0.00  0.00    -0.420 NA
ENDBRANCH   2  28
TORSDOF 5
