REMARK  Name = ZINCkj000005hxrd.0
REMARK                            x       y       z     vdW  Elec       q    Type
REMARK                         _______ _______ _______ _____ _____    ______ ____
ROOT
ATOM      1  C   LIG    1        1.297   1.944   0.488  0.00  0.00    -0.030 C 
ATOM      2  C   LIG    1       -0.183   1.509   0.660  0.00  0.00    +0.070 C 
ATOM      3  C   LIG    1       -0.119  -0.020   0.459  0.00  0.00    +0.260 C 
ATOM      4  N   LIG    1        1.262  -0.440   0.734  0.00  0.00    -0.620 N 
ATOM      5  C   LIG    1        1.733  -1.700   0.648  0.00  0.00    +0.590 C 
ATOM      6  O   LIG    1        2.918  -1.918   0.805  0.00  0.00    -0.520 OA
ATOM      7  C   LIG    1        2.049   0.746   1.121  0.00  0.00    +0.270 C 
ENDROOT
BRANCH   5   8
ATOM      8  C   LIG    1        0.809  -2.814   0.362  0.00  0.00    -0.100 A 
ATOM      9  C   LIG    1        1.159  -3.799  -0.571  0.00  0.00    +0.080 A 
ATOM     10  N   LIG    1        2.259  -4.012  -1.370  0.00  0.00    -0.590 N 
ATOM     11  H   LIG    1        3.051  -3.454  -1.418  0.00  0.00    +0.430 HD
ATOM     12  C   LIG    1        2.031  -5.150  -2.080  0.00  0.00    +0.510 A 
ATOM     13  N   LIG    1        0.874  -5.652  -1.760  0.00  0.00    -0.490 NA
ATOM     14  C   LIG    1        0.276  -4.859  -0.833  0.00  0.00    +0.070 A 
ATOM     15  C   LIG    1       -0.951  -4.915  -0.168  0.00  0.00    +0.080 A 
ATOM     16  C   LIG    1       -1.289  -3.936   0.746  0.00  0.00    +0.090 A 
ATOM     17  F   LIG    1       -2.478  -3.999   1.384  0.00  0.00    -0.130 F 
ATOM     18  C   LIG    1       -0.421  -2.891   1.014  0.00  0.00    +0.050 A 
ENDBRANCH   5   8
BRANCH   1  19
ATOM     19  C   LIG    1        1.581   3.237   1.255  0.00  0.00    +0.280 C 
BRANCH  19  21
ATOM     20  C   LIG    1        3.225   4.923   1.709  0.00  0.00    +0.330 C 
ATOM     21  N   LIG    1        2.952   3.682   0.973  0.00  0.00    -0.510 N 
ATOM     22  H   LIG    1        3.055   3.848  -0.017  0.00  0.00    +0.430 HD
ATOM     23  H   LIG    1        3.604   2.968   1.264  0.00  0.00    +0.430 HD
ENDBRANCH  19  21
ENDBRANCH   1  19
TORSDOF 3
