REMARK  Name = ZINCkj000005hmjT.1
REMARK                            x       y       z     vdW  Elec       q    Type
REMARK                         _______ _______ _______ _____ _____    ______ ____
ROOT
ATOM      1  C   LIG    1        0.106   1.449   0.024  0.00  0.00    +0.510 C 
ATOM      2  N   LIG    1       -1.128   1.992   0.026  0.00  0.00    -0.590 N 
ATOM      3  C   LIG    1       -1.315   3.443   0.176  0.00  0.00    +0.290 C 
ATOM      4  C   LIG    1       -2.228   3.932  -0.959  0.00  0.00    +0.190 C 
ATOM      5  N   LIG    1       -3.468   3.143  -0.957  0.00  0.00    -0.530 NA
ATOM      6  C   LIG    1       -3.198   1.726  -1.234  0.00  0.00    +0.180 C 
ATOM      7  C   LIG    1       -2.324   1.147  -0.116  0.00  0.00    +0.300 C 
ATOM      8  O   LIG    1        0.241   0.250  -0.096  0.00  0.00    -0.530 OA
ENDROOT
BRANCH   1  14
ATOM      9  C   LIG    1        3.383   1.932  -1.002  0.00  0.00    +0.330 C 
ATOM     10  N   LIG    1        2.543   1.515   0.129  0.00  0.00    -0.380 N 
ATOM     11  C   LIG    1        3.280   1.713   1.395  0.00  0.00    +0.270 C 
ATOM     12  C   LIG    1        2.202   2.161   2.414  0.00  0.00    +0.080 C 
ATOM     13  C   LIG    1        1.288   3.051   1.531  0.00  0.00    +0.100 C 
ATOM     14  C   LIG    1        1.318   2.334   0.165  0.00  0.00    +0.160 C 
ATOM     15  H   LIG    1        2.298   0.541   0.027  0.00  0.00    +0.430 HD
ENDBRANCH   1  14
BRANCH   5  16
ATOM     16  C   LIG    1       -4.441   3.690  -1.912  0.00  0.00    +0.220 C 
ATOM     17  C   LIG    1       -5.714   2.900  -1.832  0.00  0.00    -0.050 C 
ATOM     18  C   LIG    1       -6.399   2.523  -2.864  0.00  0.00    -0.030 C 
ATOM     19  C   LIG    1       -6.012   2.816  -4.283  0.00  0.00    +0.050 C 
ATOM     20  C   LIG    1       -4.978   3.944  -4.325  0.00  0.00    +0.020 C 
ATOM     21  C   LIG    1       -3.862   3.616  -3.326  0.00  0.00    -0.020 C 
ENDBRANCH   5  16
TORSDOF 2
