REMARK  Name = ZINCkj000005hmjT.0
REMARK                            x       y       z     vdW  Elec       q    Type
REMARK                         _______ _______ _______ _____ _____    ______ ____
ROOT
ATOM      1  C   LIG    1        5.337   2.823  -3.528  0.00  0.00    +0.500 C 
ATOM      2  N   LIG    1        4.393   3.395  -2.754  0.00  0.00    -0.590 N 
ATOM      3  C   LIG    1        4.696   3.805  -1.374  0.00  0.00    +0.300 C 
ATOM      4  C   LIG    1        3.627   3.216  -0.447  0.00  0.00    +0.180 C 
ATOM      5  N   LIG    1        2.295   3.603  -0.932  0.00  0.00    -0.530 NA
ATOM      6  C   LIG    1        2.031   3.045  -2.265  0.00  0.00    +0.180 C 
ATOM      7  C   LIG    1        3.034   3.626  -3.267  0.00  0.00    +0.280 C 
ATOM      8  O   LIG    1        6.420   2.544  -3.058  0.00  0.00    -0.510 OA
ENDROOT
BRANCH   1  14
ATOM      9  C   LIG    1        5.338   0.377  -3.946  0.00  0.00    +0.330 C 
ATOM     10  N   LIG    1        5.069   1.075  -5.210  0.00  0.00    -0.380 N 
ATOM     11  C   LIG    1        6.141   0.769  -6.181  0.00  0.00    +0.270 C 
ATOM     12  C   LIG    1        6.341   2.084  -6.976  0.00  0.00    +0.080 C 
ATOM     13  C   LIG    1        6.142   3.152  -5.869  0.00  0.00    +0.100 C 
ATOM     14  C   LIG    1        5.047   2.530  -4.978  0.00  0.00    +0.150 C 
ATOM     15  H   LIG    1        4.180   0.776  -5.581  0.00  0.00    +0.430 HD
ENDBRANCH   1  14
BRANCH   5  16
ATOM     16  C   LIG    1        1.251   3.205   0.022  0.00  0.00    +0.220 C 
ATOM     17  C   LIG    1        1.428   3.971   1.300  0.00  0.00    -0.050 C 
ATOM     18  C   LIG    1        1.320   3.448   2.479  0.00  0.00    -0.030 C 
ATOM     19  C   LIG    1        1.018   2.000   2.733  0.00  0.00    +0.060 C 
ATOM     20  C   LIG    1        0.439   1.355   1.470  0.00  0.00    +0.020 C 
ATOM     21  C   LIG    1        1.354   1.702   0.289  0.00  0.00    -0.020 C 
ENDBRANCH   5  16
TORSDOF 2
