REMARK  Name = ZINCvU0000000JIU.0
REMARK                            x       y       z     vdW  Elec       q    Type
REMARK                         _______ _______ _______ _____ _____    ______ ____
ROOT
ATOM      1  C   LIG    1       -4.083   0.546   0.231  0.00  0.00    +0.160 A 
ATOM      2  N   LIG    1       -3.295  -0.490   0.405  0.00  0.00    -0.290 NA
ATOM      3  N   LIG    1       -2.065  -0.127   0.326  0.00  0.00    -0.250 NA
ATOM      4  C   LIG    1       -1.992   1.163   0.097  0.00  0.00    +0.220 A 
ATOM      5  N   LIG    1       -3.283   1.635   0.034  0.00  0.00    -0.450 N 
ENDROOT
BRANCH   4   6
ATOM      6  C   LIG    1       -0.756   1.960  -0.059  0.00  0.00    -0.010 A 
ATOM      7  C   LIG    1       -0.626   2.848  -1.127  0.00  0.00    +0.040 A 
ATOM      8  C   LIG    1        0.532   3.585  -1.270  0.00  0.00    +0.030 A 
ATOM      9  C   LIG    1        1.561   3.447  -0.355  0.00  0.00    +0.050 A 
ATOM     10  C   LIG    1        1.437   2.572   0.709  0.00  0.00    +0.030 A 
ATOM     11  C   LIG    1        0.283   1.830   0.865  0.00  0.00    -0.000 A 
ATOM     12 CL   LIG    1        0.128   0.733   2.201  0.00  0.00    -0.040 Cl
ENDBRANCH   4   6
BRANCH   5  13
ATOM     13  C   LIG    1       -3.709   3.017  -0.198  0.00  0.00    +0.230 C 
ATOM     14  C   LIG    1       -4.561   3.514   0.988  0.00  0.00    +0.030 C 
ATOM     15  C   LIG    1       -5.650   4.398   0.330  0.00  0.00    +0.030 C 
ATOM     16  C   LIG    1       -5.975   3.627  -0.973  0.00  0.00    +0.040 C 
ATOM     17  C   LIG    1       -4.608   3.089  -1.445  0.00  0.00    +0.020 C 
ENDBRANCH   5  13
BRANCH   1  18
ATOM     18  S   LIG    1       -5.845   0.535   0.254  0.00  0.00    +0.050 S 
BRANCH  18  19
ATOM     19  C   LIG    1       -6.144  -1.222   0.570  0.00  0.00    +0.170 C 
BRANCH  19  27
ATOM     20  C   LIG    1      -12.381  -2.809  -0.273  0.00  0.00    +0.160 C 
ATOM     21  C   LIG    1      -11.652  -2.136   0.861  0.00  0.00    +0.140 A 
ATOM     22  C   LIG    1      -12.336  -1.749   1.960  0.00  0.00    -0.020 A 
ATOM     23  C   LIG    1      -11.669  -1.122   3.021  0.00  0.00    +0.140 A 
ATOM     24  C   LIG    1      -10.326  -0.906   2.937  0.00  0.00    +0.020 A 
ATOM     25  C   LIG    1       -9.630  -1.316   1.784  0.00  0.00    +0.400 A 
ATOM     26  N   LIG    1       -8.317  -1.110   1.702  0.00  0.00    -0.540 NA
ATOM     27  C   LIG    1       -7.628  -1.475   0.632  0.00  0.00    +0.220 A 
ATOM     28  C   LIG    1       -8.268  -2.094  -0.424  0.00  0.00    -0.160 A 
ATOM     29  C   LIG    1       -9.647  -2.319  -0.342  0.00  0.00    +0.510 A 
ATOM     30  O   LIG    1      -10.242  -2.864  -1.259  0.00  0.00    -0.520 OA
ATOM     31  N   LIG    1      -10.310  -1.924   0.766  0.00  0.00    -0.430 N 
ENDBRANCH  19  27
ENDBRANCH  18  19
ENDBRANCH   1  18
TORSDOF 5
