REMARK  Name = ZINCtj00000oNkmP.0
REMARK                            x       y       z     vdW  Elec       q    Type
REMARK                         _______ _______ _______ _____ _____    ______ ____
ROOT
ATOM      1  C   LIG    1        0.119  -2.227   6.847  0.00  0.00    +0.740 C 
ENDROOT
BRANCH   1   2
ATOM      2  N   LIG    1        0.851  -2.784   7.868  0.00  0.00    -0.630 NA
ATOM      3  C   LIG    1        1.318  -4.177   7.790  0.00  0.00    +0.330 C 
ATOM      4  C   LIG    1        2.826  -4.197   8.086  0.00  0.00    +0.210 C 
ATOM      5  N   LIG    1        3.075  -3.530   9.372  0.00  0.00    -0.470 N 
ATOM      6  C   LIG    1        2.691  -2.114   9.321  0.00  0.00    +0.230 C 
ATOM      7  C   LIG    1        1.182  -2.006   9.072  0.00  0.00    +0.310 C 
BRANCH   5   8
ATOM      8  C   LIG    1        4.404  -3.672   9.757  0.00  0.00    +0.300 A 
ATOM      9  C   LIG    1        4.957  -4.944   9.870  0.00  0.00    -0.040 A 
ATOM     10  C   LIG    1        6.281  -5.070  10.249  0.00  0.00    +0.090 A 
ATOM     11  C   LIG    1        7.007  -3.917  10.514  0.00  0.00    -0.050 A 
ATOM     12  C   LIG    1        6.393  -2.687  10.387  0.00  0.00    +0.290 A 
ATOM     13  N   LIG    1        5.130  -2.596  10.018  0.00  0.00    -0.520 NA
ENDBRANCH   5   8
ENDBRANCH   1   2
BRANCH   1  14
ATOM     14  N   LIG    1        0.515  -2.362   5.612  0.00  0.00    -0.640 NA
ATOM     15  H   LIG    1        1.361  -2.796   5.419  0.00  0.00    +0.440 HD
BRANCH  14  16
ATOM     16  C   LIG    1       -0.318  -1.859   4.517  0.00  0.00    +0.280 C 
BRANCH  16  17
ATOM     17  C   LIG    1        0.371  -2.143   3.181  0.00  0.00    +0.050 C 
BRANCH  17  18
ATOM     18  C   LIG    1       -0.498  -1.618   2.037  0.00  0.00    +0.180 C 
BRANCH  18  19
ATOM     19  O   LIG    1        0.146  -1.883   0.788  0.00  0.00    -0.380 OA
BRANCH  19  21
ATOM     20  C   LIG    1       -0.178   0.006  -0.683  0.00  0.00    +0.010 C 
ATOM     21  C   LIG    1       -0.587  -1.430  -0.351  0.00  0.00    +0.140 C 
ATOM     22  C   LIG    1       -0.283  -2.336  -1.546  0.00  0.00    +0.060 C 
ENDBRANCH  19  21
ENDBRANCH  18  19
ENDBRANCH  17  18
ENDBRANCH  16  17
ENDBRANCH  14  16
ENDBRANCH   1  14
BRANCH   1  23
ATOM     23  N   LIG    1       -1.030  -1.526   7.127  0.00  0.00    -0.670 NA
ATOM     24  H   LIG    1       -1.584  -1.193   6.404  0.00  0.00    +0.430 HD
BRANCH  23  25
ATOM     25  C   LIG    1       -1.418  -1.282   8.519  0.00  0.00    +0.320 C 
BRANCH  25  26
ATOM     26  C   LIG    1       -2.652  -0.378   8.553  0.00  0.00    +0.130 C 
ATOM     27  C   LIG    1       -3.054  -0.116  10.008  0.00  0.00    +0.210 C 
ATOM     28  O   LIG    1       -4.137   0.818  10.034  0.00  0.00    -0.370 OA
ATOM     29  C   LIG    1       -3.835   2.064   9.399  0.00  0.00    +0.200 C 
ATOM     30  C   LIG    1       -3.433   1.802   7.944  0.00  0.00    +0.210 C 
ATOM     31  O   LIG    1       -2.349   0.868   7.918  0.00  0.00    -0.380 OA
ENDBRANCH  25  26
ENDBRANCH  23  25
ENDBRANCH   1  23
TORSDOF 11
