REMARK  Name = ZINCrD000000D3V4.0
REMARK                            x       y       z     vdW  Elec       q    Type
REMARK                         _______ _______ _______ _____ _____    ______ ____
ROOT
ATOM      1  C   LIG    1       -0.294   2.075   0.040  0.00  0.00    -0.670 A 
ATOM      2  C   LIG    1       -1.420   2.878   0.004  0.00  0.00    +0.140 A 
ATOM      3  C   LIG    1       -1.291   4.255  -0.017  0.00  0.00    +0.010 A 
ATOM      4  C   LIG    1       -0.037   4.832  -0.014  0.00  0.00    +0.090 A 
ATOM      5  C   LIG    1        1.096   4.029   0.016  0.00  0.00    +0.100 A 
ATOM      6  C   LIG    1        0.963   2.646   0.043  0.00  0.00    +0.160 A 
ENDROOT
BRANCH   1   8
ATOM      7  O   LIG    1       -1.741   0.032  -0.479  0.00  0.00    -0.950 OA
ATOM      8  S   LIG    1       -0.465   0.322   0.074  0.00  0.00    +2.690 S 
ATOM      9  O   LIG    1        0.747  -0.209  -0.445  0.00  0.00    -0.940 OA
BRANCH   8  10
ATOM     10  N   LIG    1       -0.531  -0.133   1.665  0.00  0.00    -1.120 NA
ATOM     11  H   LIG    1        0.176  -0.679   2.043  0.00  0.00    +0.420 HD
BRANCH  10  12
ATOM     12  C   LIG    1       -1.657   0.289   2.502  0.00  0.00    +0.400 C 
BRANCH  12  13
ATOM     13  C   LIG    1       -1.682  -0.533   3.764  0.00  0.00    -0.040 A 
ATOM     14  C   LIG    1       -1.050  -0.231   4.912  0.00  0.00    -0.030 A 
ATOM     15  C   LIG    1       -1.346  -1.268   5.827  0.00  0.00    -0.070 A 
ATOM     16  C   LIG    1       -2.134  -2.146   5.180  0.00  0.00    +0.190 A 
ATOM     17  O   LIG    1       -2.334  -1.696   3.931  0.00  0.00    -0.170 OA
ENDBRANCH  12  13
ENDBRANCH  10  12
ENDBRANCH   8  10
ENDBRANCH   1   8
BRANCH   5  18
ATOM     18  N   LIG    1        2.367   4.610   0.020  0.00  0.00    -1.060 N 
ATOM     19  H   LIG    1        2.705   5.030   0.826  0.00  0.00    +0.430 HD
BRANCH  18  20
ATOM     20  S   LIG    1        3.294   4.581  -1.352  0.00  0.00    +2.690 S 
ATOM     21  O   LIG    1        3.292   3.236  -1.809  0.00  0.00    -0.930 OA
ATOM     22  O   LIG    1        4.483   5.297  -1.047  0.00  0.00    -0.940 OA
BRANCH  20  23
ATOM     23  C   LIG    1        2.446   5.524  -2.575  0.00  0.00    -0.670 A 
ATOM     24  C   LIG    1        1.498   4.919  -3.379  0.00  0.00    +0.150 A 
ATOM     25  C   LIG    1        0.828   5.660  -4.335  0.00  0.00    +0.020 A 
ATOM     26  C   LIG    1        1.114   7.002  -4.495  0.00  0.00    +0.110 A 
ATOM     27  C   LIG    1        2.067   7.607  -3.694  0.00  0.00    -0.110 A 
ATOM     28 BR   LIG    1        2.458   9.444  -3.912  0.00  0.00    -0.030 Br
ATOM     29  C   LIG    1        2.732   6.867  -2.734  0.00  0.00    +0.160 A 
ENDBRANCH  20  23
ENDBRANCH  18  20
ENDBRANCH   5  18
TORSDOF 7
