REMARK  Name = ZINCrD00000F5Lv1.0
REMARK                            x       y       z     vdW  Elec       q    Type
REMARK                         _______ _______ _______ _____ _____    ______ ____
ROOT
ATOM      1  C   LIG    1       -6.838  -4.706   0.007  0.00  0.00    -0.290 A 
ATOM      2  C   LIG    1       -7.170  -3.403   0.016  0.00  0.00    +0.070 A 
ATOM      3  C   LIG    1       -6.080  -2.533   0.017  0.00  0.00    -0.250 A 
ATOM      4  C   LIG    1       -4.857  -3.194   0.007  0.00  0.00    +0.050 A 
ATOM      5  N   LIG    1       -3.698  -2.449   0.001  0.00  0.00    -0.590 N 
ATOM      6  H   LIG    1       -2.839  -2.901  -0.010  0.00  0.00    +0.430 HD
ATOM      7  C   LIG    1       -3.739  -1.087   0.014  0.00  0.00    +0.490 A 
ATOM      8  N   LIG    1       -4.877  -0.418   0.023  0.00  0.00    -0.580 NA
ATOM      9  C   LIG    1       -6.055  -1.050   0.025  0.00  0.00    +0.550 A 
ATOM     10  O   LIG    1       -7.097  -0.414   0.033  0.00  0.00    -0.480 OA
ATOM     11  C   LIG    1       -8.599  -2.924   0.026  0.00  0.00    +0.160 C 
ATOM     12  S   LIG    1       -5.093  -4.885  -0.002  0.00  0.00    +0.300 S 
ENDROOT
BRANCH   1  13
ATOM     13  C   LIG    1       -7.794  -5.815   0.004  0.00  0.00    +0.550 C 
ATOM     14  O   LIG    1       -8.989  -5.587   0.010  0.00  0.00    -0.490 OA
BRANCH  13  15
ATOM     15  O   LIG    1       -7.350  -7.088  -0.006  0.00  0.00    -0.350 OA
BRANCH  15  17
ATOM     16  C   LIG    1       -7.650  -9.486  -0.019  0.00  0.00    +0.070 C 
ATOM     17  C   LIG    1       -8.339  -8.120  -0.008  0.00  0.00    +0.200 C 
ENDBRANCH  15  17
ENDBRANCH  13  15
ENDBRANCH   1  13
BRANCH   7  18
ATOM     18  C   LIG    1       -2.482  -0.341   0.012  0.00  0.00    -0.050 C 
ATOM     19  C   LIG    1       -2.498   1.009   0.019  0.00  0.00    +0.190 C 
BRANCH  19  20
ATOM     20  C   LIG    1       -1.234   1.759   0.018  0.00  0.00    -0.110 A 
ATOM     21  C   LIG    1       -0.013   1.076   0.008  0.00  0.00    +0.080 A 
ATOM     22  C   LIG    1        1.171   1.781   0.000  0.00  0.00    -0.060 A 
ATOM     23  C   LIG    1        1.156   3.169   0.008  0.00  0.00    +0.130 A 
ATOM     24  C   LIG    1       -0.057   3.858   0.024  0.00  0.00    +0.070 A 
ATOM     25  C   LIG    1       -1.247   3.159   0.032  0.00  0.00    +0.080 A 
BRANCH  24  26
ATOM     26  O   LIG    1       -0.066   5.218   0.032  0.00  0.00    -0.480 OA
ATOM     27  H   LIG    1       -0.078   5.616  -0.849  0.00  0.00    +0.390 HD
ENDBRANCH  24  26
BRANCH  23  28
ATOM     28  O   LIG    1        2.326   3.859   0.001  0.00  0.00    -0.300 OA
ATOM     29  C   LIG    1        3.532   3.092  -0.015  0.00  0.00    +0.250 C 
ENDBRANCH  23  28
ENDBRANCH  19  20
ENDBRANCH   7  18
TORSDOF 7
