REMARK  Name = ZINCrg000000sQMF.0
REMARK                            x       y       z     vdW  Elec       q    Type
REMARK                         _______ _______ _______ _____ _____    ______ ____
ROOT
ATOM      1  N   LIG    1        1.610   8.022   1.645  0.00  0.00    -0.710 N 
ATOM      2  H   LIG    1        2.408   7.473   1.679  0.00  0.00    +0.420 HD
ENDROOT
BRANCH   1   6
ATOM      3  N   LIG    1        2.509  11.459   1.880  0.00  0.00    -0.330 N 
ATOM      4  C   LIG    1        1.159  11.573   1.783  0.00  0.00    +0.270 A 
ATOM      5  C   LIG    1        0.646  10.326   1.684  0.00  0.00    -0.120 A 
ATOM      6  C   LIG    1        1.716   9.415   1.720  0.00  0.00    +0.360 A 
ATOM      7  N   LIG    1        2.830  10.097   1.843  0.00  0.00    -0.340 NA
BRANCH   3  14
ATOM      8  C   LIG    1        4.792  12.255   2.092  0.00  0.00    -0.000 A 
ATOM      9  C   LIG    1        5.689  13.318   2.212  0.00  0.00    +0.070 A 
ATOM     10  C   LIG    1        5.218  14.616   2.239  0.00  0.00    +0.090 A 
ATOM     11  C   LIG    1        3.858  14.868   2.148  0.00  0.00    +0.060 A 
ATOM     12  C   LIG    1        2.961  13.825   2.024  0.00  0.00    +0.030 A 
ATOM     13  F   LIG    1        6.087  15.644   2.354  0.00  0.00    -0.130 F 
ATOM     14  C   LIG    1        3.416  12.515   2.001  0.00  0.00    +0.210 A 
BRANCH   8  16
ATOM     15  N   LIG    1        5.654   9.836   2.041  0.00  0.00    -0.380 NA
ATOM     16  C   LIG    1        5.272  10.906   2.064  0.00  0.00    +0.250 C 
ENDBRANCH   8  16
ENDBRANCH   3  14
ENDBRANCH   1   6
BRANCH   1  17
ATOM     17  C   LIG    1        0.293   7.394   1.516  0.00  0.00    +0.310 C 
BRANCH  17  18
ATOM     18  C   LIG    1        0.454   5.897   1.456  0.00  0.00    +0.510 C 
ATOM     19  N   LIG    1       -0.630   5.106   1.336  0.00  0.00    -0.610 N 
ATOM     20  C   LIG    1       -1.977   5.689   1.262  0.00  0.00    +0.270 C 
ATOM     21  C   LIG    1       -2.679   5.152   0.011  0.00  0.00    +0.020 C 
ATOM     22  C   LIG    1       -2.657   3.622   0.036  0.00  0.00    +0.060 C 
ATOM     23  C   LIG    1       -1.208   3.131   0.025  0.00  0.00    -0.020 C 
ATOM     24  C   LIG    1       -0.488   3.645   1.276  0.00  0.00    +0.300 C 
ATOM     25  O   LIG    1        1.561   5.403   1.515  0.00  0.00    -0.530 OA
BRANCH  23  26
ATOM     26  C   LIG    1       -1.187   1.624   0.017  0.00  0.00    +0.520 C 
ATOM     27  O   LIG    1       -2.229   1.003   0.018  0.00  0.00    -0.540 OA
ATOM     28  N   LIG    1       -0.011   0.966   0.007  0.00  0.00    -0.850 N 
ATOM     29  H   LIG    1        0.822   1.462   0.002  0.00  0.00    +0.400 HD
ATOM     30  H   LIG    1        0.002  -0.004   0.002  0.00  0.00    +0.400 HD
ENDBRANCH  23  26
ENDBRANCH  17  18
ENDBRANCH   1  17
TORSDOF 6
