REMARK  Name = ZINCrH000004v3iU.0
REMARK                            x       y       z     vdW  Elec       q    Type
REMARK                         _______ _______ _______ _____ _____    ______ ____
ROOT
ATOM      1  O   LIG    1       -2.461   8.989   0.172  0.00  0.00    -0.560 OA
ATOM      2  C   LIG    1       -3.666   8.824   0.182  0.00  0.00    +0.710 C 
ATOM      3  N   LIG    1       -4.490   9.884   0.296  0.00  0.00    -0.740 N 
ATOM      4  H   LIG    1       -5.451   9.753   0.304  0.00  0.00    +0.400 HD
ATOM      5  N   LIG    1       -4.177   7.581   0.079  0.00  0.00    -0.690 N 
ATOM      6  H   LIG    1       -5.137   7.455   0.020  0.00  0.00    +0.410 HD
ENDROOT
BRANCH   3   7
ATOM      7  C   LIG    1       -3.935  11.236   0.408  0.00  0.00    +0.260 C 
ATOM      8  C   LIG    1       -3.654  11.791  -0.992  0.00  0.00    -0.000 C 
ATOM      9  C   LIG    1       -4.973  11.906  -1.761  0.00  0.00    +0.210 C 
ATOM     10  O   LIG    1       -5.876  12.742  -1.034  0.00  0.00    -0.370 OA
ATOM     11  C   LIG    1       -6.212  12.248   0.264  0.00  0.00    +0.200 C 
ATOM     12  C   LIG    1       -4.943  12.147   1.114  0.00  0.00    +0.030 C 
BRANCH  11  13
ATOM     13  C   LIG    1       -7.186  13.190   0.924  0.00  0.00    -0.140 A 
ATOM     14  C   LIG    1       -8.186  12.700   1.749  0.00  0.00    +0.060 A 
ATOM     15  C   LIG    1       -9.057  13.605   2.339  0.00  0.00    -0.030 A 
ATOM     16  C   LIG    1       -8.905  14.953   2.078  0.00  0.00    +0.260 A 
ATOM     17  N   LIG    1       -7.944  15.383   1.283  0.00  0.00    -0.490 NA
ATOM     18  C   LIG    1       -7.096  14.552   0.709  0.00  0.00    +0.290 A 
ENDBRANCH  11  13
ENDBRANCH   3   7
BRANCH   5  19
ATOM     19  C   LIG    1       -3.324   6.475   0.058  0.00  0.00    +0.180 A 
ATOM     20  C   LIG    1       -3.716   5.285   0.660  0.00  0.00    -0.010 A 
ATOM     21  C   LIG    1       -2.877   4.192   0.641  0.00  0.00    +0.090 A 
ATOM     22  C   LIG    1       -1.632   4.280   0.015  0.00  0.00    -0.040 A 
ATOM     23  C   LIG    1       -1.239   5.479  -0.585  0.00  0.00    +0.060 A 
ATOM     24  C   LIG    1       -2.084   6.566  -0.566  0.00  0.00    +0.030 A 
BRANCH  22  25
ATOM     25  C   LIG    1       -0.730   3.110  -0.009  0.00  0.00    +0.240 A 
ATOM     26  N   LIG    1       -0.986   1.935   0.516  0.00  0.00    -0.480 NA
ATOM     27  C   LIG    1        0.066   1.130   0.300  0.00  0.00    +0.150 A 
ATOM     28  C   LIG    1        0.987   1.831  -0.385  0.00  0.00    +0.150 A 
ATOM     29  O   LIG    1        0.488   3.069  -0.576  0.00  0.00    -0.200 OA
ENDBRANCH  22  25
ENDBRANCH   5  19
TORSDOF 4
