REMARK  Name = ZINCvU0000000H3l.0
REMARK                            x       y       z     vdW  Elec       q    Type
REMARK                         _______ _______ _______ _____ _____    ______ ____
ROOT
ATOM      1  N   LIG    1        2.406   1.093  -0.015  0.00  0.00    -0.670 N 
ATOM      2  H   LIG    1        3.240   1.583  -0.088  0.00  0.00    +0.410 HD
ATOM      3  C   LIG    1        2.421  -0.252   0.079  0.00  0.00    +0.510 C 
ATOM      4  O   LIG    1        1.377  -0.871   0.086  0.00  0.00    -0.520 OA
ENDROOT
BRANCH   1  10
ATOM      5  N   LIG    1       -2.526   3.629  -0.115  0.00  0.00    -0.500 N 
ATOM      6  C   LIG    1       -3.293   2.707  -0.803  0.00  0.00    +0.150 A 
ATOM      7  C   LIG    1       -2.480   1.612  -1.132  0.00  0.00    -0.110 A 
ATOM      8  C   LIG    1       -1.138   1.912  -0.599  0.00  0.00    -0.090 A 
ATOM      9  C   LIG    1        0.072   1.223  -0.609  0.00  0.00    +0.080 A 
ATOM     10  C   LIG    1        1.186   1.782  -0.008  0.00  0.00    +0.110 A 
ATOM     11  C   LIG    1        1.097   3.030   0.604  0.00  0.00    +0.030 A 
ATOM     12  C   LIG    1       -0.098   3.715   0.623  0.00  0.00    +0.010 A 
ATOM     13  C   LIG    1       -3.013   0.533  -1.833  0.00  0.00    +0.070 A 
ATOM     14  C   LIG    1       -4.341   0.545  -2.203  0.00  0.00    -0.020 A 
ATOM     15  C   LIG    1       -5.146   1.626  -1.878  0.00  0.00    +0.050 A 
ATOM     16  C   LIG    1       -4.631   2.700  -1.185  0.00  0.00    -0.030 A 
ATOM     17  C   LIG    1       -1.226   3.169   0.018  0.00  0.00    +0.130 A 
BRANCH   5  19
ATOM     18  C   LIG    1       -3.541   4.720   1.824  0.00  0.00    +0.020 C 
ATOM     19  C   LIG    1       -3.018   4.910   0.399  0.00  0.00    +0.290 C 
ENDBRANCH   5  19
ENDBRANCH   1  10
BRANCH   3  20
ATOM     20  C   LIG    1        3.733  -0.986   0.176  0.00  0.00    +0.060 C 
BRANCH  20  21
ATOM     21  C   LIG    1        3.470  -2.490   0.272  0.00  0.00    +0.140 C 
BRANCH  21  22
ATOM     22  C   LIG    1        4.782  -3.225   0.369  0.00  0.00    -0.230 A 
ATOM     23  C   LIG    1        5.511  -3.694  -0.670  0.00  0.00    +0.090 A 
ATOM     24  N   LIG    1        6.614  -4.284  -0.165  0.00  0.00    -0.370 N 
ATOM     25  N   LIG    1        6.557  -4.183   1.231  0.00  0.00    -0.290 NA
ATOM     26  C   LIG    1        5.155  -3.574  -2.130  0.00  0.00    +0.140 C 
ATOM     27  C   LIG    1        5.459  -3.547   1.550  0.00  0.00    +0.090 A 
ATOM     28  C   LIG    1        5.003  -3.220   2.948  0.00  0.00    +0.150 C 
BRANCH  24  29
ATOM     29  C   LIG    1        7.680  -4.924  -0.940  0.00  0.00    +0.350 C 
BRANCH  29  30
ATOM     30  C   LIG    1        7.343  -6.402  -1.148  0.00  0.00    +0.190 C 
BRANCH  30  31
ATOM     31  C   LIG    1        8.414  -7.045  -1.927  0.00  0.00    +0.200 C 
ATOM     32  N   LIG    1        9.241  -7.540  -2.528  0.00  0.00    -0.420 NA
ENDBRANCH  30  31
ENDBRANCH  29  30
ENDBRANCH  24  29
ENDBRANCH  21  22
ENDBRANCH  20  21
ENDBRANCH   3  20
TORSDOF 8
