REMARK  Name = ZINCah0000002j3q.0
REMARK                            x       y       z     vdW  Elec       q    Type
REMARK                         _______ _______ _______ _____ _____    ______ ____
ROOT
ATOM      1  C   LIG    1       -0.013   1.086   0.008  0.00  0.00    +0.110 C 
ATOM      2  C   LIG    1       -0.718   1.572   1.248  0.00  0.00    -0.020 A 
ATOM      3  C   LIG    1       -2.086   1.795   1.244  0.00  0.00    -0.050 A 
ATOM      4  C   LIG    1       -2.699   2.237   2.402  0.00  0.00    +0.270 A 
ATOM      5  N   LIG    1       -1.997   2.455   3.496  0.00  0.00    -0.490 NA
ATOM      6  C   LIG    1       -0.694   2.257   3.535  0.00  0.00    +0.150 A 
ATOM      7  C   LIG    1        0.062   2.521   4.811  0.00  0.00    +0.130 C 
ATOM      8  C   LIG    1       -0.013   1.812   2.418  0.00  0.00    -0.150 A 
ENDROOT
BRANCH   8   9
ATOM      9  C   LIG    1        1.476   1.589   2.470  0.00  0.00    +0.240 C 
BRANCH   9  10
ATOM     10  O   LIG    1        2.152   2.793   2.102  0.00  0.00    -0.560 OA
ATOM     11  H   LIG    1        3.116   2.723   2.114  0.00  0.00    +0.380 HD
ENDBRANCH   9  10
ENDBRANCH   8   9
TORSDOF 2
