REMARK  Name = ZINCzw0000000iFO.0
REMARK                            x       y       z     vdW  Elec       q    Type
REMARK                         _______ _______ _______ _____ _____    ______ ____
ROOT
ATOM      1  C   LIG    1       -0.001   1.468  -0.045  0.00  0.00    +0.620 C 
ATOM      2  N   LIG    1       -1.168   2.079  -0.331  0.00  0.00    -0.620 N 
ATOM      3  C   LIG    1       -2.534   1.507  -0.256  0.00  0.00    +0.300 C 
ATOM      4  C   LIG    1       -3.267   2.081  -1.490  0.00  0.00    +0.010 C 
ATOM      5  C   LIG    1       -2.503   3.370  -1.830  0.00  0.00    -0.130 C 
ATOM      6  C   LIG    1       -3.224   4.609  -2.346  0.00  0.00    +0.050 C 
ATOM      7  C   LIG    1       -2.297   3.816  -3.272  0.00  0.00    +0.040 C 
ATOM      8  C   LIG    1       -1.376   3.476  -0.784  0.00  0.00    +0.310 C 
ATOM      9  O   LIG    1        0.018   0.278   0.200  0.00  0.00    -0.530 OA
ENDROOT
BRANCH   4  10
ATOM     10  C   LIG    1       -4.701   2.394  -1.150  0.00  0.00    +0.530 C 
ATOM     11  N   LIG    1       -5.663   2.237  -2.080  0.00  0.00    -0.620 N 
ATOM     12  C   LIG    1       -5.317   1.879  -3.462  0.00  0.00    +0.280 C 
ATOM     13  C   LIG    1       -6.119   0.630  -3.859  0.00  0.00    +0.000 C 
ATOM     14  C   LIG    1       -7.610   0.895  -3.633  0.00  0.00    +0.170 C 
ATOM     15  C   LIG    1       -7.861   1.177  -2.150  0.00  0.00    +0.030 C 
ATOM     16  C   LIG    1       -7.079   2.427  -1.733  0.00  0.00    +0.280 C 
ATOM     17  O   LIG    1       -4.989   2.788  -0.040  0.00  0.00    -0.520 OA
BRANCH  14  18
ATOM     18  O   LIG    1       -8.363  -0.252  -4.033  0.00  0.00    -0.390 OA
BRANCH  18  19
ATOM     19  C   LIG    1       -8.765  -0.233  -5.405  0.00  0.00    +0.200 C 
BRANCH  19  20
ATOM     20  C   LIG    1       -9.560  -1.502  -5.720  0.00  0.00    +0.280 C 
BRANCH  20  21
ATOM     21  N   LIG    1      -10.810  -1.500  -4.949  0.00  0.00    -0.390 N 
ATOM     22  C   LIG    1      -11.639  -2.677  -5.316  0.00  0.00    +0.250 C 
ATOM     23  C   LIG    1      -12.572  -2.848  -4.090  0.00  0.00    +0.070 C 
ATOM     24  C   LIG    1      -11.650  -2.497  -2.900  0.00  0.00    +0.050 C 
ATOM     25  C   LIG    1      -10.519  -1.645  -3.506  0.00  0.00    +0.260 C 
ATOM     26  H   LIG    1      -11.322  -0.648  -5.117  0.00  0.00    +0.420 HD
ENDBRANCH  20  21
ENDBRANCH  19  20
ENDBRANCH  18  19
ENDBRANCH  14  18
ENDBRANCH   4  10
BRANCH   1  30
ATOM     27  C   LIG    1        3.247   5.265  -0.118  0.00  0.00    +0.360 C 
ATOM     28  N   LIG    1        2.673   3.918  -0.057  0.00  0.00    -0.360 N 
ATOM     29  C   LIG    1        1.366   3.618  -0.120  0.00  0.00    +0.280 A 
ATOM     30  C   LIG    1        1.252   2.246  -0.025  0.00  0.00    -0.290 A 
ATOM     31  C   LIG    1        2.560   1.725   0.091  0.00  0.00    +0.150 A 
ATOM     32  N   LIG    1        3.396   2.726   0.070  0.00  0.00    -0.290 NA
BRANCH  31  33
ATOM     33  C   LIG    1        2.926   0.269   0.215  0.00  0.00    +0.080 C 
ATOM     34  C   LIG    1        4.080   0.005   1.197  0.00  0.00    +0.030 C 
ATOM     35  C   LIG    1        4.596  -1.034   0.185  0.00  0.00    +0.010 C 
ATOM     36  C   LIG    1        3.861  -0.229  -0.899  0.00  0.00    +0.020 C 
ENDBRANCH  31  33
ENDBRANCH   1  30
TORSDOF 7
