REMARK  Name = ZINCpk00000KfKkH.0
REMARK                            x       y       z     vdW  Elec       q    Type
REMARK                         _______ _______ _______ _____ _____    ______ ____
ROOT
ATOM      1  C   LIG    1       -2.868   2.139   0.041  0.00  0.00    -0.010 C 
ATOM      2  C   LIG    1       -2.189   1.597  -1.218  0.00  0.00    +0.040 C 
ATOM      3  C   LIG    1       -0.722   2.036  -1.235  0.00  0.00    +0.050 C 
ATOM      4  C   LIG    1       -0.018   1.507   0.010  0.00  0.00    +0.130 C 
ATOM      5  N   LIG    1        1.401   1.883  -0.001  0.00  0.00    -0.720 N 
ATOM      6  H   LIG    1        1.763   2.783   0.000  0.00  0.00    +0.440 HD
ATOM      7  C   LIG    1        2.100   0.732  -0.014  0.00  0.00    +0.700 C 
ATOM      8  N   LIG    1        1.307  -0.346  -0.012  0.00  0.00    -0.580 N 
ATOM      9  O   LIG    1        3.314   0.679  -0.026  0.00  0.00    -0.520 OA
ATOM     10  C   LIG    1       -0.698   2.022   1.274  0.00  0.00    +0.050 C 
ATOM     11  C   LIG    1        0.002  -0.004   0.002  0.00  0.00    +0.540 C 
ATOM     12  O   LIG    1       -0.953  -0.751   0.006  0.00  0.00    -0.460 OA
ATOM     13  C   LIG    1       -2.165   1.584   1.281  0.00  0.00    +0.040 C 
ENDROOT
BRANCH   1  15
ATOM     14  C   LIG    1       -5.016   2.252   1.312  0.00  0.00    +0.010 C 
ATOM     15  C   LIG    1       -4.336   1.710   0.053  0.00  0.00    -0.020 C 
ATOM     16  C   LIG    1       -5.041   2.267  -1.186  0.00  0.00    +0.010 C 
ENDBRANCH   1  15
BRANCH   8  17
ATOM     17  C   LIG    1        1.796  -1.728  -0.025  0.00  0.00    +0.470 C 
BRANCH  17  18
ATOM     18  C   LIG    1        1.950  -2.193  -1.450  0.00  0.00    +0.150 A 
ATOM     19  N   LIG    1        3.022  -2.082  -2.193  0.00  0.00    -0.260 NA
ATOM     20  N   LIG    1        2.799  -2.589  -3.359  0.00  0.00    -0.270 NA
ATOM     21  C   LIG    1        1.586  -3.040  -3.408  0.00  0.00    +0.140 A 
ATOM     22  C   LIG    1        0.857  -3.718  -4.541  0.00  0.00    +0.380 C 
ATOM     23  O   LIG    1       -0.325  -4.324  -3.999  0.00  0.00    -0.370 OA
ATOM     24  C   LIG    1       -1.108  -3.451  -3.180  0.00  0.00    +0.250 C 
ATOM     25  C   LIG    1       -0.364  -3.166  -1.868  0.00  0.00    +0.280 C 
ATOM     26  N   LIG    1        1.015  -2.805  -2.196  0.00  0.00    -0.460 N 
ENDBRANCH  17  18
ENDBRANCH   8  17
TORSDOF 3
