REMARK  Name = ZINCnE000001UgNc.0
REMARK                            x       y       z     vdW  Elec       q    Type
REMARK                         _______ _______ _______ _____ _____    ______ ____
ROOT
ATOM      1  S   LIG    1       -2.733   0.849   0.020  0.00  0.00    +2.590 S 
ATOM      2  O   LIG    1       -2.380  -0.527   0.045  0.00  0.00    -1.020 OA
ATOM      3  O   LIG    1       -3.544   1.425  -0.995  0.00  0.00    -1.000 OA
ENDROOT
BRANCH   1   4
ATOM      4  C   LIG    1       -1.219   1.750   0.017  0.00  0.00    -0.580 A 
ATOM      5  C   LIG    1       -0.013   1.076   0.008  0.00  0.00    +0.120 A 
ATOM      6  C   LIG    1        1.175   1.783   0.000  0.00  0.00    +0.020 A 
ATOM      7  C   LIG    1        1.157   3.165   0.008  0.00  0.00    +0.060 A 
ATOM      8  C   LIG    1       -0.050   3.840   0.023  0.00  0.00    +0.040 A 
ATOM      9  C   LIG    1       -1.238   3.133   0.029  0.00  0.00    -0.080 A 
BRANCH   9  10
ATOM     10  C   LIG    1       -2.553   3.869   0.046  0.00  0.00    +0.470 C 
ATOM     11  F   LIG    1       -3.271   3.514   1.193  0.00  0.00    -0.140 F 
ATOM     12  F   LIG    1       -3.292   3.528  -1.092  0.00  0.00    -0.140 F 
ATOM     13  F   LIG    1       -2.316   5.247   0.052  0.00  0.00    -0.190 F 
ENDBRANCH   9  10
ENDBRANCH   1   4
BRANCH   1  14
ATOM     14  N   LIG    1       -3.489   1.165   1.458  0.00  0.00    -1.070 NA
BRANCH  14  19
ATOM     15  C   LIG    1       -6.583   0.261   3.224  0.00  0.00    +0.000 A 
ATOM     16  C   LIG    1       -7.173  -0.583   2.301  0.00  0.00    -0.040 A 
ATOM     17  C   LIG    1       -6.543  -0.847   1.099  0.00  0.00    +0.070 A 
ATOM     18  C   LIG    1       -5.324  -0.266   0.814  0.00  0.00    -0.110 A 
ATOM     19  C   LIG    1       -4.725   0.578   1.741  0.00  0.00    +0.280 A 
ATOM     20  C   LIG    1       -5.361   0.842   2.947  0.00  0.00    +0.020 A 
BRANCH  15  22
ATOM     21  O   LIG    1       -6.742   1.285   5.322  0.00  0.00    -0.180 OA
ATOM     22  N   LIG    1       -7.261   0.541   4.509  0.00  0.00    +0.040 N 
ATOM     23  O   LIG    1       -8.339   0.029   4.753  0.00  0.00    -0.180 OA
ENDBRANCH  15  22
ENDBRANCH  14  19
ENDBRANCH   1  14
TORSDOF 5
