REMARK  Name = ZINCpk000000o9S7.0
REMARK                            x       y       z     vdW  Elec       q    Type
REMARK                         _______ _______ _______ _____ _____    ______ ____
ROOT
ATOM      1  N   LIG    1       -2.606   4.096   0.037  0.00  0.00    -0.520 NA
ATOM      2  C   LIG    1       -3.291   3.737  -1.212  0.00  0.00    +0.180 C 
ATOM      3  C   LIG    1       -4.780   4.082  -1.091  0.00  0.00    +0.310 C 
ATOM      4  N   LIG    1       -4.902   5.494  -0.699  0.00  0.00    -1.000 NA
ATOM      5  C   LIG    1       -4.133   5.962   0.465  0.00  0.00    +0.320 C 
ATOM      6  C   LIG    1       -2.671   5.543   0.283  0.00  0.00    +0.170 C 
ENDROOT
BRANCH   4   7
ATOM      7  S   LIG    1       -5.878   6.530  -1.544  0.00  0.00    +2.600 S 
ATOM      8  O   LIG    1       -6.232   7.529  -0.598  0.00  0.00    -0.940 OA
ATOM      9  O   LIG    1       -6.865   5.687  -2.123  0.00  0.00    -0.940 OA
BRANCH   7  10
ATOM     10  C   LIG    1       -4.800   7.223  -2.828  0.00  0.00    -0.300 C 
BRANCH  10  11
ATOM     11  C   LIG    1       -5.584   8.193  -3.674  0.00  0.00    -0.100 A 
ATOM     12  C   LIG    1       -6.246   7.747  -4.803  0.00  0.00    +0.020 A 
ATOM     13  C   LIG    1       -6.969   8.636  -5.576  0.00  0.00    +0.010 A 
ATOM     14  C   LIG    1       -7.023   9.972  -5.226  0.00  0.00    +0.020 A 
ATOM     15  C   LIG    1       -6.357  10.418  -4.100  0.00  0.00    +0.010 A 
ATOM     16  C   LIG    1       -5.638   9.529  -3.324  0.00  0.00    +0.020 A 
ENDBRANCH  10  11
ENDBRANCH   7  10
ENDBRANCH   4   7
BRANCH   1  17
ATOM     17  C   LIG    1       -1.214   3.626   0.028  0.00  0.00    +0.200 C 
BRANCH  17  20
ATOM     18  N   LIG    1       -0.018   1.461   0.010  0.00  0.00    -0.730 N 
ATOM     19  H   LIG    1        0.816   1.957   0.005  0.00  0.00    +0.400 HD
ATOM     20  C   LIG    1       -1.194   2.119   0.019  0.00  0.00    +0.510 C 
ATOM     21  O   LIG    1       -2.236   1.498   0.021  0.00  0.00    -0.510 OA
BRANCH  18  22
ATOM     22  C   LIG    1        0.002  -0.004   0.002  0.00  0.00    +0.230 C 
BRANCH  22  24
ATOM     23  C   LIG    1       -1.503  -0.119  -1.989  0.00  0.00    +0.020 C 
ATOM     24  C   LIG    1       -0.130  -0.508  -1.437  0.00  0.00    -0.010 C 
ENDBRANCH  22  24
BRANCH  22  25
ATOM     25  C   LIG    1        1.322  -0.499   0.596  0.00  0.00    +0.020 C 
ATOM     26  C   LIG    1        1.398  -0.102   2.072  0.00  0.00    +0.020 C 
ENDBRANCH  22  25
ENDBRANCH  18  22
ENDBRANCH  17  20
ENDBRANCH   1  17
TORSDOF 8
