REMARK  Name = ZINCqH0000037EaR.1
REMARK                            x       y       z     vdW  Elec       q    Type
REMARK                         _______ _______ _______ _____ _____    ______ ____
ROOT
ATOM      1  C   LIG    1       -1.222  -0.883   0.009  0.00  0.00    +0.360 C 
ENDROOT
BRANCH   1   4
ATOM      2  C   LIG    1        1.720  -1.886  -0.025  0.00  0.00    +0.120 C 
ATOM      3  C   LIG    1        1.266  -0.449  -0.012  0.00  0.00    -0.150 A 
ATOM      4  C   LIG    1        0.002  -0.004   0.002  0.00  0.00    +0.020 A 
ATOM      5  O   LIG    1       -0.016   1.340   0.009  0.00  0.00    -0.190 OA
ATOM      6  C   LIG    1        1.237   1.838   0.000  0.00  0.00    +0.060 A 
ATOM      7  C   LIG    1        1.751   3.128   0.002  0.00  0.00    +0.020 A 
ATOM      8  C   LIG    1        3.116   3.325  -0.010  0.00  0.00    +0.050 A 
ATOM      9  C   LIG    1        3.987   2.246  -0.025  0.00  0.00    -0.010 A 
ATOM     10  C   LIG    1        3.497   0.958  -0.026  0.00  0.00    +0.060 A 
ATOM     11  C   LIG    1        2.120   0.745  -0.014  0.00  0.00    -0.130 A 
ENDBRANCH   1   4
BRANCH   1  12
ATOM     12  N   LIG    1       -2.179  -0.381   0.998  0.00  0.00    -0.720 N 
ATOM     13  H   LIG    1       -2.164   0.554   1.255  0.00  0.00    +0.400 HD
ATOM     14  C   LIG    1       -3.079  -1.218   1.551  0.00  0.00    +0.600 C 
ATOM     15  O   LIG    1       -3.097  -2.391   1.228  0.00  0.00    -0.540 OA
BRANCH  14  16
ATOM     16  C   LIG    1       -4.040  -0.713   2.545  0.00  0.00    -0.230 A 
ATOM     17  C   LIG    1       -5.004  -1.427   3.189  0.00  0.00    +0.070 A 
ATOM     18  C   LIG    1       -5.312  -2.898   3.040  0.00  0.00    +0.330 C 
ATOM     19  N   LIG    1       -6.155  -3.306   4.177  0.00  0.00    -0.680 NA
ATOM     20  H   LIG    1       -5.613  -3.370   5.026  0.00  0.00    +0.350 HD
ATOM     21  C   LIG    1       -7.291  -2.389   4.346  0.00  0.00    +0.230 C 
ATOM     22  C   LIG    1       -6.791  -1.038   4.870  0.00  0.00    +0.250 C 
ATOM     23  N   LIG    1       -5.676  -0.596   4.020  0.00  0.00    -0.450 N 
ATOM     24  C   LIG    1       -5.164   0.663   3.933  0.00  0.00    +0.160 A 
ATOM     25  C   LIG    1       -4.151   0.662   3.047  0.00  0.00    -0.020 A 
ENDBRANCH  14  16
ENDBRANCH   1  12
BRANCH   1  26
ATOM     26  C   LIG    1       -1.867  -0.870  -1.378  0.00  0.00    -0.030 C 
ATOM     27  C   LIG    1       -3.110  -1.763  -1.371  0.00  0.00    +0.040 C 
ATOM     28  C   LIG    1       -0.868  -1.395  -2.411  0.00  0.00    +0.030 C 
ENDBRANCH   1  26
TORSDOF 4
