REMARK  Name = ZINCrH000004rwn0.0
REMARK                            x       y       z     vdW  Elec       q    Type
REMARK                         _______ _______ _______ _____ _____    ______ ____
ROOT
ATOM      1  N   LIG    1       -4.613  -0.240  -2.125  0.00  0.00    -0.570 N 
ATOM      2  C   LIG    1       -3.407  -0.638  -2.546  0.00  0.00    +0.700 C 
ATOM      3  N   LIG    1       -2.428   0.207  -2.173  0.00  0.00    -0.720 N 
ATOM      4  H   LIG    1       -1.482   0.119  -2.366  0.00  0.00    +0.440 HD
ATOM      5  C   LIG    1       -3.074   1.292  -1.414  0.00  0.00    +0.230 C 
ATOM      6  O   LIG    1       -3.216  -1.649  -3.192  0.00  0.00    -0.540 OA
ATOM      7  C   LIG    1       -4.542   0.913  -1.430  0.00  0.00    +0.520 C 
ATOM      8  O   LIG    1       -5.460   1.520  -0.923  0.00  0.00    -0.460 OA
ENDROOT
BRANCH   1   9
ATOM      9  C   LIG    1       -5.857  -0.967  -2.388  0.00  0.00    +0.360 C 
BRANCH   9  10
ATOM     10  C   LIG    1       -6.469  -0.473  -3.700  0.00  0.00    +0.060 C 
BRANCH  10  11
ATOM     11  S   LIG    1       -8.010  -1.373  -4.026  0.00  0.00    -0.090 S 
BRANCH  11  16
ATOM     12  C   LIG    1       -9.891   0.998  -9.248  0.00  0.00    +0.090 C 
ATOM     13  C   LIG    1       -9.421   0.406  -7.944  0.00  0.00    -0.090 A 
ATOM     14  C   LIG    1      -10.165  -0.585  -7.329  0.00  0.00    +0.030 A 
ATOM     15  C   LIG    1       -9.738  -1.129  -6.134  0.00  0.00    +0.040 A 
ATOM     16  C   LIG    1       -8.559  -0.681  -5.550  0.00  0.00    -0.090 A 
ATOM     17  C   LIG    1       -7.817   0.318  -6.169  0.00  0.00    -0.010 A 
ATOM     18  C   LIG    1       -8.248   0.855  -7.366  0.00  0.00    +0.030 A 
ENDBRANCH  11  16
ENDBRANCH  10  11
ENDBRANCH   9  10
ENDBRANCH   1   9
BRANCH   5  19
ATOM     19  C   LIG    1       -2.545   1.335   0.021  0.00  0.00    +0.140 C 
BRANCH  19  20
ATOM     20  C   LIG    1       -1.122   1.831   0.017  0.00  0.00    -0.180 A 
ATOM     21  C   LIG    1       -0.013   1.076   0.008  0.00  0.00    +0.230 A 
ATOM     22  N   LIG    1        1.097   1.876   0.002  0.00  0.00    -0.590 N 
ATOM     23  H   LIG    1        2.014   1.559  -0.009  0.00  0.00    +0.420 HD
ATOM     24  C   LIG    1        0.719   3.200   0.012  0.00  0.00    +0.100 A 
ATOM     25  C   LIG    1        1.426   4.398   0.011  0.00  0.00    -0.010 A 
ATOM     26  C   LIG    1        0.744   5.595   0.023  0.00  0.00    +0.030 A 
ATOM     27  C   LIG    1       -0.644   5.620   0.037  0.00  0.00    -0.020 A 
ATOM     28  C   LIG    1       -1.358   4.455   0.038  0.00  0.00    +0.050 A 
ATOM     29  C   LIG    1       -0.688   3.230   0.025  0.00  0.00    -0.100 A 
ENDBRANCH  19  20
ENDBRANCH   5  19
TORSDOF 6
