REMARK  Name = ZINCwl00000009D4.2
REMARK                            x       y       z     vdW  Elec       q    Type
REMARK                         _______ _______ _______ _____ _____    ______ ____
ROOT
ATOM      1  C   LIG    1       -1.197   2.277   3.333  0.00  0.00    -0.290 A 
ATOM      2  C   LIG    1       -2.362   2.240   2.591  0.00  0.00    +0.150 A 
ATOM      3  N   LIG    1       -2.056   1.822   1.350  0.00  0.00    -0.420 N 
ATOM      4  C   LIG    1       -0.718   1.572   1.248  0.00  0.00    +0.050 A 
ATOM      5  C   LIG    1       -0.013   1.086   0.008  0.00  0.00    +0.150 C 
ATOM      6  C   LIG    1       -3.737   2.609   3.086  0.00  0.00    +0.150 C 
ATOM      7  C   LIG    1       -0.129   1.833   2.427  0.00  0.00    -0.020 A 
ENDROOT
BRANCH   1   8
ATOM      8  C   LIG    1       -1.055   2.678   4.735  0.00  0.00    +0.420 C 
ATOM      9  O   LIG    1       -2.030   3.025   5.368  0.00  0.00    -0.470 OA
BRANCH   8  10
ATOM     10  C   LIG    1        0.302   2.658   5.390  0.00  0.00    +0.280 C 
BRANCH  10  14
ATOM     11  C   LIG    1        1.338   4.002   8.656  0.00  0.00    +0.000 C 
ATOM     12  C   LIG    1        0.495   5.147   8.050  0.00  0.00    +0.090 C 
ATOM     13  C   LIG    1       -0.220   4.523   6.838  0.00  0.00    +0.270 C 
ATOM     14  N   LIG    1        0.177   3.099   6.786  0.00  0.00    -0.390 N 
ATOM     15  H   LIG    1       -0.500   2.531   7.272  0.00  0.00    +0.430 HD
ATOM     16  C   LIG    1        1.495   3.021   7.467  0.00  0.00    +0.310 C 
BRANCH  11  20
ATOM     17  C   LIG    1        4.064   5.951  10.506  0.00  0.00    +0.310 C 
ATOM     18  N   LIG    1        2.758   5.456  10.067  0.00  0.00    -0.720 N 
ATOM     19  H   LIG    1        1.946   5.808  10.466  0.00  0.00    +0.410 HD
ATOM     20  C   LIG    1        2.683   4.511   9.108  0.00  0.00    +0.520 C 
ATOM     21  O   LIG    1        3.697   4.071   8.610  0.00  0.00    -0.530 OA
ENDBRANCH  11  20
ENDBRANCH  10  14
ENDBRANCH   8  10
ENDBRANCH   1   8
BRANCH   3  22
ATOM     22  C   LIG    1       -3.023   1.655   0.262  0.00  0.00    +0.430 C 
BRANCH  22  23
ATOM     23  C   LIG    1       -3.575   0.253   0.292  0.00  0.00    -0.060 A 
ATOM     24  C   LIG    1       -4.880  -0.101   0.353  0.00  0.00    +0.180 A 
ATOM     25  N   LIG    1       -4.901  -1.462   0.358  0.00  0.00    -0.230 N 
ATOM     26  N   LIG    1       -3.685  -1.881   0.303  0.00  0.00    -0.070 NA
ATOM     27  N   LIG    1       -2.873  -0.885   0.258  0.00  0.00    -0.240 NA
BRANCH  25  28
ATOM     28  C   LIG    1       -6.047  -2.268   0.412  0.00  0.00    +0.160 A 
ATOM     29  C   LIG    1       -7.308  -1.688   0.363  0.00  0.00    -0.050 A 
ATOM     30  C   LIG    1       -8.438  -2.481   0.417  0.00  0.00    +0.090 A 
ATOM     31  C   LIG    1       -8.318  -3.853   0.519  0.00  0.00    -0.050 A 
ATOM     32  C   LIG    1       -7.060  -4.440   0.569  0.00  0.00    +0.240 A 
ATOM     33  C   LIG    1       -5.923  -3.646   0.510  0.00  0.00    -0.040 A 
BRANCH  32  34
ATOM     34  N   LIG    1       -6.939  -5.828   0.672  0.00  0.00    -0.870 N 
ATOM     35  H   LIG    1       -6.060  -6.237   0.707  0.00  0.00    +0.400 HD
ATOM     36  H   LIG    1       -7.734  -6.383   0.710  0.00  0.00    +0.410 HD
ENDBRANCH  32  34
ENDBRANCH  25  28
ENDBRANCH  22  23
ENDBRANCH   3  22
TORSDOF 8
