REMARK  Name = ZINCwl00000009D4.1
REMARK                            x       y       z     vdW  Elec       q    Type
REMARK                         _______ _______ _______ _____ _____    ______ ____
ROOT
ATOM      1  C   LIG    1       -0.004  -0.809  -1.122  0.00  0.00    -0.290 A 
ATOM      2  C   LIG    1        0.002  -0.004   0.002  0.00  0.00    +0.170 A 
ATOM      3  N   LIG    1        0.023  -0.799   1.087  0.00  0.00    -0.420 N 
ATOM      4  C   LIG    1        0.037  -2.112   0.715  0.00  0.00    +0.030 A 
ATOM      5  C   LIG    1        0.063  -3.287   1.659  0.00  0.00    +0.150 C 
ATOM      6  C   LIG    1       -0.018   1.503   0.010  0.00  0.00    +0.150 C 
ATOM      7  C   LIG    1        0.026  -2.191  -0.626  0.00  0.00    -0.010 A 
ENDROOT
BRANCH   1   8
ATOM      8  C   LIG    1       -0.030  -0.373  -2.519  0.00  0.00    +0.420 C 
ATOM      9  O   LIG    1       -0.051   0.811  -2.786  0.00  0.00    -0.470 OA
BRANCH   8  10
ATOM     10  C   LIG    1       -0.033  -1.394  -3.627  0.00  0.00    +0.280 C 
BRANCH  10  14
ATOM     11  C   LIG    1        0.643  -1.161  -7.205  0.00  0.00    +0.010 C 
ATOM     12  C   LIG    1        1.262   0.163  -6.701  0.00  0.00    +0.090 C 
ATOM     13  C   LIG    1        1.224  -0.002  -5.161  0.00  0.00    +0.290 C 
ATOM     14  N   LIG    1       -0.062  -0.708  -4.926  0.00  0.00    -0.390 N 
ATOM     15  H   LIG    1       -0.830  -0.055  -4.958  0.00  0.00    +0.430 HD
ATOM     16  C   LIG    1       -0.185  -1.694  -6.021  0.00  0.00    +0.290 C 
BRANCH  11  20
ATOM     17  C   LIG    1       -0.589  -0.178 -10.694  0.00  0.00    +0.310 C 
ATOM     18  N   LIG    1        0.277  -0.430  -9.540  0.00  0.00    -0.720 N 
ATOM     19  H   LIG    1        1.230  -0.256  -9.601  0.00  0.00    +0.410 HD
ATOM     20  C   LIG    1       -0.249  -0.902  -8.392  0.00  0.00    +0.510 C 
ATOM     21  O   LIG    1       -1.440  -1.119  -8.315  0.00  0.00    -0.530 OA
ENDBRANCH  11  20
ENDBRANCH  10  14
ENDBRANCH   8  10
ENDBRANCH   1   8
BRANCH   3  22
ATOM     22  C   LIG    1        0.029  -0.322   2.472  0.00  0.00    +0.430 C 
BRANCH  22  23
ATOM     23  C   LIG    1       -1.389  -0.178   2.960  0.00  0.00    -0.060 A 
ATOM     24  C   LIG    1       -1.927  -0.748   4.064  0.00  0.00    +0.180 A 
ATOM     25  N   LIG    1       -3.225  -0.339   4.104  0.00  0.00    -0.230 N 
ATOM     26  N   LIG    1       -3.436   0.422   3.087  0.00  0.00    -0.060 NA
ATOM     27  N   LIG    1       -2.362   0.541   2.390  0.00  0.00    -0.250 NA
BRANCH  25  28
ATOM     28  C   LIG    1       -4.168  -0.687   5.082  0.00  0.00    +0.160 A 
ATOM     29  C   LIG    1       -3.780  -1.435   6.186  0.00  0.00    -0.050 A 
ATOM     30  C   LIG    1       -4.708  -1.778   7.151  0.00  0.00    +0.090 A 
ATOM     31  C   LIG    1       -6.024  -1.379   7.021  0.00  0.00    -0.050 A 
ATOM     32  C   LIG    1       -6.418  -0.630   5.918  0.00  0.00    +0.240 A 
ATOM     33  C   LIG    1       -5.487  -0.280   4.951  0.00  0.00    -0.040 A 
BRANCH  32  34
ATOM     34  N   LIG    1       -7.749  -0.227   5.787  0.00  0.00    -0.870 N 
ATOM     35  H   LIG    1       -8.024   0.296   5.017  0.00  0.00    +0.400 HD
ATOM     36  H   LIG    1       -8.398  -0.468   6.465  0.00  0.00    +0.410 HD
ENDBRANCH  32  34
ENDBRANCH  25  28
ENDBRANCH  22  23
ENDBRANCH   3  22
TORSDOF 8
