REMARK  Name = ZINCpk000005Wwd6.1
REMARK                            x       y       z     vdW  Elec       q    Type
REMARK                         _______ _______ _______ _____ _____    ______ ____
ROOT
ATOM      1  O   LIG    1       -5.416   6.544  -6.501  0.00  0.00    -0.550 OA
ATOM      2  C   LIG    1       -5.813   6.034  -5.471  0.00  0.00    +0.570 C 
ATOM      3  N   LIG    1       -5.190   6.295  -4.305  0.00  0.00    -0.710 N 
ATOM      4  H   LIG    1       -5.507   5.888  -3.484  0.00  0.00    +0.400 HD
ENDROOT
BRANCH   2   5
ATOM      5  C   LIG    1       -6.977   5.128  -5.498  0.00  0.00    -0.160 A 
ATOM      6  C   LIG    1       -7.633   4.857  -6.710  0.00  0.00    +0.150 A 
ATOM      7  N   LIG    1       -7.428   5.259  -8.005  0.00  0.00    -0.580 N 
ATOM      8  H   LIG    1       -6.727   5.864  -8.295  0.00  0.00    +0.430 HD
ATOM      9  C   LIG    1       -8.361   4.688  -8.827  0.00  0.00    +0.230 A 
ATOM     10  C   LIG    1       -9.184   3.906  -8.109  0.00  0.00    -0.050 A 
ATOM     11  C   LIG    1       -8.738   3.986  -6.715  0.00  0.00    -0.120 A 
ATOM     12  C   LIG    1       -9.179   3.410  -5.523  0.00  0.00    +0.100 A 
ATOM     13  C   LIG    1       -8.528   3.691  -4.340  0.00  0.00    -0.030 A 
ATOM     14  C   LIG    1       -7.436   4.540  -4.321  0.00  0.00    +0.070 A 
ENDBRANCH   2   5
BRANCH   3  15
ATOM     15  C   LIG    1       -4.034   7.195  -4.278  0.00  0.00    +0.240 C 
ATOM     16  C   LIG    1       -3.799   7.876  -2.923  0.00  0.00    +0.290 C 
ATOM     17  N   LIG    1       -2.998   6.706  -2.532  0.00  0.00    -0.650 N 
ATOM     18  C   LIG    1       -2.676   6.094  -1.376  0.00  0.00    +0.540 C 
ATOM     19  O   LIG    1       -3.094   6.527  -0.323  0.00  0.00    -0.530 OA
ATOM     20  C   LIG    1       -2.699   6.503  -3.958  0.00  0.00    +0.270 C 
BRANCH  18  21
ATOM     21  C   LIG    1       -1.795   4.870  -1.391  0.00  0.00    +0.060 C 
BRANCH  21  22
ATOM     22  C   LIG    1       -1.585   4.375   0.041  0.00  0.00    +0.150 C 
BRANCH  22  23
ATOM     23  C   LIG    1       -0.705   3.152   0.026  0.00  0.00    -0.030 A 
ATOM     24  C   LIG    1        0.641   3.132   0.013  0.00  0.00    +0.150 A 
ATOM     25  N   LIG    1        1.037   1.851   0.002  0.00  0.00    -0.490 NA
ATOM     26  C   LIG    1       -0.013   1.076   0.008  0.00  0.00    +0.400 A 
ATOM     27  N   LIG    1       -1.121   1.848   0.017  0.00  0.00    -0.570 N 
ATOM     28  H   LIG    1       -2.039   1.536   0.019  0.00  0.00    +0.420 HD
ENDBRANCH  22  23
ENDBRANCH  21  22
ENDBRANCH  18  21
ENDBRANCH   3  15
TORSDOF 5
