REMARK  Name = ZINCpk000005Wwd6.0
REMARK                            x       y       z     vdW  Elec       q    Type
REMARK                         _______ _______ _______ _____ _____    ______ ____
ROOT
ATOM      1  O   LIG    1       -1.197   9.051   3.943  0.00  0.00    -0.550 OA
ATOM      2  C   LIG    1       -1.167   8.810   2.751  0.00  0.00    +0.570 C 
ATOM      3  N   LIG    1       -1.778   7.709   2.271  0.00  0.00    -0.710 N 
ATOM      4  H   LIG    1       -1.754   7.517   1.321  0.00  0.00    +0.410 HD
ENDROOT
BRANCH   2   5
ATOM      5  C   LIG    1       -0.463   9.724   1.831  0.00  0.00    -0.160 A 
ATOM      6  C   LIG    1        0.170  10.876   2.326  0.00  0.00    +0.150 A 
ATOM      7  N   LIG    1        0.317  11.405   3.583  0.00  0.00    -0.580 N 
ATOM      8  H   LIG    1       -0.045  11.018   4.396  0.00  0.00    +0.430 HD
ATOM      9  C   LIG    1        1.044  12.563   3.520  0.00  0.00    +0.220 A 
ATOM     10  C   LIG    1        1.391  12.816   2.249  0.00  0.00    -0.050 A 
ATOM     11  C   LIG    1        0.840  11.730   1.433  0.00  0.00    -0.120 A 
ATOM     12  C   LIG    1        0.863  11.436   0.069  0.00  0.00    +0.100 A 
ATOM     13  C   LIG    1        0.232  10.304  -0.403  0.00  0.00    -0.030 A 
ATOM     14  C   LIG    1       -0.427   9.452   0.465  0.00  0.00    +0.080 A 
ENDBRANCH   2   5
BRANCH   3  15
ATOM     15  C   LIG    1       -2.478   6.802   3.184  0.00  0.00    +0.240 C 
ATOM     16  C   LIG    1       -3.591   5.978   2.523  0.00  0.00    +0.280 C 
ATOM     17  N   LIG    1       -2.572   4.974   2.179  0.00  0.00    -0.650 N 
ATOM     18  C   LIG    1       -2.412   4.044   1.218  0.00  0.00    +0.540 C 
ATOM     19  O   LIG    1       -3.260   3.906   0.361  0.00  0.00    -0.540 OA
ATOM     20  C   LIG    1       -1.808   5.428   3.351  0.00  0.00    +0.280 C 
BRANCH  18  21
ATOM     21  C   LIG    1       -1.181   3.175   1.207  0.00  0.00    +0.070 C 
BRANCH  21  22
ATOM     22  C   LIG    1       -1.247   2.211   0.020  0.00  0.00    +0.140 C 
BRANCH  22  23
ATOM     23  C   LIG    1       -0.016   1.343   0.009  0.00  0.00    -0.000 A 
ATOM     24  C   LIG    1        0.002  -0.004   0.002  0.00  0.00    +0.130 A 
ATOM     25  N   LIG    1        1.317  -0.382  -0.013  0.00  0.00    -0.570 N 
ATOM     26  H   LIG    1        1.655  -1.292  -0.021  0.00  0.00    +0.420 HD
ATOM     27  C   LIG    1        2.058   0.747  -0.014  0.00  0.00    +0.400 A 
ATOM     28  N   LIG    1        1.254   1.775  -0.000  0.00  0.00    -0.490 NA
ENDBRANCH  22  23
ENDBRANCH  21  22
ENDBRANCH  18  21
ENDBRANCH   3  15
TORSDOF 5
