REMARK  Name = ZINCtV00000L6jz6.0
REMARK                            x       y       z     vdW  Elec       q    Type
REMARK                         _______ _______ _______ _____ _____    ______ ____
ROOT
ATOM      1  C   LIG    1        6.062   4.220  -0.028  0.00  0.00    +0.620 C 
ATOM      2  N   LIG    1        6.416   3.111  -0.925  0.00  0.00    -0.750 N 
ATOM      3  H   LIG    1        6.736   3.304  -1.820  0.00  0.00    +0.420 HD
ATOM      4  C   LIG    1        6.298   1.788  -0.509  0.00  0.00    +0.210 A 
ATOM      5  C   LIG    1        6.020   0.770  -1.406  0.00  0.00    -0.040 A 
ATOM      6  C   LIG    1        5.930  -0.535  -0.959  0.00  0.00    +0.060 A 
ATOM      7  C   LIG    1        6.115  -0.840   0.379  0.00  0.00    -0.020 A 
ATOM      8  C   LIG    1        6.386   0.164   1.291  0.00  0.00    +0.100 A 
ATOM      9  C   LIG    1        6.470   1.477   0.854  0.00  0.00    -0.080 A 
ATOM     10  C   LIG    1        6.712   2.610   1.769  0.00  0.00    +0.330 A 
ATOM     11  N   LIG    1        7.075   2.614   3.021  0.00  0.00    -0.470 NA
ATOM     12  C   LIG    1        7.197   3.885   3.446  0.00  0.00    +0.040 A 
ATOM     13  C   LIG    1        7.576   4.422   4.683  0.00  0.00    +0.090 A 
ATOM     14  C   LIG    1        7.601   5.800   4.788  0.00  0.00    +0.000 A 
ATOM     15  C   LIG    1        7.268   6.623   3.727  0.00  0.00    +0.030 A 
ATOM     16  C   LIG    1        6.887   6.117   2.495  0.00  0.00    +0.010 A 
ATOM     17  C   LIG    1        6.852   4.734   2.360  0.00  0.00    +0.070 A 
ATOM     18  N   LIG    1        6.530   3.913   1.326  0.00  0.00    -0.510 N 
ENDROOT
BRANCH   1  22
ATOM     19  C   LIG    1        2.420   3.937   0.001  0.00  0.00    +0.040 A 
ATOM     20  C   LIG    1        2.537   5.291   0.007  0.00  0.00    -0.030 A 
ATOM     21  C   LIG    1        3.917   5.579  -0.003  0.00  0.00    -0.010 A 
ATOM     22  C   LIG    1        4.566   4.399  -0.015  0.00  0.00    -0.050 A 
ATOM     23  O   LIG    1        3.659   3.409  -0.008  0.00  0.00    -0.150 OA
BRANCH  19  28
ATOM     24 BR   LIG    1       -2.843   0.777   0.019  0.00  0.00    -0.040 Br
ATOM     25  C   LIG    1       -1.222   1.750   0.017  0.00  0.00    -0.080 A 
ATOM     26  C   LIG    1       -0.013   1.076   0.008  0.00  0.00    +0.050 A 
ATOM     27  C   LIG    1        1.173   1.780   0.000  0.00  0.00    +0.050 A 
ATOM     28  C   LIG    1        1.153   3.176   0.008  0.00  0.00    -0.000 A 
ATOM     29  C   LIG    1       -0.070   3.850   0.023  0.00  0.00    +0.050 A 
ATOM     30  C   LIG    1       -1.249   3.134   0.031  0.00  0.00    +0.050 A 
ENDBRANCH  19  28
ENDBRANCH   1  22
TORSDOF 2
