REMARK  Name = ZINCrD000000D6jN.0
REMARK                            x       y       z     vdW  Elec       q    Type
REMARK                         _______ _______ _______ _____ _____    ______ ____
ROOT
ATOM      1  C   LIG    1       -1.243   3.136   0.030  0.00  0.00    -0.660 A 
ATOM      2  C   LIG    1       -0.059   3.846   0.022  0.00  0.00    +0.080 A 
ATOM      3  C   LIG    1        1.155   3.171   0.008  0.00  0.00    +0.200 A 
ATOM      4  C   LIG    1        1.175   1.782   0.000  0.00  0.00    +0.020 A 
ATOM      5  C   LIG    1       -0.013   1.076   0.008  0.00  0.00    +0.030 A 
ATOM      6  C   LIG    1       -1.221   1.751   0.017  0.00  0.00    +0.130 A 
ATOM      7  F   LIG    1       -2.381   1.058   0.019  0.00  0.00    -0.130 F 
ENDROOT
BRANCH   1   9
ATOM      8  O   LIG    1       -3.562   3.393   1.075  0.00  0.00    -0.940 OA
ATOM      9  S   LIG    1       -2.783   3.992   0.049  0.00  0.00    +2.690 S 
ATOM     10  O   LIG    1       -2.471   5.378   0.019  0.00  0.00    -0.950 OA
BRANCH   9  11
ATOM     11  N   LIG    1       -3.550   3.654  -1.379  0.00  0.00    -1.000 NA
ATOM     12  C   LIG    1       -3.355   4.505  -2.564  0.00  0.00    +0.280 C 
ATOM     13  C   LIG    1       -2.994   3.598  -3.751  0.00  0.00    +0.220 C 
ATOM     14  O   LIG    1       -3.974   2.564  -3.867  0.00  0.00    -0.380 OA
ATOM     15  C   LIG    1       -4.040   1.690  -2.737  0.00  0.00    +0.220 C 
ATOM     16  C   LIG    1       -4.451   2.497  -1.499  0.00  0.00    +0.280 C 
ENDBRANCH   9  11
ENDBRANCH   1   9
BRANCH   3  17
ATOM     17  N   LIG    1        2.355   3.888   0.000  0.00  0.00    -0.740 N 
ATOM     18  H   LIG    1        2.341   4.858   0.005  0.00  0.00    +0.410 HD
BRANCH  17  19
ATOM     19  C   LIG    1        3.635   3.174  -0.015  0.00  0.00    +0.310 C 
BRANCH  19  20
ATOM     20  C   LIG    1        4.766   4.170  -0.020  0.00  0.00    -0.110 A 
ATOM     21  C   LIG    1        5.411   4.477  -1.203  0.00  0.00    +0.040 A 
ATOM     22  C   LIG    1        6.448   5.391  -1.208  0.00  0.00    +0.000 A 
ATOM     23  C   LIG    1        6.840   5.998  -0.029  0.00  0.00    +0.030 A 
ATOM     24  C   LIG    1        6.193   5.692   1.154  0.00  0.00    +0.010 A 
ATOM     25  C   LIG    1        5.154   4.782   1.158  0.00  0.00    -0.030 A 
BRANCH  25  26
ATOM     26  C   LIG    1        4.446   4.452   2.447  0.00  0.00    -0.010 C 
ATOM     27  C   LIG    1        4.780   5.302   3.674  0.00  0.00    +0.030 C 
ATOM     28  C   LIG    1        5.284   3.861   3.582  0.00  0.00    +0.030 C 
ENDBRANCH  25  26
ENDBRANCH  19  20
ENDBRANCH  17  19
ENDBRANCH   3  17
TORSDOF 6
