REMARK  Name = ZINCkj00000a6fNv.0
REMARK                            x       y       z     vdW  Elec       q    Type
REMARK                         _______ _______ _______ _____ _____    ______ ____
ROOT
ATOM      1  N   LIG    1       -0.579  -0.289  -2.515  0.00  0.00    -0.740 N 
ATOM      2  H   LIG    1       -0.066  -0.735  -1.824  0.00  0.00    +0.390 HD
ATOM      3  C   LIG    1       -1.033   0.964  -2.317  0.00  0.00    +0.730 C 
ATOM      4  N   LIG    1       -0.773   1.599  -1.156  0.00  0.00    -0.640 N 
ATOM      5  C   LIG    1       -0.013   1.086   0.008  0.00  0.00    +0.280 C 
ATOM      6  C   LIG    1       -0.783   1.608   1.243  0.00  0.00    +0.180 C 
ATOM      7  C   LIG    1       -1.544   2.839   0.730  0.00  0.00    -0.120 C 
ATOM      8  C   LIG    1       -3.036   2.879   1.054  0.00  0.00    +0.050 C 
ATOM      9  C   LIG    1       -2.862   4.395   1.258  0.00  0.00    +0.060 C 
ATOM     10  C   LIG    1       -1.379   4.110   1.560  0.00  0.00    +0.030 C 
ATOM     11  C   LIG    1       -1.185   2.967  -0.757  0.00  0.00    +0.340 C 
ATOM     12  O   LIG    1       -1.677   1.522  -3.184  0.00  0.00    -0.560 OA
ENDROOT
BRANCH   6  13
ATOM     13  N   LIG    1        0.154   1.989   2.308  0.00  0.00    -0.630 N 
ATOM     14  H   LIG    1        0.685   1.180   2.595  0.00  0.00    +0.440 HD
ATOM     15  H   LIG    1       -0.362   2.349   3.097  0.00  0.00    +0.440 HD
ATOM     16  H   LIG    1        0.783   2.699   1.965  0.00  0.00    +0.440 HD
ENDBRANCH   6  13
BRANCH   1  17
ATOM     17  C   LIG    1       -0.862  -0.979  -3.777  0.00  0.00    +0.290 C 
BRANCH  17  19
ATOM     18  C   LIG    1       -0.833  -3.175  -2.583  0.00  0.00    +0.030 C 
ATOM     19  C   LIG    1       -0.238  -2.376  -3.745  0.00  0.00    -0.070 C 
ATOM     20  C   LIG    1        1.278  -2.256  -3.562  0.00  0.00    +0.010 C 
ATOM     21  C   LIG    1        1.902  -3.654  -3.612  0.00  0.00    +0.200 C 
ATOM     22  O   LIG    1        1.568  -4.281  -4.852  0.00  0.00    -0.380 OA
ATOM     23  C   LIG    1        0.165  -4.462  -5.055  0.00  0.00    +0.210 C 
ATOM     24  C   LIG    1       -0.529  -3.097  -5.065  0.00  0.00    +0.010 C 
ENDBRANCH  17  19
ENDBRANCH   1  17
TORSDOF 3
