REMARK  Name = ZINCvU00000006zZ.0
REMARK                            x       y       z     vdW  Elec       q    Type
REMARK                         _______ _______ _______ _____ _____    ______ ____
ROOT
ATOM      1  C   LIG    1       -2.459   1.073  -0.022  0.00  0.00    +0.300 C 
ENDROOT
BRANCH   1   2
ATOM      2  N   LIG    1       -1.217   1.850  -0.032  0.00  0.00    -0.560 N 
ATOM      3  C   LIG    1       -0.042   1.193  -0.050  0.00  0.00    +0.570 A 
ATOM      4  C   LIG    1        1.226   1.938  -0.066  0.00  0.00    -0.160 A 
ATOM      5  C   LIG    1        2.458   1.303  -0.090  0.00  0.00    +0.150 A 
ATOM      6  C   LIG    1        3.630   2.051  -0.105  0.00  0.00    +0.000 A 
ATOM      7  C   LIG    1        3.607   3.416  -0.096  0.00  0.00    +0.090 A 
ATOM      8  C   LIG    1        2.378   4.099  -0.072  0.00  0.00    -0.080 A 
ATOM      9  C   LIG    1        2.301   5.503  -0.062  0.00  0.00    +0.090 A 
ATOM     10  C   LIG    1        1.084   6.121  -0.038  0.00  0.00    +0.000 A 
ATOM     11  C   LIG    1       -0.101   5.395  -0.024  0.00  0.00    +0.150 A 
ATOM     12  C   LIG    1       -0.069   4.008  -0.033  0.00  0.00    -0.160 A 
ATOM     13  C   LIG    1        1.182   3.351  -0.058  0.00  0.00    +0.010 A 
ATOM     14  O   LIG    1       -0.028  -0.023  -0.057  0.00  0.00    -0.490 OA
ATOM     15  C   LIG    1       -1.293   3.194  -0.019  0.00  0.00    +0.570 A 
ATOM     16  O   LIG    1       -2.381   3.738   0.001  0.00  0.00    -0.490 OA
ENDBRANCH   1   2
BRANCH   1  17
ATOM     17  C   LIG    1       -2.874   0.793   1.424  0.00  0.00    +0.040 C 
BRANCH  17  18
ATOM     18  C   LIG    1       -4.171  -0.018   1.434  0.00  0.00    +0.110 C 
BRANCH  18  19
ATOM     19  C   LIG    1       -4.580  -0.294   2.858  0.00  0.00    +0.460 C 
ATOM     20  O   LIG    1       -3.904   0.117   3.771  0.00  0.00    -0.510 OA
BRANCH  19  21
ATOM     21  O   LIG    1       -5.696  -0.995   3.112  0.00  0.00    -0.350 OA
BRANCH  21  28
ATOM     22  C   LIG    1       -7.548  -1.324   4.659  0.00  0.00    +0.000 C 
ATOM     23  C   LIG    1       -7.899  -1.563   6.129  0.00  0.00    +0.030 C 
ATOM     24  C   LIG    1       -7.250  -2.865   6.603  0.00  0.00    +0.020 C 
ATOM     25  C   LIG    1       -5.731  -2.764   6.451  0.00  0.00    -0.020 C 
ATOM     26  C   LIG    1       -5.381  -2.525   4.981  0.00  0.00    +0.010 C 
ATOM     27  C   LIG    1       -5.083  -4.067   6.924  0.00  0.00    +0.030 C 
ATOM     28  C   LIG    1       -6.029  -1.222   4.507  0.00  0.00    +0.180 C 
BRANCH  22  30
ATOM     29  C   LIG    1       -9.719  -0.171   4.210  0.00  0.00    +0.020 C 
ATOM     30  C   LIG    1       -8.196  -0.021   4.186  0.00  0.00    -0.020 C 
ATOM     31  C   LIG    1       -7.782   1.122   5.115  0.00  0.00    +0.020 C 
ENDBRANCH  22  30
ENDBRANCH  21  28
ENDBRANCH  19  21
ENDBRANCH  18  19
ENDBRANCH  17  18
ENDBRANCH   1  17
TORSDOF 7
