REMARK  Name = ZINCpk000004AN4n.0
REMARK                            x       y       z     vdW  Elec       q    Type
REMARK                         _______ _______ _______ _____ _____    ______ ____
ROOT
ATOM      1  C   LIG    1        0.403   6.248  -2.086  0.00  0.00    +0.520 C 
ATOM      2  N   LIG    1        0.790   5.782  -0.882  0.00  0.00    -0.620 N 
ATOM      3  C   LIG    1        0.590   6.225   0.511  0.00  0.00    +0.290 C 
ATOM      4  C   LIG    1        1.886   5.459   0.831  0.00  0.00    -0.080 C 
ATOM      5  C   LIG    1        3.151   6.313   0.717  0.00  0.00    +0.060 C 
ATOM      6  C   LIG    1        1.823   4.655   2.131  0.00  0.00    +0.050 C 
ATOM      7  C   LIG    1        1.586   4.625  -0.428  0.00  0.00    +0.320 C 
ATOM      8  O   LIG    1        0.725   5.660  -3.096  0.00  0.00    -0.520 OA
ENDROOT
BRANCH   7   9
ATOM      9  C   LIG    1        0.763   3.392  -0.158  0.00  0.00    +0.210 A 
ATOM     10  N   LIG    1       -0.488   3.378   0.213  0.00  0.00    -0.470 NA
ATOM     11  C   LIG    1       -0.893   2.107   0.355  0.00  0.00    +0.150 A 
ATOM     12  C   LIG    1        0.149   1.303   0.069  0.00  0.00    +0.130 A 
ATOM     13  N   LIG    1        1.199   2.117  -0.260  0.00  0.00    -0.450 N 
BRANCH  13  14
ATOM     14  C   LIG    1        2.544   1.687  -0.649  0.00  0.00    +0.300 C 
BRANCH  14  15
ATOM     15  C   LIG    1        3.445   1.651   0.587  0.00  0.00    +0.170 C 
BRANCH  15  16
ATOM     16  O   LIG    1        4.766   1.262   0.202  0.00  0.00    -0.390 OA
ATOM     17  C   LIG    1        5.692   1.196   1.288  0.00  0.00    +0.210 C 
ENDBRANCH  15  16
ENDBRANCH  14  15
ENDBRANCH  13  14
ENDBRANCH   7   9
BRANCH   1  18
ATOM     18  C   LIG    1       -0.431   7.500  -2.177  0.00  0.00    +0.340 C 
BRANCH  18  20
ATOM     19  C   LIG    1       -1.823   7.287  -4.165  0.00  0.00    +0.550 C 
ATOM     20  N   LIG    1       -0.718   7.795  -3.583  0.00  0.00    -0.600 N 
ATOM     21  O   LIG    1       -2.581   6.585  -3.524  0.00  0.00    -0.540 OA
BRANCH  19  23
ATOM     22  C   LIG    1       -3.201   7.082  -6.152  0.00  0.00    +0.140 C 
ATOM     23  C   LIG    1       -2.111   7.583  -5.577  0.00  0.00    -0.090 C 
ENDBRANCH  19  23
BRANCH  20  24
ATOM     24  C   LIG    1        0.195   8.641  -4.355  0.00  0.00    +0.270 C 
ATOM     25  C   LIG    1        1.259   7.767  -5.022  0.00  0.00    +0.020 C 
ENDBRANCH  20  24
ENDBRANCH  18  20
ENDBRANCH   1  18
TORSDOF 8
