REMARK  Name = ZINCqH0000001oUZ.0
REMARK                            x       y       z     vdW  Elec       q    Type
REMARK                         _______ _______ _______ _____ _____    ______ ____
ROOT
ATOM      1  C   LIG    1        6.137  -1.268   1.663  0.00  0.00    -0.020 C 
ATOM      2  C   LIG    1        5.545  -2.598   2.135  0.00  0.00    +0.060 C 
ATOM      3  C   LIG    1        4.026  -2.462   2.271  0.00  0.00    +0.030 C 
ATOM      4  C   LIG    1        3.425  -2.120   0.909  0.00  0.00    +0.260 C 
ATOM      5  N   LIG    1        4.093  -0.925   0.377  0.00  0.00    -0.610 N 
ATOM      6  C   LIG    1        3.374   0.145  -0.019  0.00  0.00    +0.590 C 
ATOM      7  O   LIG    1        3.941   1.145  -0.416  0.00  0.00    -0.510 OA
ATOM      8  C   LIG    1        5.559  -0.915   0.289  0.00  0.00    +0.300 C 
ENDROOT
BRANCH   6   9
ATOM      9  C   LIG    1        1.906   0.103   0.030  0.00  0.00    +0.030 A 
ATOM     10  C   LIG    1        1.089   1.185   0.112  0.00  0.00    +0.070 A 
ATOM     11  C   LIG    1       -0.246   0.717   0.135  0.00  0.00    -0.140 A 
ATOM     12  C   LIG    1       -1.491   1.360   0.215  0.00  0.00    +0.170 A 
ATOM     13  C   LIG    1       -2.646   0.612   0.213  0.00  0.00    -0.010 A 
ATOM     14  C   LIG    1       -2.587  -0.774   0.141  0.00  0.00    -0.030 A 
ATOM     15  C   LIG    1       -1.373  -1.423   0.066  0.00  0.00    +0.030 A 
ATOM     16 BR   LIG    1       -4.187  -1.782   0.146  0.00  0.00    -0.020 Br
ATOM     17  F   LIG    1       -1.555   2.708   0.285  0.00  0.00    -0.120 F 
ATOM     18  C   LIG    1       -0.191  -0.689   0.062  0.00  0.00    +0.140 A 
ATOM     19  N   LIG    1        1.136  -1.045  -0.001  0.00  0.00    -0.570 N 
ATOM     20  H   LIG    1        1.475  -1.952  -0.059  0.00  0.00    +0.430 HD
ENDBRANCH   6   9
BRANCH   1  22
ATOM     21  N   LIG    1        8.408  -0.289   1.602  0.00  0.00    -0.610 N 
ATOM     22  C   LIG    1        7.636  -1.393   1.562  0.00  0.00    +0.520 C 
ATOM     23  O   LIG    1        8.147  -2.486   1.444  0.00  0.00    -0.530 OA
ATOM     24  C   LIG    1        9.868  -0.416   1.603  0.00  0.00    +0.290 C 
BRANCH  21  26
ATOM     25  C   LIG    1        8.186   1.745   2.941  0.00  0.00    +0.020 C 
ATOM     26  C   LIG    1        7.788   1.038   1.645  0.00  0.00    +0.220 C 
ATOM     27  C   LIG    1        8.264   1.862   0.447  0.00  0.00    +0.030 C 
ENDBRANCH  21  26
ENDBRANCH   1  22
TORSDOF 3
