REMARK  Name = ZINCkj000005iBJp.0
REMARK                            x       y       z     vdW  Elec       q    Type
REMARK                         _______ _______ _______ _____ _____    ______ ____
ROOT
ATOM      1  S   LIG    1       -2.635   0.192   2.083  0.00  0.00    +2.690 S 
ATOM      2  O   LIG    1       -2.948  -0.201   0.754  0.00  0.00    -0.950 OA
ATOM      3  O   LIG    1       -3.614   0.335   3.103  0.00  0.00    -0.940 OA
ENDROOT
BRANCH   1   7
ATOM      4  C   LIG    1        0.385  -2.811   3.624  0.00  0.00    +0.200 A 
ATOM      5  C   LIG    1       -0.194  -1.899   4.495  0.00  0.00    -0.040 A 
ATOM      6  C   LIG    1       -1.115  -0.984   4.022  0.00  0.00    +0.070 A 
ATOM      7  C   LIG    1       -1.460  -0.977   2.683  0.00  0.00    -0.730 A 
ATOM      8  C   LIG    1       -0.888  -1.888   1.815  0.00  0.00    +0.060 A 
ATOM      9  C   LIG    1       -1.270  -1.881   0.357  0.00  0.00    +0.110 C 
ATOM     10  C   LIG    1       -1.745   0.007   4.967  0.00  0.00    +0.120 C 
ATOM     11  C   LIG    1        0.038  -2.801   2.281  0.00  0.00    -0.100 A 
BRANCH   4  13
ATOM     12  C   LIG    1        1.847  -4.620   3.134  0.00  0.00    +0.250 C 
ATOM     13  O   LIG    1        1.292  -3.712   4.087  0.00  0.00    -0.310 OA
ENDBRANCH   4  13
ENDBRANCH   1   7
BRANCH   1  14
ATOM     14  N   LIG    1       -1.861   1.651   1.970  0.00  0.00    -1.110 NA
ATOM     15  H   LIG    1       -2.164   2.404   2.502  0.00  0.00    +0.430 HD
BRANCH  14  16
ATOM     16  C   LIG    1       -0.718   1.806   1.067  0.00  0.00    +0.250 C 
ATOM     17  C   LIG    1        0.493   2.311   1.857  0.00  0.00    +0.040 C 
ATOM     18  C   LIG    1        1.659   2.543   0.891  0.00  0.00    +0.060 C 
ATOM     19  C   LIG    1        1.225   3.527  -0.198  0.00  0.00    +0.260 C 
ATOM     20  N   LIG    1        0.082   2.974  -0.933  0.00  0.00    -0.500 N 
ATOM     21  H   LIG    1        0.332   2.075  -1.317  0.00  0.00    +0.430 HD
ATOM     22  H   LIG    1       -0.168   3.600  -1.684  0.00  0.00    +0.440 HD
ATOM     23  C   LIG    1       -1.063   2.817  -0.028  0.00  0.00    +0.250 C 
ENDBRANCH  14  16
ENDBRANCH   1  14
TORSDOF 4
