REMARK  Name = ZINCrg000000owp3.0
REMARK                            x       y       z     vdW  Elec       q    Type
REMARK                         _______ _______ _______ _____ _____    ______ ____
ROOT
ATOM      1  N   LIG    1        2.210   4.090   0.890  0.00  0.00    -0.720 N 
ATOM      2  H   LIG    1        2.992   3.544   1.065  0.00  0.00    +0.400 HD
ATOM      3  C   LIG    1        2.098   5.308   1.457  0.00  0.00    +0.510 C 
ATOM      4  O   LIG    1        1.121   5.992   1.238  0.00  0.00    -0.520 OA
ENDROOT
BRANCH   1   5
ATOM      5  C   LIG    1        1.151   3.592   0.010  0.00  0.00    +0.290 C 
BRANCH   5   6
ATOM      6  C   LIG    1        1.171   2.086   0.002  0.00  0.00    -0.100 A 
ATOM      7  C   LIG    1       -0.017   1.378   0.010  0.00  0.00    +0.020 A 
ATOM      8  C   LIG    1        0.002  -0.004   0.002  0.00  0.00    +0.000 A 
ATOM      9  C   LIG    1        1.208  -0.679  -0.013  0.00  0.00    -0.080 A 
ATOM     10  C   LIG    1        2.396   0.029  -0.021  0.00  0.00    +0.000 A 
ATOM     11  C   LIG    1        1.229  -2.186  -0.021  0.00  0.00    +0.090 C 
ATOM     12  C   LIG    1        2.377   1.411  -0.015  0.00  0.00    +0.010 A 
ENDBRANCH   5   6
BRANCH   5  14
ATOM     13  C   LIG    1        1.236   5.636  -1.425  0.00  0.00    +0.020 C 
ATOM     14  C   LIG    1        1.381   4.113  -1.410  0.00  0.00    +0.010 C 
ENDBRANCH   5  14
ENDBRANCH   1   5
BRANCH   3  15
ATOM     15  C   LIG    1        3.188   5.821   2.363  0.00  0.00    +0.360 C 
BRANCH  15  16
ATOM     16  N   LIG    1        2.832   7.156   2.848  0.00  0.00    -0.530 N 
ATOM     17  C   LIG    1        2.129   7.282   3.992  0.00  0.00    +0.600 A 
ATOM     18  C   LIG    1        1.789   8.572   4.455  0.00  0.00    -0.150 A 
ATOM     19  C   LIG    1        2.189   9.681   3.719  0.00  0.00    +0.320 A 
ATOM     20  N   LIG    1        2.909   9.486   2.552  0.00  0.00    -0.510 N 
ATOM     21  C   LIG    1        3.342  10.639   1.758  0.00  0.00    +0.340 C 
ATOM     22  N   LIG    1        1.746  10.764   4.364  0.00  0.00    -0.500 NA
ATOM     23  C   LIG    1        1.103  10.404   5.445  0.00  0.00    +0.500 A 
ATOM     24  N   LIG    1        1.101   9.060   5.547  0.00  0.00    -0.410 N 
ATOM     25  C   LIG    1        0.485   8.268   6.614  0.00  0.00    +0.360 C 
ATOM     26  O   LIG    1        1.790   6.294   4.619  0.00  0.00    -0.510 OA
ATOM     27  C   LIG    1        3.217   8.239   2.149  0.00  0.00    +0.720 A 
ATOM     28  O   LIG    1        3.854   8.087   1.125  0.00  0.00    -0.530 OA
ENDBRANCH  15  16
ENDBRANCH   3  15
TORSDOF 5
