REMARK  Name = ZINCrH00000No4OR.0
REMARK                            x       y       z     vdW  Elec       q    Type
REMARK                         _______ _______ _______ _____ _____    ______ ____
ROOT
ATOM      1  O   LIG    1        2.220   5.586   0.464  0.00  0.00    -0.510 OA
ATOM      2  C   LIG    1        1.154   6.163   0.578  0.00  0.00    +0.550 C 
ATOM      3  N   LIG    1        1.128   7.492   0.799  0.00  0.00    -0.660 N 
ATOM      4  H   LIG    1        0.282   7.941   0.955  0.00  0.00    +0.420 HD
ENDROOT
BRANCH   3   5
ATOM      5  C   LIG    1        2.320   8.224   0.805  0.00  0.00    +0.160 A 
ATOM      6  C   LIG    1        2.340   9.521   0.309  0.00  0.00    +0.030 A 
ATOM      7  C   LIG    1        3.517  10.245   0.314  0.00  0.00    +0.080 A 
ATOM      8  C   LIG    1        4.679   9.676   0.815  0.00  0.00    +0.120 A 
ATOM      9  C   LIG    1        4.660   8.378   1.312  0.00  0.00    +0.100 A 
ATOM     10  F   LIG    1        5.792   7.824   1.800  0.00  0.00    -0.130 F 
ATOM     11  C   LIG    1        3.482   7.656   1.312  0.00  0.00    +0.030 A 
BRANCH   8  12
ATOM     12  N   LIG    1        5.874  10.412   0.820  0.00  0.00    -0.330 N 
ATOM     13  C   LIG    1        7.072   9.982   1.277  0.00  0.00    +0.240 A 
ATOM     14  C   LIG    1        7.963  10.986   1.105  0.00  0.00    -0.100 A 
ATOM     15  C   LIG    1        7.289  12.065   0.524  0.00  0.00    +0.250 A 
ATOM     16  N   LIG    1        6.039  11.721   0.348  0.00  0.00    -0.290 NA
ENDBRANCH   8  12
ENDBRANCH   3   5
BRANCH   2  17
ATOM     17  C   LIG    1       -0.098   5.414   0.473  0.00  0.00    -0.040 C 
ATOM     18  C   LIG    1       -0.071   4.083   0.251  0.00  0.00    +0.120 C 
BRANCH  18  19
ATOM     19  C   LIG    1       -1.331   3.330   0.146  0.00  0.00    -0.020 A 
ATOM     20  C   LIG    1       -2.556   4.003   0.170  0.00  0.00    +0.090 A 
ATOM     21  C   LIG    1       -3.732   3.291   0.077  0.00  0.00    +0.050 A 
ATOM     22  C   LIG    1       -3.702   1.910  -0.046  0.00  0.00    +0.120 A 
ATOM     23  C   LIG    1       -2.490   1.237  -0.076  0.00  0.00    +0.070 A 
ATOM     24  F   LIG    1       -4.859   1.218  -0.137  0.00  0.00    -0.120 F 
ATOM     25  C   LIG    1       -1.307   1.937   0.016  0.00  0.00    +0.010 A 
BRANCH  25  26
ATOM     26  N   LIG    1       -0.014   1.217  -0.017  0.00  0.00    +0.020 N 
ATOM     27  O   LIG    1        0.100   0.145   0.550  0.00  0.00    -0.130 OA
ATOM     28  O   LIG    1        0.936   1.698  -0.607  0.00  0.00    -0.130 OA
ENDBRANCH  25  26
ENDBRANCH  18  19
ENDBRANCH   2  17
TORSDOF 5
