REMARK  Name = ZINCrg000000tRgI.0
REMARK                            x       y       z     vdW  Elec       q    Type
REMARK                         _______ _______ _______ _____ _____    ______ ____
ROOT
ATOM      1  C   LIG    1       -3.159   4.056   0.634  0.00  0.00    +0.570 C 
ATOM      2  N   LIG    1       -2.735   5.295   0.314  0.00  0.00    -0.700 N 
ATOM      3  H   LIG    1       -1.787   5.499   0.318  0.00  0.00    +0.410 HD
ATOM      4  O   LIG    1       -4.349   3.824   0.718  0.00  0.00    -0.510 OA
ENDROOT
BRANCH   1   9
ATOM      5  C   LIG    1       -1.678   0.699   1.448  0.00  0.00    +0.150 A 
ATOM      6  C   LIG    1       -0.326   1.021   1.339  0.00  0.00    -0.050 A 
ATOM      7  C   LIG    1        0.036   2.313   1.006  0.00  0.00    +0.300 A 
ATOM      8  N   LIG    1       -0.875   3.239   0.792  0.00  0.00    -0.480 NA
ATOM      9  C   LIG    1       -2.174   2.978   0.885  0.00  0.00    +0.100 A 
ATOM     10  C   LIG    1       -2.618   1.701   1.210  0.00  0.00    +0.020 A 
BRANCH   5  14
ATOM     11  O   LIG    1       -4.242  -3.100   0.531  0.00  0.00    -0.540 OA
ATOM     12  C   LIG    1       -3.284  -2.581   1.064  0.00  0.00    +0.530 C 
ATOM     13  C   LIG    1       -2.988  -1.139   0.764  0.00  0.00    +0.260 C 
ATOM     14  N   LIG    1       -2.079  -0.592   1.781  0.00  0.00    -0.480 N 
ATOM     15  C   LIG    1       -0.917  -1.478   1.953  0.00  0.00    +0.200 C 
ATOM     16  C   LIG    1       -1.383  -2.778   2.611  0.00  0.00    +0.280 C 
ATOM     17  N   LIG    1       -2.535  -3.316   1.893  0.00  0.00    -0.720 N 
ATOM     18  H   LIG    1       -2.768  -4.249   2.023  0.00  0.00    +0.410 HD
ENDBRANCH   5  14
ENDBRANCH   1   9
BRANCH   2  19
ATOM     19  C   LIG    1       -3.707   6.332  -0.041  0.00  0.00    +0.190 C 
ATOM     20  C   LIG    1       -3.008   7.708  -0.213  0.00  0.00    +0.040 C 
ATOM     21  C   LIG    1       -2.958   8.198   1.257  0.00  0.00    +0.200 C 
ATOM     22  O   LIG    1       -4.184   7.739   1.847  0.00  0.00    -0.380 OA
ATOM     23  C   LIG    1       -4.676   6.601   1.130  0.00  0.00    +0.230 C 
BRANCH  19  24
ATOM     24  C   LIG    1       -4.463   5.951  -1.287  0.00  0.00    -0.080 A 
ATOM     25  C   LIG    1       -3.991   4.938  -2.100  0.00  0.00    +0.020 A 
ATOM     26  C   LIG    1       -4.688   4.585  -3.241  0.00  0.00    +0.000 A 
ATOM     27  C   LIG    1       -5.851   5.253  -3.574  0.00  0.00    +0.000 A 
ATOM     28  C   LIG    1       -6.321   6.270  -2.764  0.00  0.00    +0.020 A 
ATOM     29  C   LIG    1       -5.627   6.619  -1.621  0.00  0.00    +0.020 A 
ENDBRANCH  19  24
ENDBRANCH   2  19
TORSDOF 4
