REMARK  Name = ZINCkj000005lGYn.0
REMARK                            x       y       z     vdW  Elec       q    Type
REMARK                         _______ _______ _______ _____ _____    ______ ____
ROOT
ATOM      1  C   LIG    1       -1.094   2.870   5.765  0.00  0.00    +0.270 C 
ATOM      2  C   LIG    1       -1.852   4.199   5.844  0.00  0.00    +0.050 C 
ATOM      3  C   LIG    1       -2.399   4.384   7.261  0.00  0.00    +0.260 C 
ATOM      4  N   LIG    1       -1.290   4.393   8.222  0.00  0.00    -0.390 N 
ATOM      5  C   LIG    1       -0.604   3.095   8.203  0.00  0.00    +0.270 C 
ATOM      6  H   LIG    1       -0.637   5.121   7.974  0.00  0.00    +0.420 HD
ATOM      7  C   LIG    1        0.014   2.861   6.822  0.00  0.00    +0.050 C 
ENDROOT
BRANCH   1  10
ATOM      8  O   LIG    1       -2.385   1.874   3.617  0.00  0.00    -0.580 OA
ATOM      9  C   LIG    1       -1.233   2.212   3.423  0.00  0.00    +0.710 C 
ATOM     10  N   LIG    1       -0.502   2.723   4.433  0.00  0.00    -0.750 N 
ATOM     11  H   LIG    1        0.417   2.992   4.279  0.00  0.00    +0.400 HD
ATOM     12  N   LIG    1       -0.688   2.076   2.198  0.00  0.00    -0.730 N 
ATOM     13  H   LIG    1        0.231   2.346   2.043  0.00  0.00    +0.400 HD
BRANCH  12  14
ATOM     14  C   LIG    1       -1.484   1.521   1.100  0.00  0.00    +0.260 C 
ATOM     15  C   LIG    1       -0.637   0.870  -0.006  0.00  0.00    +0.020 C 
ATOM     16  C   LIG    1       -1.610   1.501  -1.017  0.00  0.00    +0.030 C 
ATOM     17  C   LIG    1       -1.905   2.567   0.052  0.00  0.00    +0.000 C 
ENDBRANCH  12  14
ENDBRANCH   1  10
BRANCH   4  18
ATOM     18  C   LIG    1       -1.814   4.648   9.570  0.00  0.00    +0.280 C 
BRANCH  18  19
ATOM     19  C   LIG    1       -2.583   5.971   9.577  0.00  0.00    -0.050 C 
ATOM     20  C   LIG    1       -3.185   6.240  10.974  0.00  0.00    +0.030 C 
ATOM     21  C   LIG    1       -2.515   7.558  11.424  0.00  0.00    +0.220 C 
ATOM     22  O   LIG    1       -2.126   8.211  10.196  0.00  0.00    -0.360 OA
ATOM     23  C   LIG    1       -1.621   7.157   9.344  0.00  0.00    +0.200 C 
ENDBRANCH  18  19
ENDBRANCH   4  18
TORSDOF 4
