REMARK  Name = ZINCvU0000000Bbc.0
REMARK                            x       y       z     vdW  Elec       q    Type
REMARK                         _______ _______ _______ _____ _____    ______ ____
ROOT
ATOM      1  C   LIG    1       -3.396   9.624  -3.873  0.00  0.00    +0.150 A 
ATOM      2  N   LIG    1       -4.356   8.803  -4.231  0.00  0.00    -0.290 NA
ATOM      3  N   LIG    1       -5.185   9.409  -5.004  0.00  0.00    -0.270 NA
ATOM      4  C   LIG    1       -4.809  10.643  -5.186  0.00  0.00    +0.200 A 
ATOM      5  N   LIG    1       -3.658  10.828  -4.468  0.00  0.00    -0.410 N 
ENDROOT
BRANCH   5   6
ATOM      6  C   LIG    1       -2.903  12.006  -4.365  0.00  0.00    +0.100 A 
ATOM      7  C   LIG    1       -3.428  13.115  -3.716  0.00  0.00    +0.030 A 
ATOM      8  C   LIG    1       -2.681  14.271  -3.612  0.00  0.00    +0.040 A 
ATOM      9  C   LIG    1       -1.414  14.329  -4.163  0.00  0.00    +0.030 A 
ATOM     10  C   LIG    1       -0.890  13.228  -4.815  0.00  0.00    +0.040 A 
ATOM     11  C   LIG    1       -1.631  12.067  -4.918  0.00  0.00    +0.040 A 
ENDBRANCH   5   6
BRANCH   1  12
ATOM     12  S   LIG    1       -2.033   9.249  -2.821  0.00  0.00    +0.090 S 
BRANCH  12  13
ATOM     13  C   LIG    1       -2.391   7.514  -2.450  0.00  0.00    +0.110 C 
BRANCH  13  16
ATOM     14  N   LIG    1       -1.385   5.684  -1.125  0.00  0.00    -0.720 N 
ATOM     15  H   LIG    1       -2.115   5.114  -1.416  0.00  0.00    +0.400 HD
ATOM     16  C   LIG    1       -1.325   6.965  -1.537  0.00  0.00    +0.540 C 
ATOM     17  O   LIG    1       -0.413   7.677  -1.173  0.00  0.00    -0.520 OA
BRANCH  14  19
ATOM     18  C   LIG    1       -0.702   5.480   1.214  0.00  0.00    +0.040 C 
ATOM     19  C   LIG    1       -0.349   5.150  -0.237  0.00  0.00    +0.290 C 
BRANCH  19  20
ATOM     20  C   LIG    1       -0.264   3.655  -0.407  0.00  0.00    -0.110 A 
ATOM     21  C   LIG    1        0.970   3.030  -0.414  0.00  0.00    +0.060 A 
ATOM     22  C   LIG    1        1.049   1.659  -0.569  0.00  0.00    -0.010 A 
ATOM     23  C   LIG    1       -0.106   0.912  -0.717  0.00  0.00    +0.100 A 
ATOM     24  C   LIG    1       -1.341   1.539  -0.715  0.00  0.00    -0.010 A 
ATOM     25  F   LIG    1       -0.030  -0.428  -0.869  0.00  0.00    -0.140 F 
ATOM     26  C   LIG    1       -1.418   2.910  -0.554  0.00  0.00    +0.040 A 
ENDBRANCH  19  20
ENDBRANCH  14  19
ENDBRANCH  13  16
ENDBRANCH  12  13
ENDBRANCH   1  12
BRANCH   4  27
ATOM     27  C   LIG    1       -5.513  11.676  -6.027  0.00  0.00    +0.260 C 
BRANCH  27  28
ATOM     28  C   LIG    1       -5.083  11.532  -7.465  0.00  0.00    -0.190 A 
ATOM     29  C   LIG    1       -5.678  10.755  -8.371  0.00  0.00    +0.040 A 
ATOM     30  C   LIG    1       -5.106  10.786  -9.631  0.00  0.00    +0.000 A 
ATOM     31  C   LIG    1       -4.042  11.582  -9.746  0.00  0.00    -0.040 A 
ATOM     32  S   LIG    1       -3.716  12.357  -8.202  0.00  0.00    +0.100 S 
ENDBRANCH  27  28
ENDBRANCH   4  27
TORSDOF 8
