REMARK  Name = ZINCrH000004kevh.0
REMARK                            x       y       z     vdW  Elec       q    Type
REMARK                         _______ _______ _______ _____ _____    ______ ____
ROOT
ATOM      1  N   LIG    1       -2.386   7.929   4.310  0.00  0.00    -0.670 N 
ATOM      2  H   LIG    1       -3.189   7.888   4.853  0.00  0.00    +0.410 HD
ATOM      3  C   LIG    1       -2.387   7.410   3.066  0.00  0.00    +0.510 C 
ATOM      4  O   LIG    1       -1.418   7.549   2.351  0.00  0.00    -0.490 OA
ENDROOT
BRANCH   1   9
ATOM      5  C   LIG    1        1.167   8.757   4.835  0.00  0.00    -0.120 A 
ATOM      6  C   LIG    1        1.062   9.719   5.840  0.00  0.00    +0.030 A 
ATOM      7  C   LIG    1       -0.179  10.076   6.327  0.00  0.00    +0.020 A 
ATOM      8  C   LIG    1       -1.322   9.489   5.817  0.00  0.00    -0.090 A 
ATOM      9  C   LIG    1       -1.227   8.525   4.819  0.00  0.00    +0.140 A 
ATOM     10  C   LIG    1       -2.674   9.889   6.348  0.00  0.00    +0.110 C 
ATOM     11  C   LIG    1        0.015   8.160   4.324  0.00  0.00    +0.090 A 
BRANCH   5  15
ATOM     12  C   LIG    1        4.924   8.571   4.288  0.00  0.00    +0.290 C 
ATOM     13  N   LIG    1        3.608   8.952   4.806  0.00  0.00    -0.730 N 
ATOM     14  H   LIG    1        3.537   9.620   5.505  0.00  0.00    +0.400 HD
ATOM     15  C   LIG    1        2.496   8.373   4.312  0.00  0.00    +0.560 C 
ATOM     16  O   LIG    1        2.585   7.535   3.436  0.00  0.00    -0.530 OA
ENDBRANCH   5  15
ENDBRANCH   1   9
BRANCH   3  17
ATOM     17  C   LIG    1       -3.593   6.659   2.564  0.00  0.00    +0.160 C 
BRANCH  17  18
ATOM     18  C   LIG    1       -3.340   6.186   1.156  0.00  0.00    -0.170 A 
ATOM     19  C   LIG    1       -3.699   6.805   0.023  0.00  0.00    +0.240 A 
ATOM     20  O   LIG    1       -3.304   6.086  -1.043  0.00  0.00    -0.190 OA
ATOM     21  C   LIG    1       -2.667   4.963  -0.656  0.00  0.00    +0.060 A 
ATOM     22  C   LIG    1       -2.080   3.912  -1.346  0.00  0.00    +0.030 A 
ATOM     23  C   LIG    1       -1.487   2.871  -0.657  0.00  0.00    -0.070 A 
ATOM     24  C   LIG    1       -1.472   2.866   0.731  0.00  0.00    -0.110 A 
ATOM     25  C   LIG    1       -0.762   1.622   1.232  0.00  0.00    +0.080 C 
ATOM     26  C   LIG    1        0.028   1.095   0.016  0.00  0.00    +0.030 C 
ATOM     27  C   LIG    1       -2.050   3.902   1.435  0.00  0.00    +0.060 A 
ATOM     28  C   LIG    1       -0.791   1.630  -1.177  0.00  0.00    +0.080 C 
ATOM     29  C   LIG    1       -2.650   4.956   0.749  0.00  0.00    -0.110 A 
ENDBRANCH  17  18
ENDBRANCH   3  17
TORSDOF 4
