REMARK  Name = ZINCrD0000071Vyw.0
REMARK                            x       y       z     vdW  Elec       q    Type
REMARK                         _______ _______ _______ _____ _____    ______ ____
ROOT
ATOM      1  C   LIG    1        3.527   0.654  -0.028  0.00  0.00    +0.420 C 
ATOM      2  O   LIG    1        4.156   1.692  -0.028  0.00  0.00    -0.420 OA
ENDROOT
BRANCH   1   7
ATOM      3  C   LIG    1       -0.017   1.380   0.010  0.00  0.00    -0.220 A 
ATOM      4  C   LIG    1        0.002  -0.004   0.002  0.00  0.00    +0.140 A 
ATOM      5  N   LIG    1        1.278  -0.416  -0.012  0.00  0.00    -0.520 N 
ATOM      6  H   LIG    1        1.569  -1.342  -0.020  0.00  0.00    +0.430 HD
ATOM      7  C   LIG    1        2.112   0.683  -0.014  0.00  0.00    -0.100 A 
ATOM      8  C   LIG    1       -1.210  -0.899   0.009  0.00  0.00    +0.150 C 
ATOM      9  C   LIG    1        1.326   1.815  -0.001  0.00  0.00    +0.000 A 
ATOM     10  C   LIG    1        1.807   3.243   0.002  0.00  0.00    +0.140 C 
BRANCH   3  11
ATOM     11  C   LIG    1       -1.214   2.238   0.020  0.00  0.00    +0.550 C 
ATOM     12  O   LIG    1       -1.702   2.587   1.077  0.00  0.00    -0.490 OA
BRANCH  11  13
ATOM     13  O   LIG    1       -1.768   2.636  -1.142  0.00  0.00    -0.350 OA
BRANCH  13  15
ATOM     14  C   LIG    1       -3.428   3.828  -2.465  0.00  0.00    +0.070 C 
ATOM     15  C   LIG    1       -2.946   3.481  -1.056  0.00  0.00    +0.200 C 
ENDBRANCH  13  15
ENDBRANCH  11  13
ENDBRANCH   3  11
ENDBRANCH   1   7
BRANCH   1  16
ATOM     16  C   LIG    1        4.253  -0.667  -0.042  0.00  0.00    +0.150 C 
ATOM     17  C   LIG    1        4.185  -1.301   1.349  0.00  0.00    +0.070 C 
BRANCH  16  18
ATOM     18  O   LIG    1        5.642  -0.452  -0.408  0.00  0.00    -0.330 OA
BRANCH  18  19
ATOM     19  C   LIG    1        6.263  -1.450  -1.056  0.00  0.00    +0.460 C 
ATOM     20  O   LIG    1        5.666  -2.469  -1.309  0.00  0.00    -0.500 OA
BRANCH  19  21
ATOM     21  C   LIG    1        7.704  -1.298  -1.468  0.00  0.00    +0.170 C 
BRANCH  21  22
ATOM     22  C   LIG    1        8.159  -2.550  -2.174  0.00  0.00    -0.090 A 
ATOM     23  C   LIG    1        8.721  -3.586  -1.450  0.00  0.00    +0.060 A 
ATOM     24  C   LIG    1        9.133  -4.736  -2.095  0.00  0.00    -0.010 A 
ATOM     25  C   LIG    1        8.994  -4.847  -3.468  0.00  0.00    +0.100 A 
ATOM     26  C   LIG    1        8.437  -3.807  -4.193  0.00  0.00    -0.010 A 
ATOM     27  F   LIG    1        9.402  -5.968  -4.101  0.00  0.00    -0.140 F 
ATOM     28  C   LIG    1        8.019  -2.660  -3.545  0.00  0.00    +0.060 A 
ENDBRANCH  21  22
ENDBRANCH  19  21
ENDBRANCH  18  19
ENDBRANCH  16  18
ENDBRANCH   1  16
TORSDOF 9
