REMARK  Name = ZINCqH000003385M.0
REMARK                            x       y       z     vdW  Elec       q    Type
REMARK                         _______ _______ _______ _____ _____    ______ ____
ROOT
ATOM      1  C   LIG    1       -0.335   1.313   4.864  0.00  0.00    +0.270 C 
ENDROOT
BRANCH   1   2
ATOM      2  N   LIG    1       -0.853   1.667   3.540  0.00  0.00    -0.730 N 
ATOM      3  H   LIG    1       -1.650   2.214   3.462  0.00  0.00    +0.410 HD
ATOM      4  C   LIG    1       -0.222   1.232   2.431  0.00  0.00    +0.710 C 
ATOM      5  N   LIG    1       -0.698   1.558   1.213  0.00  0.00    -0.740 N 
ATOM      6  H   LIG    1       -1.495   2.106   1.135  0.00  0.00    +0.400 HD
ATOM      7  O   LIG    1        0.777   0.546   2.530  0.00  0.00    -0.580 OA
BRANCH   5   8
ATOM      8  C   LIG    1       -0.013   1.086   0.008  0.00  0.00    +0.340 C 
BRANCH   8   9
ATOM      9  C   LIG    1       -0.742   1.585  -1.213  0.00  0.00    -0.120 A 
ATOM     10  C   LIG    1       -1.750   0.824  -1.775  0.00  0.00    +0.070 A 
ATOM     11  C   LIG    1       -2.423   1.284  -2.891  0.00  0.00    -0.020 A 
ATOM     12  C   LIG    1       -2.079   2.501  -3.454  0.00  0.00    +0.110 A 
ATOM     13  C   LIG    1       -1.065   3.260  -2.893  0.00  0.00    -0.020 A 
ATOM     14  F   LIG    1       -2.732   2.948  -4.549  0.00  0.00    -0.140 F 
ATOM     15  C   LIG    1       -0.398   2.801  -1.774  0.00  0.00    +0.070 A 
ENDBRANCH   8   9
ENDBRANCH   5   8
ENDBRANCH   1   2
BRANCH   1  16
ATOM     16  C   LIG    1       -1.456   1.356   5.870  0.00  0.00    +0.510 C 
ATOM     17  N   LIG    1       -1.213   1.064   7.163  0.00  0.00    -0.720 N 
ATOM     18  H   LIG    1       -0.316   0.826   7.446  0.00  0.00    +0.400 HD
ATOM     19  O   LIG    1       -2.577   1.653   5.516  0.00  0.00    -0.530 OA
BRANCH  17  20
ATOM     20  C   LIG    1       -2.303   1.105   8.141  0.00  0.00    +0.230 C 
ATOM     21  C   LIG    1       -2.477   2.538   8.649  0.00  0.00    +0.030 C 
BRANCH  20  22
ATOM     22  C   LIG    1       -1.969   0.184   9.316  0.00  0.00    +0.020 C 
BRANCH  22  23
ATOM     23  C   LIG    1       -1.917  -1.265   8.829  0.00  0.00    +0.000 C 
BRANCH  23  24
ATOM     24  C   LIG    1       -1.584  -2.187  10.004  0.00  0.00    -0.030 C 
ATOM     25  C   LIG    1       -1.409  -3.619   9.496  0.00  0.00    +0.000 C 
ATOM     26  C   LIG    1       -2.722  -2.143  11.026  0.00  0.00    +0.010 C 
ENDBRANCH  23  24
ENDBRANCH  22  23
ENDBRANCH  20  22
ENDBRANCH  17  20
ENDBRANCH   1  16
BRANCH   1  27
ATOM     27  C   LIG    1        0.753   2.310   5.269  0.00  0.00    +0.010 C 
BRANCH  27  29
ATOM     28  C   LIG    1        3.033   3.175   4.725  0.00  0.00    +0.000 C 
ATOM     29  C   LIG    1        1.945   2.178   4.320  0.00  0.00    +0.030 C 
ENDBRANCH  27  29
ENDBRANCH   1  27
TORSDOF 10
