REMARK  Name = ZINCtV00000L6kED.0
REMARK                            x       y       z     vdW  Elec       q    Type
REMARK                         _______ _______ _______ _____ _____    ______ ____
ROOT
ATOM      1  N   LIG    1        3.313   4.297  -0.230  0.00  0.00    -0.640 N 
ATOM      2  H   LIG    1        2.766   4.616  -0.965  0.00  0.00    +0.420 HD
ENDROOT
BRANCH   1   3
ATOM      3  C   LIG    1        2.797   3.384   0.667  0.00  0.00    +0.470 A 
ATOM      4  N   LIG    1        3.564   2.843   1.601  0.00  0.00    -0.580 NA
ATOM      5  C   LIG    1        3.077   1.959   2.474  0.00  0.00    +0.440 A 
ATOM      6  N   LIG    1        1.813   1.569   2.465  0.00  0.00    -0.530 NA
ATOM      7  C   LIG    1        0.958   2.060   1.558  0.00  0.00    +0.190 A 
ATOM      8  C   LIG    1       -0.388   1.668   1.520  0.00  0.00    +0.030 A 
ATOM      9  C   LIG    1       -1.217   2.197   0.576  0.00  0.00    +0.070 A 
ATOM     10  C   LIG    1       -0.749   3.122  -0.352  0.00  0.00    +0.000 A 
ATOM     11  C   LIG    1        0.555   3.525  -0.344  0.00  0.00    +0.060 A 
ATOM     12  C   LIG    1        1.432   3.002   0.611  0.00  0.00    -0.190 A 
BRANCH   5  13
ATOM     13  C   LIG    1        3.985   1.394   3.489  0.00  0.00    -0.160 A 
ATOM     14  C   LIG    1        3.634   0.499   4.437  0.00  0.00    +0.080 A 
ATOM     15  C   LIG    1        4.659   0.114   5.272  0.00  0.00    +0.000 A 
ATOM     16  C   LIG    1        5.840   0.692   5.026  0.00  0.00    -0.040 A 
ATOM     17  S   LIG    1        5.691   1.789   3.659  0.00  0.00    +0.180 S 
ENDBRANCH   5  13
ENDBRANCH   1   3
BRANCH   1  21
ATOM     18  C   LIG    1        7.219   5.682   0.219  0.00  0.00    +0.070 A 
ATOM     19  C   LIG    1        6.905   4.372   0.551  0.00  0.00    +0.030 A 
ATOM     20  C   LIG    1        5.612   3.912   0.403  0.00  0.00    +0.050 A 
ATOM     21  C   LIG    1        4.624   4.762  -0.079  0.00  0.00    +0.150 A 
ATOM     22  C   LIG    1        4.940   6.072  -0.416  0.00  0.00    +0.000 A 
ATOM     23  C   LIG    1        6.233   6.531  -0.262  0.00  0.00    +0.040 A 
BRANCH  18  24
ATOM     24  O   LIG    1        8.493   6.134   0.365  0.00  0.00    -0.260 OA
BRANCH  24  28
ATOM     25  C   LIG    1        9.615   7.604   4.053  0.00  0.00    -0.030 A 
ATOM     26  C   LIG    1       10.488   7.684   2.983  0.00  0.00    +0.050 A 
ATOM     27  C   LIG    1       10.114   7.193   1.747  0.00  0.00    -0.020 A 
ATOM     28  C   LIG    1        8.863   6.618   1.580  0.00  0.00    +0.120 A 
ATOM     29  C   LIG    1        7.987   6.543   2.654  0.00  0.00    -0.060 A 
ATOM     30  C   LIG    1        8.367   7.032   3.889  0.00  0.00    +0.050 A 
ENDBRANCH  24  28
ENDBRANCH  18  24
ENDBRANCH   1  21
TORSDOF 5
