REMARK  Name = ZINCtV00000L6jji.0
REMARK                            x       y       z     vdW  Elec       q    Type
REMARK                         _______ _______ _______ _____ _____    ______ ____
ROOT
ATOM      1  C   LIG    1        1.229   1.738   0.123  0.00  0.00    +0.160 A 
ATOM      2  N   LIG    1       -0.004   1.283   0.128  0.00  0.00    -0.280 NA
ATOM      3  N   LIG    1       -0.007   0.009  -0.040  0.00  0.00    -0.260 NA
ATOM      4  C   LIG    1        1.224  -0.430  -0.164  0.00  0.00    +0.230 A 
ATOM      5  N   LIG    1        2.056   0.664  -0.063  0.00  0.00    -0.410 N 
ENDROOT
BRANCH   4   6
ATOM      6  C   LIG    1        1.640  -1.833  -0.372  0.00  0.00    -0.020 A 
ATOM      7  C   LIG    1        0.754  -2.875  -0.092  0.00  0.00    +0.080 A 
ATOM      8  C   LIG    1        1.148  -4.183  -0.289  0.00  0.00    +0.030 A 
ATOM      9  C   LIG    1        2.417  -4.463  -0.762  0.00  0.00    +0.070 A 
ATOM     10  C   LIG    1        3.301  -3.434  -1.041  0.00  0.00    -0.090 A 
ATOM     11 BR   LIG    1        5.034  -3.828  -1.688  0.00  0.00    -0.040 Br
ATOM     12  C   LIG    1        2.917  -2.122  -0.855  0.00  0.00    +0.060 A 
ENDBRANCH   4   6
BRANCH   5  13
ATOM     13  C   LIG    1        3.455   0.674  -0.135  0.00  0.00    +0.090 A 
ATOM     14  C   LIG    1        4.209   0.093   0.875  0.00  0.00    +0.030 A 
ATOM     15  C   LIG    1        5.588   0.100   0.799  0.00  0.00    +0.040 A 
ATOM     16  C   LIG    1        6.218   0.696  -0.278  0.00  0.00    +0.050 A 
ATOM     17  C   LIG    1        5.471   1.281  -1.284  0.00  0.00    +0.040 A 
ATOM     18  C   LIG    1        4.092   1.272  -1.215  0.00  0.00    +0.030 A 
ENDBRANCH   5  13
BRANCH   1  19
ATOM     19  S   LIG    1        1.724   3.417   0.319  0.00  0.00    +0.070 S 
BRANCH  19  21
ATOM     20  C   LIG    1       -0.691   4.052  -0.789  0.00  0.00    +0.090 C 
ATOM     21  C   LIG    1        0.105   4.203   0.509  0.00  0.00    -0.010 C 
BRANCH  21  22
ATOM     22  C   LIG    1        0.290   5.666   0.818  0.00  0.00    +0.420 C 
ATOM     23  O   LIG    1        1.302   6.236   0.471  0.00  0.00    -0.430 OA
BRANCH  22  24
ATOM     24  C   LIG    1       -0.759   6.404   1.541  0.00  0.00    -0.170 A 
ATOM     25  C   LIG    1       -1.931   5.752   1.938  0.00  0.00    +0.060 A 
ATOM     26  C   LIG    1       -2.906   6.448   2.619  0.00  0.00    +0.000 A 
ATOM     27  C   LIG    1       -2.733   7.792   2.901  0.00  0.00    +0.050 A 
ATOM     28  C   LIG    1       -1.578   8.446   2.507  0.00  0.00    +0.000 A 
ATOM     29  C   LIG    1       -0.591   7.762   1.830  0.00  0.00    +0.080 A 
ENDBRANCH  22  24
ENDBRANCH  21  22
ENDBRANCH  19  21
ENDBRANCH   1  19
TORSDOF 6
