REMARK  Name = ZINCpe000000YBjz.0
REMARK                            x       y       z     vdW  Elec       q    Type
REMARK                         _______ _______ _______ _____ _____    ______ ____
ROOT
ATOM      1  N   LIG    1       -1.191   1.870   0.018  0.00  0.00    -0.710 N 
ATOM      2  H   LIG    1       -1.204   2.840   0.023  0.00  0.00    +0.400 HD
ATOM      3  C   LIG    1       -0.014   1.212   0.009  0.00  0.00    +0.580 C 
ATOM      4  O   LIG    1        0.002  -0.004   0.002  0.00  0.00    -0.530 OA
ENDROOT
BRANCH   3   5
ATOM      5  C   LIG    1        1.253   1.967   0.001  0.00  0.00    -0.220 A 
ATOM      6  C   LIG    1        2.483   1.292  -0.015  0.00  0.00    +0.160 A 
ATOM      7  C   LIG    1        3.634   2.033  -0.022  0.00  0.00    -0.040 A 
ATOM      8  C   LIG    1        3.552   3.424  -0.014  0.00  0.00    +0.340 A 
ATOM      9  N   LIG    1        2.376   4.037   0.001  0.00  0.00    -0.520 NA
ATOM     10  C   LIG    1        1.246   3.363   0.002  0.00  0.00    +0.330 A 
BRANCH   8  11
ATOM     11  N   LIG    1        4.715   4.176  -0.022  0.00  0.00    -0.480 N 
ATOM     12  C   LIG    1        5.581   3.819   1.111  0.00  0.00    +0.180 C 
ATOM     13  C   LIG    1        6.877   4.630   1.030  0.00  0.00    +0.240 C 
ATOM     14  O   LIG    1        6.561   6.024   1.010  0.00  0.00    -0.380 OA
ATOM     15  C   LIG    1        5.719   6.407  -0.081  0.00  0.00    +0.230 C 
ATOM     16  C   LIG    1        4.411   5.615  -0.012  0.00  0.00    +0.190 C 
ENDBRANCH   8  11
ENDBRANCH   3   5
BRANCH   1  17
ATOM     17  C   LIG    1       -2.449   1.120   0.020  0.00  0.00    +0.300 C 
BRANCH  17  18
ATOM     18  C   LIG    1       -3.537   1.966   0.630  0.00  0.00    -0.100 A 
ATOM     19  C   LIG    1       -3.600   3.318   0.349  0.00  0.00    +0.010 A 
ATOM     20  C   LIG    1       -4.601   4.093   0.906  0.00  0.00    +0.020 A 
ATOM     21  C   LIG    1       -5.532   3.518   1.750  0.00  0.00    +0.020 A 
ATOM     22  C   LIG    1       -5.465   2.167   2.035  0.00  0.00    +0.020 A 
ATOM     23  C   LIG    1       -4.468   1.391   1.475  0.00  0.00    +0.030 A 
ENDBRANCH  17  18
BRANCH  17  27
ATOM     24  N   LIG    1       -3.953   0.069  -1.640  0.00  0.00    -0.850 N 
ATOM     25  H   LIG    1       -4.194  -0.160  -2.551  0.00  0.00    +0.410 HD
ATOM     26  H   LIG    1       -4.524  -0.202  -0.904  0.00  0.00    +0.400 HD
ATOM     27  C   LIG    1       -2.824   0.764  -1.396  0.00  0.00    +0.510 C 
ATOM     28  O   LIG    1       -2.110   1.103  -2.316  0.00  0.00    -0.530 OA
ENDBRANCH  17  27
ENDBRANCH   1  17
TORSDOF 5
