REMARK  Name = ZINCqH0000002tr7.0
REMARK                            x       y       z     vdW  Elec       q    Type
REMARK                         _______ _______ _______ _____ _____    ______ ____
ROOT
ATOM      1  C   LIG    1       -0.927   1.718   3.671  0.00  0.00    +0.320 C 
ENDROOT
BRANCH   1   5
ATOM      2  C   LIG    1        1.137   0.297   7.136  0.00  0.00    +0.110 A 
ATOM      3  C   LIG    1        0.122  -0.459   6.573  0.00  0.00    -0.040 A 
ATOM      4  C   LIG    1       -0.547   0.006   5.455  0.00  0.00    +0.040 A 
ATOM      5  C   LIG    1       -0.198   1.219   4.892  0.00  0.00    -0.110 A 
ATOM      6  C   LIG    1        0.814   1.978   5.450  0.00  0.00    -0.010 A 
ATOM      7  C   LIG    1        1.484   1.521   6.572  0.00  0.00    +0.100 A 
BRANCH   7   8
ATOM      8  O   LIG    1        2.481   2.267   7.122  0.00  0.00    -0.300 OA
ATOM      9  C   LIG    1        2.783   3.512   6.489  0.00  0.00    +0.250 C 
ENDBRANCH   7   8
BRANCH   2  10
ATOM     10  O   LIG    1        1.792  -0.156   8.239  0.00  0.00    -0.300 OA
BRANCH  10  11
ATOM     11  C   LIG    1        1.382  -1.420   8.763  0.00  0.00    +0.180 C 
BRANCH  11  12
ATOM     12  C   LIG    1        2.227  -1.760   9.993  0.00  0.00    +0.020 C 
BRANCH  12  14
ATOM     13  C   LIG    1        2.632  -3.454  11.784  0.00  0.00    +0.030 C 
ATOM     14  C   LIG    1        1.788  -3.114  10.554  0.00  0.00    +0.000 C 
ENDBRANCH  12  14
ENDBRANCH  11  12
ENDBRANCH  10  11
ENDBRANCH   2  10
ENDBRANCH   1   5
BRANCH   1  15
ATOM     15  N   LIG    1       -0.242   1.246   2.466  0.00  0.00    -0.730 N 
ATOM     16  H   LIG    1        0.555   0.699   2.544  0.00  0.00    +0.400 HD
ATOM     17  C   LIG    1       -0.718   1.572   1.248  0.00  0.00    +0.520 C 
ATOM     18  O   LIG    1       -1.714   2.256   1.150  0.00  0.00    -0.530 OA
BRANCH  17  19
ATOM     19  C   LIG    1       -0.013   1.086   0.008  0.00  0.00    +0.120 C 
BRANCH  19  20
ATOM     20  C   LIG    1       -0.742   1.585  -1.213  0.00  0.00    -0.100 A 
ATOM     21  C   LIG    1       -1.681   0.784  -1.833  0.00  0.00    +0.060 A 
ATOM     22  C   LIG    1       -2.350   1.242  -2.953  0.00  0.00    -0.040 A 
ATOM     23  C   LIG    1       -2.081   2.501  -3.456  0.00  0.00    +0.040 A 
ATOM     24  C   LIG    1       -1.142   3.306  -2.840  0.00  0.00    -0.080 A 
ATOM     25  C   LIG    1       -0.474   2.852  -1.712  0.00  0.00    +0.140 A 
BRANCH  25  26
ATOM     26  O   LIG    1        0.446   3.644  -1.100  0.00  0.00    -0.320 OA
ATOM     27  C   LIG    1        0.670   4.935  -1.669  0.00  0.00    +0.250 C 
ENDBRANCH  25  26
ENDBRANCH  19  20
ENDBRANCH  17  19
ENDBRANCH   1  15
TORSDOF 10
