REMARK  Name = ZINCrg000000otaJ.0
REMARK                            x       y       z     vdW  Elec       q    Type
REMARK                         _______ _______ _______ _____ _____    ______ ____
ROOT
ATOM      1  C   LIG    1        2.753   4.873  -0.515  0.00  0.00    +0.340 C 
ENDROOT
BRANCH   1   2
ATOM      2  N   LIG    1        1.323   4.992  -0.814  0.00  0.00    -0.400 N 
ATOM      3  C   LIG    1        0.657   6.125  -1.109  0.00  0.00    +0.510 A 
ATOM      4  N   LIG    1       -0.606   5.854  -1.317  0.00  0.00    -0.490 NA
ATOM      5  C   LIG    1       -0.817   4.544  -1.168  0.00  0.00    +0.320 A 
ATOM      6  N   LIG    1       -1.937   3.734  -1.270  0.00  0.00    -0.510 N 
ATOM      7  C   LIG    1       -3.236   4.321  -1.611  0.00  0.00    +0.340 C 
ATOM      8  C   LIG    1       -1.832   2.408  -1.063  0.00  0.00    +0.710 A 
ATOM      9  O   LIG    1       -2.825   1.712  -1.161  0.00  0.00    -0.530 OA
ATOM     10  N   LIG    1       -0.659   1.834  -0.744  0.00  0.00    -0.550 N 
ATOM     11  C   LIG    1       -0.600   0.387  -0.523  0.00  0.00    +0.350 C 
ATOM     12  C   LIG    1        0.466   2.570  -0.630  0.00  0.00    +0.600 A 
ATOM     13  O   LIG    1        1.524   2.038  -0.345  0.00  0.00    -0.510 OA
ATOM     14  C   LIG    1        0.403   3.963  -0.845  0.00  0.00    -0.140 A 
ENDBRANCH   1   2
BRANCH   1  24
ATOM     15  C   LIG    1        5.569   3.869  -2.921  0.00  0.00    +0.310 C 
ATOM     16  C   LIG    1        6.554   2.801  -2.458  0.00  0.00    -0.110 A 
ATOM     17  C   LIG    1        6.831   2.584  -1.158  0.00  0.00    -0.180 A 
ATOM     18  S   LIG    1        8.014   1.292  -1.008  0.00  0.00    +0.100 S 
ATOM     19  C   LIG    1        8.074   1.097  -2.753  0.00  0.00    -0.040 A 
ATOM     20  C   LIG    1        6.215   3.339   0.001  0.00  0.00    +0.110 C 
ATOM     21  C   LIG    1        5.604   4.649  -0.521  0.00  0.00    +0.290 C 
ATOM     22  C   LIG    1        7.249   1.967  -3.327  0.00  0.00    +0.020 A 
ATOM     23  N   LIG    1        4.837   4.347  -1.739  0.00  0.00    -0.600 N 
ATOM     24  C   LIG    1        3.500   4.510  -1.773  0.00  0.00    +0.510 C 
ATOM     25  O   LIG    1        2.897   4.365  -2.816  0.00  0.00    -0.500 OA
BRANCH  15  27
ATOM     26  C   LIG    1        3.844   2.097  -3.280  0.00  0.00    +0.020 C 
ATOM     27  C   LIG    1        4.588   3.266  -3.929  0.00  0.00    +0.040 C 
ENDBRANCH  15  27
ENDBRANCH   1  24
TORSDOF 3
