REMARK  Name = ZINCrH00000No4Wa.0
REMARK                            x       y       z     vdW  Elec       q    Type
REMARK                         _______ _______ _______ _____ _____    ______ ____
ROOT
ATOM      1  O   LIG    1        5.850   2.195   3.216  0.00  0.00    -0.390 OA
ATOM      2  C   LIG    1        5.554   1.260   2.494  0.00  0.00    +0.550 C 
ATOM      3  N   LIG    1        6.338   0.690   1.578  0.00  0.00    -0.530 NA
ATOM      4  C   LIG    1        5.933  -0.272   0.825  0.00  0.00    +0.210 C 
ATOM      5  S   LIG    1        6.763  -0.918  -0.544  0.00  0.00    +0.170 S 
ATOM      6  C   LIG    1        5.454  -2.033  -1.130  0.00  0.00    +0.040 C 
ATOM      7  C   LIG    1        5.845  -2.629  -2.442  0.00  0.00    +0.430 C 
ATOM      8  C   LIG    1        5.017  -2.534  -3.646  0.00  0.00    -0.130 A 
ATOM      9  C   LIG    1        5.430  -3.126  -4.840  0.00  0.00    +0.090 A 
ATOM     10  C   LIG    1        4.640  -3.023  -5.969  0.00  0.00    +0.040 A 
ATOM     11  C   LIG    1        3.440  -2.334  -5.927  0.00  0.00    +0.050 A 
ATOM     12  C   LIG    1        3.015  -1.738  -4.753  0.00  0.00    +0.080 A 
ATOM     13  C   LIG    1        3.796  -1.831  -3.607  0.00  0.00    -0.110 A 
ATOM     14  C   LIG    1        3.362  -1.203  -2.345  0.00  0.00    +0.430 C 
ATOM     15  O   LIG    1        2.310  -0.591  -2.312  0.00  0.00    -0.410 OA
ATOM     16  O   LIG    1        6.893  -3.234  -2.510  0.00  0.00    -0.410 OA
ATOM     17  C   LIG    1        4.145  -1.298  -1.175  0.00  0.00    -0.190 C 
ATOM     18  C   LIG    1        3.687  -0.688  -0.037  0.00  0.00    +0.080 C 
ATOM     19  C   LIG    1        4.544  -0.785   1.199  0.00  0.00    +0.100 C 
ATOM     20  S   LIG    1        4.001   0.401   2.466  0.00  0.00    -0.160 S 
ENDROOT
BRANCH  18  21
ATOM     21  C   LIG    1        2.405   0.029  -0.021  0.00  0.00    -0.080 A 
ATOM     22  C   LIG    1        1.200  -0.683  -0.013  0.00  0.00    +0.060 A 
ATOM     23  C   LIG    1        0.002  -0.004   0.002  0.00  0.00    +0.000 A 
ATOM     24  C   LIG    1       -0.017   1.381   0.010  0.00  0.00    +0.040 A 
ATOM     25  C   LIG    1        1.165   2.098   0.002  0.00  0.00    -0.010 A 
ATOM     26  C   LIG    1        2.381   1.434  -0.013  0.00  0.00    +0.150 A 
BRANCH  26  27
ATOM     27  O   LIG    1        3.541   2.136  -0.020  0.00  0.00    -0.490 OA
ATOM     28  H   LIG    1        3.869   2.345  -0.905  0.00  0.00    +0.390 HD
ENDBRANCH  26  27
ENDBRANCH  18  21
TORSDOF 2
