REMARK  Name = ZINCrD00000F5Lol.0
REMARK                            x       y       z     vdW  Elec       q    Type
REMARK                         _______ _______ _______ _____ _____    ______ ____
ROOT
ATOM      1  C   LIG    1       -2.723   6.607  -5.681  0.00  0.00    +0.350 C 
ATOM      2  N   LIG    1       -1.608   7.092  -5.207  0.00  0.00    -0.470 NA
ATOM      3  C   LIG    1       -1.124   6.247  -4.252  0.00  0.00    -0.100 C 
ATOM      4  C   LIG    1       -2.092   5.138  -4.182  0.00  0.00    +0.480 C 
ATOM      5  O   LIG    1       -2.043   4.159  -3.460  0.00  0.00    -0.410 OA
ATOM      6  C   LIG    1        0.030   6.396  -3.511  0.00  0.00    +0.260 C 
ATOM      7  O   LIG    1       -3.046   5.441  -5.089  0.00  0.00    -0.290 OA
ENDROOT
BRANCH   6   8
ATOM      8  C   LIG    1        0.320   5.473  -2.413  0.00  0.00    -0.100 A 
ATOM      9  C   LIG    1       -0.705   5.064  -1.551  0.00  0.00    +0.090 A 
ATOM     10  C   LIG    1       -0.431   4.190  -0.509  0.00  0.00    +0.070 A 
ATOM     11  C   LIG    1        0.871   3.733  -0.330  0.00  0.00    -0.110 A 
ATOM     12  C   LIG    1        0.856   2.817   0.880  0.00  0.00    +0.090 C 
ATOM     13  C   LIG    1       -0.501   3.171   1.533  0.00  0.00    +0.170 C 
ATOM     14  C   LIG    1       -1.151   1.927   2.140  0.00  0.00    +0.070 C 
ATOM     15  C   LIG    1        1.888   4.124  -1.174  0.00  0.00    -0.030 A 
ATOM     16  O   LIG    1       -1.272   3.659   0.422  0.00  0.00    -0.300 OA
ATOM     17  C   LIG    1        1.628   4.994  -2.221  0.00  0.00    +0.140 A 
BRANCH  17  18
ATOM     18  O   LIG    1        2.628   5.380  -3.054  0.00  0.00    -0.310 OA
ATOM     19  C   LIG    1        3.929   4.850  -2.795  0.00  0.00    +0.250 C 
ENDBRANCH  17  18
ENDBRANCH   6   8
BRANCH   1  23
ATOM     20  C   LIG    1       -5.044   8.471  -8.709  0.00  0.00    +0.160 A 
ATOM     21  C   LIG    1       -5.462   7.265  -8.159  0.00  0.00    -0.020 A 
ATOM     22  C   LIG    1       -4.712   6.657  -7.177  0.00  0.00    +0.110 A 
ATOM     23  C   LIG    1       -3.529   7.254  -6.733  0.00  0.00    -0.090 A 
ATOM     24  C   LIG    1       -3.115   8.470  -7.285  0.00  0.00    +0.140 A 
ATOM     25  C   LIG    1       -3.869   9.069  -8.271  0.00  0.00    -0.080 A 
BRANCH  20  27
ATOM     26  C   LIG    1       -5.299  10.305 -10.199  0.00  0.00    +0.240 C 
ATOM     27  O   LIG    1       -5.786   9.067  -9.678  0.00  0.00    -0.310 OA
ENDBRANCH  20  27
ENDBRANCH   1  23
TORSDOF 4
