REMARK  Name = ZINCvU0000000Jj4.0
REMARK                            x       y       z     vdW  Elec       q    Type
REMARK                         _______ _______ _______ _____ _____    ______ ____
ROOT
ATOM      1  O   LIG    1       -1.736   2.268  -1.088  0.00  0.00    -0.530 OA
ATOM      2  C   LIG    1       -0.742   1.585  -1.213  0.00  0.00    +0.520 C 
ATOM      3  N   LIG    1       -0.288   1.272  -2.443  0.00  0.00    -0.730 N 
ATOM      4  H   LIG    1        0.507   0.726  -2.543  0.00  0.00    +0.410 HD
ENDROOT
BRANCH   3   5
ATOM      5  C   LIG    1       -0.997   1.758  -3.630  0.00  0.00    +0.400 C 
BRANCH   5   6
ATOM      6  C   LIG    1       -0.721   0.838  -4.791  0.00  0.00    +0.030 A 
ATOM      7  C   LIG    1       -1.628   0.457  -5.700  0.00  0.00    -0.020 A 
ATOM      8  C   LIG    1       -0.923  -0.428  -6.636  0.00  0.00    -0.130 A 
ATOM      9  C   LIG    1       -1.296  -1.137  -7.777  0.00  0.00    +0.060 A 
ATOM     10  C   LIG    1       -0.360  -1.898  -8.442  0.00  0.00    -0.010 A 
ATOM     11  C   LIG    1        0.947  -1.959  -7.981  0.00  0.00    +0.050 A 
ATOM     12  C   LIG    1        1.329  -1.263  -6.854  0.00  0.00    +0.020 A 
ATOM     13  C   LIG    1        0.401  -0.491  -6.168  0.00  0.00    +0.060 A 
ATOM     14  O   LIG    1        0.474   0.286  -5.068  0.00  0.00    -0.190 OA
ENDBRANCH   5   6
BRANCH   5  15
ATOM     15  C   LIG    1       -0.521   3.148  -3.966  0.00  0.00    -0.110 A 
ATOM     16  C   LIG    1        0.819   3.467  -3.848  0.00  0.00    +0.020 A 
ATOM     17  C   LIG    1        1.256   4.741  -4.160  0.00  0.00    +0.000 A 
ATOM     18  C   LIG    1        0.352   5.698  -4.581  0.00  0.00    +0.010 A 
ATOM     19  C   LIG    1       -0.989   5.380  -4.694  0.00  0.00    +0.010 A 
ATOM     20  C   LIG    1       -1.425   4.105  -4.386  0.00  0.00    +0.020 A 
ENDBRANCH   5  15
ENDBRANCH   3   5
BRANCH   2  21
ATOM     21  C   LIG    1       -0.013   1.086   0.008  0.00  0.00    +0.070 C 
BRANCH  21  22
ATOM     22  C   LIG    1       -0.729   1.579   1.267  0.00  0.00    +0.100 C 
BRANCH  22  23
ATOM     23  C   LIG    1        0.000   1.080   2.488  0.00  0.00    -0.080 A 
ATOM     24  C   LIG    1       -0.348  -0.133   3.051  0.00  0.00    +0.020 A 
ATOM     25  C   LIG    1        0.321  -0.597   4.168  0.00  0.00    +0.030 A 
ATOM     26  C   LIG    1        1.336   0.161   4.734  0.00  0.00    +0.050 A 
ATOM     27  O   LIG    1        1.979  -0.304   5.840  0.00  0.00    -0.310 OA
ATOM     28  C   LIG    1        3.237   0.303   6.154  0.00  0.00    +0.220 C 
ATOM     29  C   LIG    1        3.077   1.825   6.045  0.00  0.00    +0.220 C 
ATOM     30  O   LIG    1        2.680   2.139   4.705  0.00  0.00    -0.310 OA
ATOM     31  C   LIG    1        1.684   1.382   4.170  0.00  0.00    +0.050 A 
ATOM     32  C   LIG    1        1.012   1.839   3.046  0.00  0.00    +0.020 A 
ENDBRANCH  22  23
ENDBRANCH  21  22
ENDBRANCH   2  21
TORSDOF 6
