REMARK  Name = ZINCpe00000FU6cx.0
REMARK                            x       y       z     vdW  Elec       q    Type
REMARK                         _______ _______ _______ _____ _____    ______ ____
ROOT
ATOM      1  N   LIG    1        2.273   3.373  -0.002  0.00  0.00    -0.390 N 
ATOM      2  C   LIG    1        1.708   2.135  -0.003  0.00  0.00    +0.260 A 
ATOM      3  N   LIG    1        2.658   1.221  -0.011  0.00  0.00    -0.490 NA
ATOM      4  C   LIG    1        3.856   1.808  -0.024  0.00  0.00    +0.330 A 
ATOM      5  N   LIG    1        5.156   1.328  -0.040  0.00  0.00    -0.510 N 
ATOM      6  C   LIG    1        5.403  -0.116  -0.050  0.00  0.00    +0.350 C 
ATOM      7  C   LIG    1        6.192   2.188  -0.044  0.00  0.00    +0.710 A 
ATOM      8  O   LIG    1        7.326   1.750  -0.058  0.00  0.00    -0.530 OA
ATOM      9  N   LIG    1        6.003   3.519  -0.036  0.00  0.00    -0.550 N 
ATOM     10  C   LIG    1        7.164   4.412  -0.043  0.00  0.00    +0.360 C 
ATOM     11  C   LIG    1        4.760   4.045  -0.021  0.00  0.00    +0.600 A 
ATOM     12  O   LIG    1        4.603   5.253  -0.013  0.00  0.00    -0.510 OA
ATOM     13  C   LIG    1        3.649   3.184  -0.015  0.00  0.00    -0.140 A 
ENDROOT
BRANCH   1  14
ATOM     14  C   LIG    1        1.567   4.656   0.012  0.00  0.00    +0.370 C 
BRANCH  14  20
ATOM     15  C   LIG    1       -1.283   4.697   4.125  0.00  0.00    +0.090 C 
ATOM     16  C   LIG    1       -0.025   5.109   3.405  0.00  0.00    -0.090 A 
ATOM     17  C   LIG    1        0.919   5.884   4.051  0.00  0.00    +0.020 A 
ATOM     18  C   LIG    1        2.073   6.262   3.391  0.00  0.00    +0.010 A 
ATOM     19  C   LIG    1        2.283   5.865   2.083  0.00  0.00    +0.040 A 
ATOM     20  C   LIG    1        1.339   5.089   1.437  0.00  0.00    -0.120 A 
ATOM     21  C   LIG    1        0.183   4.716   2.096  0.00  0.00    +0.040 A 
ENDBRANCH  14  20
ENDBRANCH   1  14
BRANCH   2  22
ATOM     22  S   LIG    1       -0.022   1.806   0.012  0.00  0.00    +0.030 S 
BRANCH  22  23
ATOM     23  C   LIG    1        0.002  -0.004   0.002  0.00  0.00    +0.110 C 
BRANCH  23  24
ATOM     24  C   LIG    1       -1.433  -0.534   0.013  0.00  0.00    +0.210 C 
BRANCH  24  25
ATOM     25  O   LIG    1       -1.414  -1.962   0.005  0.00  0.00    -0.560 OA
ATOM     26  H   LIG    1       -2.292  -2.368   0.011  0.00  0.00    +0.390 HD
ENDBRANCH  24  25
ENDBRANCH  23  24
ENDBRANCH  22  23
ENDBRANCH   2  22
TORSDOF 6
