REMARK  Name = ZINCpe000000WMtx.0
REMARK                            x       y       z     vdW  Elec       q    Type
REMARK                         _______ _______ _______ _____ _____    ______ ____
ROOT
ATOM      1  N   LIG    1       -0.338   1.553   1.760  0.00  0.00    -0.510 NA
ATOM      2  C   LIG    1        0.757   2.108   0.954  0.00  0.00    +0.180 C 
ATOM      3  C   LIG    1        2.099   1.701   1.573  0.00  0.00    +0.300 C 
ATOM      4  N   LIG    1        2.119   0.239   1.726  0.00  0.00    -0.610 N 
ATOM      5  C   LIG    1        0.983  -0.405   2.404  0.00  0.00    +0.270 C 
ATOM      6  C   LIG    1        3.150  -0.492   1.258  0.00  0.00    +0.560 C 
ATOM      7  O   LIG    1        4.121   0.062   0.781  0.00  0.00    -0.520 OA
ATOM      8  C   LIG    1       -0.314   0.084   1.753  0.00  0.00    +0.180 C 
ENDROOT
BRANCH   6   9
ATOM      9  C   LIG    1        3.100  -1.967   1.324  0.00  0.00    -0.170 A 
ATOM     10  C   LIG    1        1.887  -2.636   1.146  0.00  0.00    +0.080 A 
ATOM     11  C   LIG    1        1.847  -4.013   1.209  0.00  0.00    +0.000 A 
ATOM     12  C   LIG    1        3.005  -4.734   1.448  0.00  0.00    +0.080 A 
ATOM     13  C   LIG    1        4.210  -4.080   1.625  0.00  0.00    -0.020 A 
ATOM     14  C   LIG    1        4.267  -2.700   1.558  0.00  0.00    +0.160 A 
ATOM     15  F   LIG    1        5.446  -2.061   1.726  0.00  0.00    -0.120 F 
ENDBRANCH   6   9
BRANCH   1  17
ATOM     16  C   LIG    1       -2.756   1.424   2.131  0.00  0.00    +0.070 C 
ATOM     17  C   LIG    1       -1.639   2.060   1.301  0.00  0.00    +0.130 C 
BRANCH  17  18
ATOM     18  C   LIG    1       -1.680   3.558   1.467  0.00  0.00    +0.520 C 
ATOM     19  N   LIG    1       -2.579   4.287   0.777  0.00  0.00    -0.620 N 
ATOM     20  C   LIG    1       -3.602   3.637  -0.058  0.00  0.00    +0.250 C 
ATOM     21  C   LIG    1       -4.971   4.228   0.316  0.00  0.00    +0.220 C 
ATOM     22  O   LIG    1       -4.903   5.654   0.240  0.00  0.00    -0.380 OA
ATOM     23  C   LIG    1       -3.980   6.245   1.157  0.00  0.00    +0.220 C 
ATOM     24  C   LIG    1       -2.563   5.758   0.831  0.00  0.00    +0.260 C 
ATOM     25  O   LIG    1       -0.905   4.106   2.221  0.00  0.00    -0.510 OA
ENDBRANCH  17  18
ENDBRANCH   1  17
TORSDOF 3
