REMARK  Name = ZINCvU00000007So.0
REMARK                            x       y       z     vdW  Elec       q    Type
REMARK                         _______ _______ _______ _____ _____    ______ ____
ROOT
ATOM      1  C   LIG    1       -0.018   1.503   0.010  0.00  0.00    +0.360 C 
ENDROOT
BRANCH   1   2
ATOM      2  C   LIG    1        1.395   2.024  -0.000  0.00  0.00    -0.130 A 
ATOM      3  C   LIG    1        2.127   2.069   1.172  0.00  0.00    +0.060 A 
ATOM      4  C   LIG    1        3.422   2.544   1.167  0.00  0.00    +0.000 A 
ATOM      5  C   LIG    1        4.000   2.995  -0.017  0.00  0.00    +0.120 A 
ATOM      6  O   LIG    1        5.239   3.512  -0.243  0.00  0.00    -0.300 OA
ATOM      7  C   LIG    1        5.540   3.428  -1.646  0.00  0.00    +0.240 C 
ATOM      8  C   LIG    1        4.138   3.477  -2.300  0.00  0.00    +0.070 C 
ATOM      9  C   LIG    1        3.255   2.944  -1.188  0.00  0.00    -0.170 A 
ATOM     10  C   LIG    1        1.964   2.466  -1.182  0.00  0.00    +0.090 A 
ENDBRANCH   1   2
BRANCH   1  11
ATOM     11  C   LIG    1        0.002  -0.004   0.002  0.00  0.00    -0.070 A 
ATOM     12  C   LIG    1       -0.185  -0.704   1.179  0.00  0.00    +0.050 A 
ATOM     13  C   LIG    1       -0.167  -2.088   1.171  0.00  0.00    -0.030 A 
ATOM     14  C   LIG    1        0.039  -2.770  -0.015  0.00  0.00    +0.050 A 
ATOM     15  C   LIG    1        0.227  -2.070  -1.192  0.00  0.00    +0.060 A 
ATOM     16 CL   LIG    1       -0.402  -2.967   2.649  0.00  0.00    -0.060 Cl
ATOM     17  C   LIG    1        0.203  -0.687  -1.185  0.00  0.00    -0.020 A 
ATOM     18 CL   LIG    1        0.431   0.193  -2.664  0.00  0.00    -0.050 Cl
ENDBRANCH   1  11
BRANCH   1  21
ATOM     19  O   LIG    1       -2.690   1.793   0.237  0.00  0.00    -0.520 OA
ATOM     20  C   LIG    1       -2.047   2.086   1.227  0.00  0.00    +0.570 C 
ATOM     21  N   LIG    1       -0.704   1.975   1.216  0.00  0.00    -0.720 N 
ATOM     22  H   LIG    1       -0.191   2.209   2.005  0.00  0.00    +0.400 HD
BRANCH  20  23
ATOM     23  C   LIG    1       -2.737   2.561   2.440  0.00  0.00    -0.180 A 
ATOM     24  C   LIG    1       -2.028   2.896   3.587  0.00  0.00    +0.280 A 
ATOM     25  N   LIG    1       -2.643   3.329   4.674  0.00  0.00    -0.500 NA
ATOM     26  C   LIG    1       -3.944   3.465   4.769  0.00  0.00    +0.360 A 
ATOM     27  C   LIG    1       -4.783   3.155   3.686  0.00  0.00    -0.120 A 
ATOM     28  C   LIG    1       -6.178   3.291   3.759  0.00  0.00    +0.050 A 
ATOM     29  C   LIG    1       -6.940   2.974   2.674  0.00  0.00    +0.010 A 
ATOM     30  C   LIG    1       -6.358   2.519   1.494  0.00  0.00    +0.040 A 
ATOM     31  C   LIG    1       -5.005   2.375   1.389  0.00  0.00    +0.040 A 
ATOM     32  C   LIG    1       -4.194   2.691   2.481  0.00  0.00    +0.020 A 
ENDBRANCH  20  23
ENDBRANCH   1  21
TORSDOF 4
