REMARK  Name = ZINCqH0000032w28.1
REMARK                            x       y       z     vdW  Elec       q    Type
REMARK                         _______ _______ _______ _____ _____    ______ ____
ROOT
ATOM      1  C   LIG    1        1.248   1.421  -5.284  0.00  0.00    +0.100 A 
ATOM      2  N   LIG    1        1.883   2.086  -6.214  0.00  0.00    -0.280 NA
ATOM      3  N   LIG    1        1.367   3.388  -6.251  0.00  0.00    -0.320 N 
ATOM      4  C   LIG    1        0.397   3.477  -5.313  0.00  0.00    +0.250 A 
ATOM      5  C   LIG    1        0.308   2.275  -4.698  0.00  0.00    -0.220 A 
ENDROOT
BRANCH   3   6
ATOM      6  C   LIG    1        1.779   4.415  -7.112  0.00  0.00    +0.160 A 
ATOM      7  C   LIG    1        1.174   5.663  -7.045  0.00  0.00    -0.010 A 
ATOM      8  C   LIG    1        1.586   6.675  -7.890  0.00  0.00    +0.040 A 
ATOM      9  C   LIG    1        2.592   6.442  -8.810  0.00  0.00    +0.000 A 
ATOM     10  C   LIG    1        3.192   5.199  -8.883  0.00  0.00    +0.040 A 
ATOM     11  C   LIG    1        2.789   4.185  -8.036  0.00  0.00    +0.020 A 
ENDBRANCH   3   6
BRANCH   1  13
ATOM     12  C   LIG    1        1.234  -0.913  -6.122  0.00  0.00    +0.030 C 
ATOM     13  C   LIG    1        1.489  -0.019  -4.907  0.00  0.00    +0.070 C 
ATOM     14  C   LIG    1        2.937  -0.189  -4.444  0.00  0.00    +0.040 C 
ENDBRANCH   1  13
BRANCH   5  15
ATOM     15  C   LIG    1       -0.641   1.918  -3.583  0.00  0.00    +0.250 C 
BRANCH  15  16
ATOM     16  N   LIG    1        0.070   1.973  -2.298  0.00  0.00    -0.660 NA
ATOM     17  H   LIG    1        0.881   1.373  -2.308  0.00  0.00    +0.350 HD
BRANCH  16  18
ATOM     18  C   LIG    1       -0.826   1.630  -1.186  0.00  0.00    +0.200 C 
ATOM     19  C   LIG    1       -1.516   2.872  -0.662  0.00  0.00    -0.070 A 
ATOM     20  C   LIG    1       -2.106   3.924  -1.341  0.00  0.00    +0.030 A 
ATOM     21  C   LIG    1       -2.683   4.966  -0.642  0.00  0.00    +0.000 A 
ATOM     22  C   LIG    1       -2.673   4.958   0.740  0.00  0.00    +0.000 A 
ATOM     23  C   LIG    1       -2.084   3.909   1.420  0.00  0.00    +0.010 A 
ATOM     24  C   LIG    1       -1.505   2.864   0.720  0.00  0.00    -0.090 A 
ATOM     25  C   LIG    1       -0.803   1.617   1.223  0.00  0.00    +0.060 C 
ATOM     26  C   LIG    1       -0.013   1.086   0.008  0.00  0.00    +0.170 C 
BRANCH  26  27
ATOM     27  O   LIG    1        1.317   1.610  -0.002  0.00  0.00    -0.540 OA
ATOM     28  H   LIG    1        1.855   1.330   0.751  0.00  0.00    +0.380 HD
ENDBRANCH  26  27
ENDBRANCH  16  18
ENDBRANCH  15  16
ENDBRANCH   5  15
TORSDOF 6
