REMARK  Name = ZINCpk00000xI6A0.0
REMARK                            x       y       z     vdW  Elec       q    Type
REMARK                         _______ _______ _______ _____ _____    ______ ____
ROOT
ATOM      1  C   LIG    1        0.484   5.456  -1.033  0.00  0.00    +0.220 C 
ENDROOT
BRANCH   1   2
ATOM      2  N   LIG    1        0.504   3.987  -1.041  0.00  0.00    -0.520 NA
ATOM      3  C   LIG    1        1.285   3.465   0.089  0.00  0.00    +0.190 C 
ATOM      4  C   LIG    1        1.348   1.938  -0.000  0.00  0.00    +0.190 C 
ATOM      5  N   LIG    1       -0.017   1.393   0.010  0.00  0.00    -0.500 N 
ATOM      6  C   LIG    1       -0.798   1.916  -1.120  0.00  0.00    +0.200 C 
ATOM      7  C   LIG    1       -0.861   3.442  -1.031  0.00  0.00    +0.190 C 
BRANCH   5   8
ATOM      8  C   LIG    1        0.002  -0.004   0.002  0.00  0.00    +0.100 A 
ATOM      9  C   LIG    1        0.597  -0.686  -1.051  0.00  0.00    -0.010 A 
ATOM     10  C   LIG    1        0.620  -2.067  -1.052  0.00  0.00    +0.020 A 
ATOM     11  C   LIG    1        0.040  -2.772  -0.013  0.00  0.00    +0.020 A 
ATOM     12  C   LIG    1       -0.559  -2.096   1.034  0.00  0.00    +0.030 A 
ATOM     13  C   LIG    1       -0.580  -0.715   1.046  0.00  0.00    -0.010 A 
ATOM     14 CL   LIG    1       -1.331   0.133   2.361  0.00  0.00    -0.050 Cl
ENDBRANCH   5   8
ENDBRANCH   1   2
BRANCH   1  17
ATOM     15  N   LIG    1       -0.228   7.283  -2.542  0.00  0.00    -0.720 N 
ATOM     16  H   LIG    1        0.067   7.913  -1.867  0.00  0.00    +0.410 HD
ATOM     17  C   LIG    1       -0.109   5.958  -2.325  0.00  0.00    +0.520 C 
ATOM     18  O   LIG    1       -0.478   5.169  -3.169  0.00  0.00    -0.520 OA
BRANCH  15  19
ATOM     19  C   LIG    1       -0.804   7.770  -3.798  0.00  0.00    +0.250 C 
ATOM     20  C   LIG    1       -2.329   7.800  -3.681  0.00  0.00    +0.050 C 
BRANCH  19  23
ATOM     21  N   LIG    1       -0.692   9.813  -5.188  0.00  0.00    -0.730 N 
ATOM     22  H   LIG    1       -1.307   9.388  -5.806  0.00  0.00    +0.400 HD
ATOM     23  C   LIG    1       -0.294   9.160  -4.078  0.00  0.00    +0.510 C 
ATOM     24  O   LIG    1        0.475   9.691  -3.305  0.00  0.00    -0.530 OA
BRANCH  21  25
ATOM     25  C   LIG    1       -0.197  11.164  -5.460  0.00  0.00    +0.260 C 
BRANCH  25  27
ATOM     26  C   LIG    1       -0.280  13.085  -7.056  0.00  0.00    +0.030 C 
ATOM     27  C   LIG    1       -0.798  11.674  -6.772  0.00  0.00    +0.000 C 
ENDBRANCH  25  27
ENDBRANCH  21  25
ENDBRANCH  19  23
ENDBRANCH  15  19
ENDBRANCH   1  17
TORSDOF 7
