REMARK  Name = ZINCtV000002KPZZ.0
REMARK                            x       y       z     vdW  Elec       q    Type
REMARK                         _______ _______ _______ _____ _____    ______ ____
ROOT
ATOM      1  C   LIG    1       -5.199  -0.330   0.023  0.00  0.00    -0.020 A 
ATOM      2  C   LIG    1       -4.702  -1.633   0.008  0.00  0.00    +0.090 A 
ATOM      3  C   LIG    1       -5.575  -2.702   0.012  0.00  0.00    +0.040 A 
ATOM      4  C   LIG    1       -6.941  -2.482   0.019  0.00  0.00    -0.070 A 
ATOM      5  C   LIG    1       -7.441  -1.192   0.028  0.00  0.00    +0.040 A 
ATOM      6  C   LIG    1       -6.578  -0.115   0.030  0.00  0.00    +0.060 A 
ENDROOT
BRANCH   1  10
ATOM      7  C   LIG    1       -2.534   2.049   0.023  0.00  0.00    +0.250 A 
ATOM      8  N   LIG    1       -3.607   2.807   0.037  0.00  0.00    -0.380 NA
ATOM      9  O   LIG    1       -4.606   2.119   0.033  0.00  0.00    +0.090 OA
ATOM     10  C   LIG    1       -4.269   0.820   0.025  0.00  0.00    +0.240 A 
ATOM     11  N   LIG    1       -2.952   0.763   0.018  0.00  0.00    -0.440 NA
BRANCH   7  14
ATOM     12 CL   LIG    1        0.002  -0.004   0.002  0.00  0.00    +0.040 Cl
ATOM     13  C   LIG    1       -0.021   1.732   0.012  0.00  0.00    +0.160 A 
ATOM     14  C   LIG    1       -1.135   2.515   0.020  0.00  0.00    +0.050 A 
ATOM     15  N   LIG    1       -0.700   3.846   0.029  0.00  0.00    -0.400 N 
ATOM     16  C   LIG    1       -1.238   5.111   0.040  0.00  0.00    +0.230 A 
ATOM     17  C   LIG    1       -0.419   6.149   0.038  0.00  0.00    +0.030 A 
ATOM     18  S   LIG    1        1.216   5.465   0.019  0.00  0.00    +0.200 S 
ATOM     19  C   LIG    1        0.658   3.785   0.016  0.00  0.00    +0.190 A 
ATOM     20  N   LIG    1        1.048   2.528   0.006  0.00  0.00    -0.440 NA
ENDBRANCH   7  14
ENDBRANCH   1  10
BRANCH   4  21
ATOM     21  C   LIG    1       -7.889  -3.654   0.017  0.00  0.00    +0.250 C 
BRANCH  21  22
ATOM     22  O   LIG    1       -8.194  -4.017  -1.331  0.00  0.00    -0.300 OA
BRANCH  22  23
ATOM     23  C   LIG    1       -9.043  -5.064  -1.511  0.00  0.00    +0.150 A 
ATOM     24  C   LIG    1       -9.565  -5.731  -0.413  0.00  0.00    -0.060 A 
ATOM     25  C   LIG    1      -10.431  -6.792  -0.598  0.00  0.00    +0.090 A 
ATOM     26  C   LIG    1      -10.768  -7.195  -1.878  0.00  0.00    -0.130 A 
ATOM     27  C   LIG    1      -10.244  -6.534  -2.974  0.00  0.00    +0.090 A 
ATOM     28 BR   LIG    1      -11.948  -8.651  -2.128  0.00  0.00    -0.050 Br
ATOM     29  C   LIG    1       -9.382  -5.470  -2.794  0.00  0.00    +0.000 A 
ENDBRANCH  22  23
ENDBRANCH  21  22
ENDBRANCH   4  21
TORSDOF 5
