REMARK  Name = ZINCvU00000006R3.0
REMARK                            x       y       z     vdW  Elec       q    Type
REMARK                         _______ _______ _______ _____ _____    ______ ____
ROOT
ATOM      1  C   LIG    1       -4.041   0.757  -2.958  0.00  0.00    +0.470 C 
ATOM      2  O   LIG    1       -3.017   0.249  -3.349  0.00  0.00    -0.480 OA
ENDROOT
BRANCH   1   3
ATOM      3  C   LIG    1       -5.239   0.835  -3.869  0.00  0.00    +0.280 C 
BRANCH   3   4
ATOM      4  O   LIG    1       -4.917   0.246  -5.131  0.00  0.00    -0.290 OA
BRANCH   4   9
ATOM      5  C   LIG    1       -4.352   4.518  -7.652  0.00  0.00    +0.140 C 
ATOM      6  C   LIG    1       -5.313   3.362  -7.756  0.00  0.00    +0.170 A 
ATOM      7  N   LIG    1       -5.197   2.358  -6.921  0.00  0.00    -0.460 NA
ATOM      8  C   LIG    1       -6.026   1.311  -6.974  0.00  0.00    +0.140 A 
ATOM      9  C   LIG    1       -5.896   0.234  -6.074  0.00  0.00    +0.130 A 
ATOM     10  C   LIG    1       -6.763  -0.832  -6.160  0.00  0.00    -0.030 A 
ATOM     11  C   LIG    1       -7.773  -0.855  -7.118  0.00  0.00    +0.070 A 
ATOM     12  C   LIG    1       -7.924   0.171  -8.002  0.00  0.00    +0.000 A 
ATOM     13 CL   LIG    1       -9.186   0.116  -9.192  0.00  0.00    -0.040 Cl
ATOM     14 CL   LIG    1       -6.599  -2.161  -5.055  0.00  0.00    -0.030 Cl
ATOM     15  C   LIG    1       -7.054   1.273  -7.948  0.00  0.00    -0.100 A 
ATOM     16  C   LIG    1       -7.182   2.349  -8.847  0.00  0.00    +0.100 A 
ATOM     17  C   LIG    1       -6.302   3.388  -8.738  0.00  0.00    -0.010 A 
ENDBRANCH   4   9
ENDBRANCH   3   4
ENDBRANCH   1   3
BRANCH   1  18
ATOM     18  O   LIG    1       -4.112   1.252  -1.712  0.00  0.00    -0.340 OA
BRANCH  18  19
ATOM     19  C   LIG    1       -2.920   1.142  -0.891  0.00  0.00    +0.240 C 
BRANCH  19  20
ATOM     20  C   LIG    1       -3.187   1.746   0.464  0.00  0.00    +0.450 C 
ATOM     21  O   LIG    1       -4.301   2.136   0.747  0.00  0.00    -0.420 OA
BRANCH  20  22
ATOM     22  C   LIG    1       -2.136   1.860   1.408  0.00  0.00    -0.270 A 
ATOM     23  C   LIG    1       -1.330   2.958   1.622  0.00  0.00    +0.150 A 
ATOM     24  N   LIG    1       -0.450   2.689   2.606  0.00  0.00    -0.570 N 
ATOM     25  H   LIG    1        0.216   3.312   2.934  0.00  0.00    +0.420 HD
ATOM     26  C   LIG    1       -0.628   1.406   3.082  0.00  0.00    +0.090 A 
ATOM     27  C   LIG    1        0.010   0.664   4.070  0.00  0.00    +0.000 A 
ATOM     28  C   LIG    1       -0.396  -0.627   4.330  0.00  0.00    +0.030 A 
ATOM     29  C   LIG    1       -1.438  -1.198   3.615  0.00  0.00    +0.000 A 
ATOM     30  C   LIG    1       -2.082  -0.479   2.631  0.00  0.00    +0.040 A 
ATOM     31  C   LIG    1       -1.424   4.263   0.874  0.00  0.00    +0.150 C 
ATOM     32  C   LIG    1       -1.681   0.826   2.358  0.00  0.00    -0.060 A 
ENDBRANCH  20  22
ENDBRANCH  19  20
ENDBRANCH  18  19
ENDBRANCH   1  18
TORSDOF 7
