REMARK  Name = ZINCpk00000jU5xs.0
REMARK                            x       y       z     vdW  Elec       q    Type
REMARK                         _______ _______ _______ _____ _____    ______ ____
ROOT
ATOM      1  C   LIG    1       -1.670   4.220   0.038  0.00  0.00    +0.300 C 
ATOM      2  C   LIG    1       -1.342   5.127   1.250  0.00  0.00    +0.070 C 
ATOM      3  C   LIG    1       -2.685   5.878   1.451  0.00  0.00    +0.170 C 
ATOM      4  C   LIG    1       -3.739   4.807   1.099  0.00  0.00    +0.200 C 
ATOM      5  N   LIG    1       -3.074   3.804   0.246  0.00  0.00    -0.430 N 
ENDROOT
BRANCH   5   6
ATOM      6  C   LIG    1       -3.731   3.665  -0.958  0.00  0.00    +0.460 A 
ATOM      7  N   LIG    1       -3.196   3.870  -2.135  0.00  0.00    -0.520 NA
ATOM      8  C   LIG    1       -4.123   3.643  -3.103  0.00  0.00    +0.070 A 
ATOM      9  C   LIG    1       -4.090   3.712  -4.498  0.00  0.00    +0.060 A 
ATOM     10  C   LIG    1       -5.222   3.416  -5.224  0.00  0.00    +0.010 A 
ATOM     11  C   LIG    1       -6.395   3.049  -4.581  0.00  0.00    +0.020 A 
ATOM     12  C   LIG    1       -6.443   2.977  -3.204  0.00  0.00    +0.010 A 
ATOM     13  C   LIG    1       -5.313   3.272  -2.457  0.00  0.00    +0.050 A 
ATOM     14  N   LIG    1       -5.036   3.288  -1.100  0.00  0.00    -0.490 N 
ATOM     15  C   LIG    1       -5.970   2.964  -0.018  0.00  0.00    +0.330 C 
ENDBRANCH   5   6
BRANCH   1  22
ATOM     16  N   LIG    1        0.610   3.049   0.012  0.00  0.00    -0.550 N 
ATOM     17  C   LIG    1        1.065   1.780   0.002  0.00  0.00    +0.650 A 
ATOM     18  N   LIG    1       -0.011   0.966   0.007  0.00  0.00    -0.550 N 
ATOM     19  H   LIG    1        0.002  -0.004   0.002  0.00  0.00    +0.460 HD
ATOM     20  N   LIG    1       -1.151   1.781   0.017  0.00  0.00    -0.250 NA
ATOM     21  O   LIG    1        2.232   1.433  -0.011  0.00  0.00    -0.550 OA
ATOM     22  C   LIG    1       -0.763   3.016   0.024  0.00  0.00    +0.290 A 
BRANCH  16  24
ATOM     23  C   LIG    1        1.713   4.685  -1.433  0.00  0.00    +0.030 C 
ATOM     24  C   LIG    1        1.438   4.258   0.010  0.00  0.00    +0.320 C 
ENDBRANCH  16  24
ENDBRANCH   1  22
BRANCH   3  25
ATOM     25  O   LIG    1       -2.829   6.301   2.809  0.00  0.00    -0.370 OA
ATOM     26  C   LIG    1       -3.596   7.496   2.967  0.00  0.00    +0.210 C 
ENDBRANCH   3  25
TORSDOF 4
