REMARK  Name = ZINCqH0000006S2t.0
REMARK                            x       y       z     vdW  Elec       q    Type
REMARK                         _______ _______ _______ _____ _____    ______ ____
ROOT
ATOM      1  N   LIG    1        7.083  -1.576   3.367  0.00  0.00    -0.660 N 
ATOM      2  H   LIG    1        7.603  -0.758   3.338  0.00  0.00    +0.420 HD
ATOM      3  C   LIG    1        5.827  -1.593   2.877  0.00  0.00    +0.560 C 
ATOM      4  O   LIG    1        5.138  -2.586   3.006  0.00  0.00    -0.510 OA
ENDROOT
BRANCH   1   7
ATOM      5  C   LIG    1        7.852  -5.130   3.944  0.00  0.00    +0.130 A 
ATOM      6  C   LIG    1        7.304  -3.981   3.397  0.00  0.00    -0.010 A 
ATOM      7  C   LIG    1        7.635  -2.739   3.919  0.00  0.00    +0.170 A 
ATOM      8  C   LIG    1        8.523  -2.650   4.988  0.00  0.00    +0.080 A 
ATOM      9  C   LIG    1        9.063  -3.802   5.536  0.00  0.00    +0.010 A 
ATOM     10  C   LIG    1        8.731  -5.039   5.014  0.00  0.00    -0.050 A 
ATOM     11 CL   LIG    1        9.416  -6.481   5.698  0.00  0.00    -0.050 Cl
BRANCH   5  13
ATOM     12  C   LIG    1        6.616  -6.367   2.332  0.00  0.00    +0.240 C 
ATOM     13  O   LIG    1        7.527  -6.348   3.433  0.00  0.00    -0.300 OA
ENDBRANCH   5  13
BRANCH   8  14
ATOM     14  O   LIG    1        8.854  -1.433   5.499  0.00  0.00    -0.310 OA
ATOM     15  C   LIG    1        9.770  -1.418   6.596  0.00  0.00    +0.250 C 
ENDBRANCH   8  14
ENDBRANCH   1   7
BRANCH   3  16
ATOM     16  C   LIG    1        5.288  -0.405   2.183  0.00  0.00    -0.110 A 
ATOM     17  C   LIG    1        6.078   0.737   2.033  0.00  0.00    +0.020 A 
ATOM     18  C   LIG    1        5.573   1.845   1.384  0.00  0.00    +0.040 A 
ATOM     19  C   LIG    1        4.287   1.828   0.876  0.00  0.00    +0.000 A 
ATOM     20  C   LIG    1        3.491   0.698   1.025  0.00  0.00    +0.160 A 
ATOM     21  C   LIG    1        3.989  -0.420   1.675  0.00  0.00    +0.070 A 
BRANCH  20  22
ATOM     22  N   LIG    1        2.189   0.688   0.512  0.00  0.00    -0.560 N 
ATOM     23  C   LIG    1        1.524   1.853  -0.085  0.00  0.00    +0.260 C 
ATOM     24  C   LIG    1        0.019   1.507  -0.095  0.00  0.00    +0.060 C 
ATOM     25  C   LIG    1        0.050  -0.039  -0.113  0.00  0.00    +0.070 C 
ATOM     26  C   LIG    1        1.386  -0.390   0.505  0.00  0.00    +0.510 C 
ATOM     27  O   LIG    1        1.688  -1.485   0.930  0.00  0.00    -0.500 OA
ENDBRANCH  20  22
ENDBRANCH   3  16
TORSDOF 5
