REMARK  Name = ZINCqH00000380wF.0
REMARK                            x       y       z     vdW  Elec       q    Type
REMARK                         _______ _______ _______ _____ _____    ______ ____
ROOT
ATOM      1  C   LIG    1       -0.035   1.017  -0.127  0.00  0.00    +0.110 C 
ATOM      2  C   LIG    1       -0.641   1.453   1.183  0.00  0.00    -0.090 A 
ATOM      3  C   LIG    1        0.042   1.234   2.364  0.00  0.00    +0.030 A 
ATOM      4  C   LIG    1       -0.506   1.632   3.567  0.00  0.00    +0.040 A 
ATOM      5  C   LIG    1       -1.754   2.256   3.593  0.00  0.00    -0.110 A 
ATOM      6  C   LIG    1       -2.443   2.477   2.401  0.00  0.00    +0.080 A 
ATOM      7  C   LIG    1       -1.882   2.080   1.197  0.00  0.00    +0.140 A 
ENDROOT
BRANCH   5   8
ATOM      8  C   LIG    1       -2.344   2.682   4.880  0.00  0.00    +0.560 C 
ATOM      9  N   LIG    1       -1.568   3.262   5.818  0.00  0.00    -0.600 N 
ATOM     10  C   LIG    1       -0.119   3.389   5.616  0.00  0.00    +0.260 C 
ATOM     11  C   LIG    1        0.274   4.863   5.806  0.00  0.00    -0.030 C 
ATOM     12  C   LIG    1       -0.214   5.342   7.175  0.00  0.00    +0.030 C 
ATOM     13  C   LIG    1       -1.740   5.238   7.240  0.00  0.00    -0.030 C 
ATOM     14  C   LIG    1       -2.358   6.082   6.124  0.00  0.00    +0.020 C 
ATOM     15  C   LIG    1        1.796   4.998   5.730  0.00  0.00    +0.030 C 
ATOM     16  C   LIG    1       -2.156   3.774   7.063  0.00  0.00    +0.280 C 
ATOM     17  O   LIG    1       -3.528   2.509   5.093  0.00  0.00    -0.530 OA
ENDBRANCH   5   8
BRANCH   7  18
ATOM     18  N   LIG    1       -2.566   2.304  -0.002  0.00  0.00    -0.660 N 
ATOM     19  H   LIG    1       -2.485   1.671  -0.733  0.00  0.00    +0.410 HD
ATOM     20  C   LIG    1       -3.339   3.399  -0.142  0.00  0.00    +0.560 C 
ATOM     21  O   LIG    1       -3.368   4.239   0.736  0.00  0.00    -0.500 OA
BRANCH  20  22
ATOM     22  C   LIG    1       -4.154   3.579  -1.366  0.00  0.00    -0.090 A 
ATOM     23  C   LIG    1       -4.130   2.628  -2.391  0.00  0.00    +0.000 A 
ATOM     24  C   LIG    1       -4.910   2.833  -3.513  0.00  0.00    +0.270 A 
ATOM     25  N   LIG    1       -5.658   3.912  -3.629  0.00  0.00    -0.460 NA
ATOM     26  C   LIG    1       -5.705   4.835  -2.689  0.00  0.00    +0.270 A 
ATOM     27  C   LIG    1       -4.962   4.707  -1.532  0.00  0.00    +0.040 A 
ENDBRANCH  20  22
ENDBRANCH   7  18
TORSDOF 3
