REMARK  Name = ZINCrD0000071Lm4.0
REMARK                            x       y       z     vdW  Elec       q    Type
REMARK                         _______ _______ _______ _____ _____    ______ ____
ROOT
ATOM      1  C   LIG    1        1.194   1.788   0.000  0.00  0.00    -0.130 A 
ATOM      2  C   LIG    1       -0.013   1.076   0.008  0.00  0.00    +0.100 A 
ATOM      3  C   LIG    1       -1.206   1.737   0.017  0.00  0.00    +0.010 A 
ATOM      4  C   LIG    1       -1.234   3.127   0.031  0.00  0.00    +0.080 A 
ATOM      5  C   LIG    1       -0.032   3.859   0.023  0.00  0.00    +0.040 A 
ATOM      6  N   LIG    1       -0.369   5.175   0.034  0.00  0.00    -0.480 NA
ATOM      7  C   LIG    1       -1.664   5.295   0.048  0.00  0.00    +0.300 A 
ATOM      8  C   LIG    1       -2.410   6.604   0.063  0.00  0.00    +0.190 C 
ATOM      9  N   LIG    1       -2.248   4.063   0.046  0.00  0.00    -0.440 N 
ATOM     10  C   LIG    1        1.185   3.181   0.008  0.00  0.00    +0.170 A 
ENDROOT
BRANCH   9  11
ATOM     11  C   LIG    1       -3.623   3.796   0.059  0.00  0.00    +0.110 A 
ATOM     12  C   LIG    1       -4.198   3.154   1.148  0.00  0.00    +0.020 A 
ATOM     13  C   LIG    1       -5.555   2.897   1.160  0.00  0.00    +0.040 A 
ATOM     14  C   LIG    1       -6.340   3.269   0.084  0.00  0.00    +0.020 A 
ATOM     15  C   LIG    1       -5.770   3.905  -1.005  0.00  0.00    +0.040 A 
ATOM     16  C   LIG    1       -4.414   4.169  -1.020  0.00  0.00    +0.020 A 
ENDBRANCH   9  11
BRANCH   1  17
ATOM     17  C   LIG    1        2.478   1.061  -0.016  0.00  0.00    +0.520 C 
ATOM     18  O   LIG    1        3.525   1.677  -0.023  0.00  0.00    -0.500 OA
BRANCH  17  19
ATOM     19  O   LIG    1        2.489  -0.286  -0.024  0.00  0.00    -0.330 OA
BRANCH  19  20
ATOM     20  C   LIG    1        3.788  -0.935  -0.041  0.00  0.00    +0.250 C 
BRANCH  20  22
ATOM     21  N   LIG    1        4.678  -3.243  -0.062  0.00  0.00    -0.610 N 
ATOM     22  C   LIG    1        3.602  -2.430  -0.047  0.00  0.00    +0.520 C 
ATOM     23  O   LIG    1        2.486  -2.903  -0.039  0.00  0.00    -0.510 OA
BRANCH  21  25
ATOM     24  C   LIG    1        4.421  -5.194  -1.514  0.00  0.00    +0.020 C 
ATOM     25  C   LIG    1        4.498  -4.697  -0.069  0.00  0.00    +0.280 C 
ENDBRANCH  21  25
BRANCH  21  26
ATOM     26  C   LIG    1        6.027  -2.672  -0.072  0.00  0.00    +0.270 C 
ATOM     27  C   LIG    1        6.511  -2.481   1.367  0.00  0.00    +0.010 C 
ENDBRANCH  21  26
ENDBRANCH  20  22
ENDBRANCH  19  20
ENDBRANCH  17  19
ENDBRANCH   1  17
TORSDOF 7
