REMARK  Name = ZINCqH0000037Ue9.0
REMARK                            x       y       z     vdW  Elec       q    Type
REMARK                         _______ _______ _______ _____ _____    ______ ____
ROOT
ATOM      1  C   LIG    1       -2.055   4.128   0.045  0.00  0.00    +0.610 C 
ATOM      2  N   LIG    1       -1.696   5.423  -0.060  0.00  0.00    -0.610 N 
ATOM      3  C   LIG    1       -0.283   5.819  -0.191  0.00  0.00    +0.290 C 
ATOM      4  C   LIG    1        0.086   6.688   1.006  0.00  0.00    +0.270 C 
ATOM      5  N   LIG    1       -0.931   7.703   1.243  0.00  0.00    -0.710 N 
ATOM      6  H   LIG    1       -0.673   8.493   1.743  0.00  0.00    +0.410 HD
ATOM      7  C   LIG    1       -2.194   7.622   0.820  0.00  0.00    +0.530 C 
ATOM      8  O   LIG    1       -2.970   8.494   1.147  0.00  0.00    -0.530 OA
ATOM      9  C   LIG    1       -2.699   6.499  -0.044  0.00  0.00    +0.300 C 
ATOM     10  O   LIG    1       -1.201   3.261   0.085  0.00  0.00    -0.510 OA
ENDROOT
BRANCH   9  11
ATOM     11  C   LIG    1       -2.924   7.000  -1.447  0.00  0.00    -0.080 A 
ATOM     12  C   LIG    1       -1.859   7.474  -2.191  0.00  0.00    +0.040 A 
ATOM     13  C   LIG    1       -2.064   7.929  -3.480  0.00  0.00    +0.060 A 
ATOM     14  C   LIG    1       -3.337   7.920  -4.022  0.00  0.00    -0.080 A 
ATOM     15  C   LIG    1       -4.403   7.450  -3.275  0.00  0.00    +0.060 A 
ATOM     16 BR   LIG    1       -3.620   8.549  -5.782  0.00  0.00    -0.040 Br
ATOM     17  C   LIG    1       -4.196   6.991  -1.988  0.00  0.00    +0.050 A 
ENDBRANCH   9  11
BRANCH   1  22
ATOM     18  C   LIG    1       -7.369   3.600  -0.368  0.00  0.00    +0.160 C 
ATOM     19  C   LIG    1       -5.891   3.531  -0.081  0.00  0.00    -0.170 A 
ATOM     20  C   LIG    1       -5.319   2.629   0.721  0.00  0.00    -0.060 A 
ATOM     21  C   LIG    1       -3.950   2.745   0.850  0.00  0.00    +0.190 A 
ATOM     22  C   LIG    1       -3.426   3.776   0.110  0.00  0.00    -0.330 A 
ATOM     23  S   LIG    1       -4.731   4.593  -0.740  0.00  0.00    +0.250 S 
BRANCH  21  24
ATOM     24  O   LIG    1       -3.198   1.923   1.626  0.00  0.00    -0.290 OA
BRANCH  24  25
ATOM     25  C   LIG    1       -3.887   0.891   2.336  0.00  0.00    +0.600 C 
ATOM     26  F   LIG    1       -4.540   0.055   1.424  0.00  0.00    -0.190 F 
ATOM     27  F   LIG    1       -4.827   1.466   3.197  0.00  0.00    -0.200 F 
ENDBRANCH  24  25
ENDBRANCH  21  24
ENDBRANCH   1  22
TORSDOF 4
