REMARK  Name = ZINCvU0000000Ifl.0
REMARK                            x       y       z     vdW  Elec       q    Type
REMARK                         _______ _______ _______ _____ _____    ______ ____
ROOT
ATOM      1  N   LIG    1        4.347   5.429  -4.626  0.00  0.00    -0.690 N 
ATOM      2  H   LIG    1        5.026   5.205  -5.282  0.00  0.00    +0.410 HD
ATOM      3  C   LIG    1        3.571   6.516  -4.804  0.00  0.00    +0.720 C 
ATOM      4  N   LIG    1        3.797   7.343  -5.844  0.00  0.00    -0.630 N 
ATOM      5  C   LIG    1        4.852   7.180  -6.855  0.00  0.00    +0.230 C 
ATOM      6  C   LIG    1        4.744   8.374  -7.827  0.00  0.00    +0.040 C 
ATOM      7  C   LIG    1        3.997   9.441  -6.984  0.00  0.00    -0.010 C 
ATOM      8  C   LIG    1        3.025   8.559  -6.159  0.00  0.00    +0.280 C 
ATOM      9  O   LIG    1        2.666   6.750  -4.027  0.00  0.00    -0.570 OA
ENDROOT
BRANCH   1  13
ATOM     10  C   LIG    1        3.834   3.028  -1.260  0.00  0.00    -0.100 A 
ATOM     11  C   LIG    1        5.102   3.243  -1.767  0.00  0.00    +0.050 A 
ATOM     12  C   LIG    1        5.275   4.035  -2.885  0.00  0.00    -0.010 A 
ATOM     13  C   LIG    1        4.175   4.623  -3.495  0.00  0.00    +0.170 A 
ATOM     14  C   LIG    1        2.903   4.409  -2.981  0.00  0.00    +0.030 A 
ATOM     15  C   LIG    1        2.736   3.612  -1.865  0.00  0.00    +0.030 A 
BRANCH  10  16
ATOM     16  C   LIG    1        3.648   2.160  -0.043  0.00  0.00    +0.230 C 
BRANCH  16  17
ATOM     17  C   LIG    1        2.908   0.905  -0.428  0.00  0.00    -0.080 A 
ATOM     18  C   LIG    1        1.583   0.976  -0.817  0.00  0.00    +0.010 A 
ATOM     19  C   LIG    1        0.904  -0.175  -1.171  0.00  0.00    +0.000 A 
ATOM     20  C   LIG    1        1.549  -1.397  -1.136  0.00  0.00    +0.010 A 
ATOM     21  C   LIG    1        2.874  -1.468  -0.746  0.00  0.00    +0.010 A 
ATOM     22  C   LIG    1        3.553  -0.317  -0.393  0.00  0.00    +0.030 A 
ENDBRANCH  16  17
BRANCH  16  24
ATOM     23  N   LIG    1        2.275   3.462   1.752  0.00  0.00    -0.420 NA
ATOM     24  C   LIG    1        2.873   2.895   0.971  0.00  0.00    +0.210 C 
ENDBRANCH  16  24
ENDBRANCH  10  16
ENDBRANCH   1  13
BRANCH   7  25
ATOM     25  C   LIG    1        3.226  10.409  -7.883  0.00  0.00    +0.090 C 
BRANCH  25  26
ATOM     26  C   LIG    1        2.617  11.500  -7.041  0.00  0.00    -0.070 A 
ATOM     27  C   LIG    1        3.327  12.660  -6.794  0.00  0.00    -0.010 A 
ATOM     28  C   LIG    1        2.771  13.664  -6.022  0.00  0.00    +0.030 A 
ATOM     29  C   LIG    1        1.502  13.509  -5.497  0.00  0.00    -0.020 A 
ATOM     30  C   LIG    1        0.787  12.346  -5.743  0.00  0.00    +0.110 A 
ATOM     31  C   LIG    1        1.346  11.343  -6.522  0.00  0.00    -0.010 A 
BRANCH  30  32
ATOM     32  O   LIG    1       -0.461  12.192  -5.228  0.00  0.00    -0.500 OA
ATOM     33  H   LIG    1       -1.167  12.513  -5.805  0.00  0.00    +0.390 HD
ENDBRANCH  30  32
ENDBRANCH  25  26
ENDBRANCH   7  25
TORSDOF 7
