REMARK  Name = ZINCrH000004tKCl.0
REMARK                            x       y       z     vdW  Elec       q    Type
REMARK                         _______ _______ _______ _____ _____    ______ ____
ROOT
ATOM      1  C   LIG    1        2.536   5.690  -0.102  0.00  0.00    +0.220 C 
ATOM      2  C   LIG    1        1.600   5.851  -1.304  0.00  0.00    +0.020 C 
ATOM      3  C   LIG    1        2.304   5.326  -2.561  0.00  0.00    +0.210 C 
ATOM      4  O   LIG    1        3.532   6.033  -2.749  0.00  0.00    -0.380 OA
ATOM      5  C   LIG    1        4.464   5.881  -1.676  0.00  0.00    +0.210 C 
ATOM      6  C   LIG    1        3.848   6.428  -0.386  0.00  0.00    +0.020 C 
ENDROOT
BRANCH   1   7
ATOM      7  C   LIG    1        1.885   6.274   1.125  0.00  0.00    -0.040 A 
ATOM      8  C   LIG    1        2.061   5.667   2.355  0.00  0.00    +0.000 A 
ATOM      9  C   LIG    1        1.465   6.200   3.483  0.00  0.00    +0.060 A 
ATOM     10  C   LIG    1        0.692   7.340   3.384  0.00  0.00    -0.060 A 
ATOM     11  C   LIG    1        0.513   7.951   2.151  0.00  0.00    +0.110 A 
ATOM     12  C   LIG    1        1.117   7.417   1.022  0.00  0.00    +0.030 A 
BRANCH  11  13
ATOM     13  O   LIG    1       -0.247   9.073   2.051  0.00  0.00    -0.310 OA
BRANCH  13  14
ATOM     14  C   LIG    1       -0.832   9.570   3.256  0.00  0.00    +0.600 C 
ATOM     15  F   LIG    1       -1.673   8.594   3.803  0.00  0.00    -0.160 F 
ATOM     16  F   LIG    1       -1.576  10.721   2.973  0.00  0.00    -0.130 F 
ATOM     17  F   LIG    1        0.179   9.881   4.172  0.00  0.00    -0.160 F 
ENDBRANCH  13  14
ENDBRANCH  11  13
ENDBRANCH   1   7
BRANCH   1  20
ATOM     18  O   LIG    1        0.662   3.832   0.456  0.00  0.00    -0.520 OA
ATOM     19  C   LIG    1        1.795   3.412   0.343  0.00  0.00    +0.520 C 
ATOM     20  N   LIG    1        2.811   4.268   0.118  0.00  0.00    -0.730 N 
ATOM     21  H   LIG    1        3.725   3.943   0.101  0.00  0.00    +0.400 HD
BRANCH  19  22
ATOM     22  C   LIG    1        2.065   1.934   0.454  0.00  0.00    +0.060 C 
BRANCH  22  23
ATOM     23  C   LIG    1        0.751   1.193   0.709  0.00  0.00    +0.170 C 
BRANCH  23  24
ATOM     24  C   LIG    1        1.022  -0.286   0.820  0.00  0.00    +0.050 A 
ATOM     25  N   LIG    1        1.303  -0.905   1.917  0.00  0.00    -0.470 NA
ATOM     26  C   LIG    1        1.508  -2.204   1.838  0.00  0.00    +0.220 A 
ATOM     27  C   LIG    1        1.404  -2.707   0.604  0.00  0.00    -0.080 A 
ATOM     28  S   LIG    1        1.008  -1.384  -0.490  0.00  0.00    +0.120 S 
ENDBRANCH  23  24
ENDBRANCH  22  23
ENDBRANCH  19  22
ENDBRANCH   1  20
TORSDOF 7
