REMARK  Name = ZINC650000002rw6.1
REMARK                            x       y       z     vdW  Elec       q    Type
REMARK                         _______ _______ _______ _____ _____    ______ ____
ROOT
ATOM      1  C   LIG    1       -0.630   1.667   3.762  0.00  0.00    +0.090 C 
ATOM      2  C   LIG    1        0.011   1.072   2.506  0.00  0.00    +0.170 C 
ENDROOT
BRANCH   2   3
ATOM      3  N   LIG    1       -0.072  -0.393   2.561  0.00  0.00    -0.640 N 
ATOM      4  H   LIG    1       -1.040  -0.674   2.609  0.00  0.00    +0.430 HD
ATOM      5  H   LIG    1        0.416  -0.728   3.379  0.00  0.00    +0.440 HD
ATOM      6  H   LIG    1        0.351  -0.785   1.733  0.00  0.00    +0.430 HD
ENDBRANCH   2   3
BRANCH   2   7
ATOM      7  C   LIG    1       -0.729   1.579   1.267  0.00  0.00    +0.070 C 
BRANCH   7   8
ATOM      8  C   LIG    1       -0.013   1.086   0.008  0.00  0.00    +0.160 C 
BRANCH   8   9
ATOM      9  O   LIG    1       -0.704   1.559  -1.150  0.00  0.00    -0.560 OA
ATOM     10  H   LIG    1       -0.304   1.284  -1.986  0.00  0.00    +0.400 HD
ENDBRANCH   8   9
ENDBRANCH   7   8
ENDBRANCH   2   7
TORSDOF 4
