REMARK  Name = ZINCqH0000007fzH.0
REMARK                            x       y       z     vdW  Elec       q    Type
REMARK                         _______ _______ _______ _____ _____    ______ ____
ROOT
ATOM      1  N   LIG    1       -2.019   7.925  -1.381  0.00  0.00    -1.110 NA
ATOM      2  H   LIG    1       -2.492   8.148  -0.564  0.00  0.00    +0.420 HD
ENDROOT
BRANCH   1   3
ATOM      3  S   LIG    1       -2.289   8.802  -2.759  0.00  0.00    +2.710 S 
ATOM      4  O   LIG    1       -1.009   9.140  -3.277  0.00  0.00    -0.940 OA
ATOM      5  O   LIG    1       -3.275   9.771  -2.432  0.00  0.00    -0.960 OA
BRANCH   3  12
ATOM      6  C   LIG    1       -2.312   6.633  -4.425  0.00  0.00    +0.230 A 
ATOM      7  C   LIG    1       -2.897   5.779  -5.348  0.00  0.00    -0.060 A 
ATOM      8  C   LIG    1       -4.191   6.007  -5.776  0.00  0.00    +0.140 A 
ATOM      9  C   LIG    1       -4.903   7.086  -5.284  0.00  0.00    -0.090 A 
ATOM     10  C   LIG    1       -4.324   7.936  -4.358  0.00  0.00    +0.180 A 
ATOM     11 CL   LIG    1       -6.529   7.370  -5.823  0.00  0.00    -0.060 Cl
ATOM     12  C   LIG    1       -3.029   7.715  -3.933  0.00  0.00    -0.700 A 
BRANCH   6  14
ATOM     13  C   LIG    1       -0.362   5.279  -4.552  0.00  0.00    +0.260 C 
ATOM     14  O   LIG    1       -1.040   6.411  -4.003  0.00  0.00    -0.300 OA
ENDBRANCH   6  14
ENDBRANCH   3  12
ENDBRANCH   1   3
BRANCH   1  15
ATOM     15  C   LIG    1       -1.066   6.812  -1.395  0.00  0.00    +0.290 C 
BRANCH  15  16
ATOM     16  C   LIG    1       -0.721   6.418   0.043  0.00  0.00    +0.110 C 
BRANCH  16  17
ATOM     17  C   LIG    1        0.260   5.274   0.028  0.00  0.00    -0.170 A 
ATOM     18  C   LIG    1        1.599   5.370   0.016  0.00  0.00    +0.100 A 
ATOM     19  N   LIG    1        2.156   4.120   0.004  0.00  0.00    -0.590 N 
ATOM     20  H   LIG    1        3.108   3.935  -0.006  0.00  0.00    +0.420 HD
ATOM     21  C   LIG    1        1.163   3.164   0.008  0.00  0.00    +0.090 A 
ATOM     22  C   LIG    1        1.175   1.774   0.000  0.00  0.00    +0.030 A 
ATOM     23  C   LIG    1       -0.013   1.076   0.008  0.00  0.00    +0.010 A 
ATOM     24  C   LIG    1       -1.229   1.748   0.017  0.00  0.00    +0.070 A 
ATOM     25  C   LIG    1       -1.264   3.125   0.031  0.00  0.00    +0.020 A 
ATOM     26  F   LIG    1       -2.384   1.046   0.019  0.00  0.00    -0.140 F 
ATOM     27  C   LIG    1        2.373   6.662   0.015  0.00  0.00    +0.140 C 
ATOM     28  C   LIG    1       -0.068   3.846   0.023  0.00  0.00    -0.070 A 
ENDBRANCH  16  17
ENDBRANCH  15  16
ENDBRANCH   1  15
TORSDOF 6
