REMARK  Name = ZINCpk000005EgQg.0
REMARK                            x       y       z     vdW  Elec       q    Type
REMARK                         _______ _______ _______ _____ _____    ______ ____
ROOT
ATOM      1  C   LIG    1        5.894  -1.931  -3.831  0.00  0.00    -0.020 C 
ATOM      2  C   LIG    1        6.366  -0.762  -2.963  0.00  0.00    +0.040 C 
ATOM      3  C   LIG    1        5.149  -0.065  -2.346  0.00  0.00    +0.290 C 
ATOM      4  N   LIG    1        4.346  -1.063  -1.628  0.00  0.00    -1.000 NA
ATOM      5  C   LIG    1        3.920  -2.275  -2.343  0.00  0.00    +0.280 C 
ATOM      6  C   LIG    1        5.146  -2.944  -2.961  0.00  0.00    +0.040 C 
ENDROOT
BRANCH   4   7
ATOM      7  S   LIG    1        3.934  -0.832  -0.041  0.00  0.00    +2.690 S 
ATOM      8  O   LIG    1        3.679  -2.121   0.500  0.00  0.00    -0.950 OA
ATOM      9  O   LIG    1        4.899   0.061   0.498  0.00  0.00    -0.950 OA
BRANCH   7  10
ATOM     10  C   LIG    1        2.396   0.029  -0.022  0.00  0.00    -0.680 A 
ATOM     11  C   LIG    1        1.208  -0.679  -0.013  0.00  0.00    +0.120 A 
ATOM     12  C   LIG    1        0.002  -0.004   0.002  0.00  0.00    -0.010 A 
ATOM     13  C   LIG    1       -0.017   1.378   0.010  0.00  0.00    +0.070 A 
ATOM     14  C   LIG    1        1.171   2.086   0.002  0.00  0.00    -0.010 A 
ATOM     15  C   LIG    1        2.377   1.411  -0.015  0.00  0.00    +0.120 A 
ENDBRANCH   7  10
ENDBRANCH   4   7
BRANCH   1  16
ATOM     16  C   LIG    1        7.104  -2.609  -4.476  0.00  0.00    +0.320 C 
BRANCH  16  21
ATOM     17  C   LIG    1        5.586  -6.841  -7.947  0.00  0.00    +0.060 C 
ATOM     18  C   LIG    1        6.394  -5.754  -7.234  0.00  0.00    +0.220 C 
ATOM     19  C   LIG    1        5.848  -4.378  -7.622  0.00  0.00    +0.080 C 
ATOM     20  C   LIG    1        6.414  -3.339  -6.687  0.00  0.00    +0.520 C 
ATOM     21  N   LIG    1        6.647  -3.650  -5.398  0.00  0.00    -0.570 N 
ATOM     22  C   LIG    1        6.472  -4.904  -4.947  0.00  0.00    +0.710 C 
ATOM     23  O   LIG    1        6.480  -5.109  -3.749  0.00  0.00    -0.540 OA
ATOM     24  O   LIG    1        6.658  -2.224  -7.095  0.00  0.00    -0.500 OA
ATOM     25  N   LIG    1        6.282  -5.934  -5.786  0.00  0.00    -0.730 N 
ATOM     26  H   LIG    1        6.073  -6.811  -5.427  0.00  0.00    +0.420 HD
ENDBRANCH  16  21
ENDBRANCH   1  16
TORSDOF 4
