REMARK  Name = ZINCkj000005g230.0
REMARK                            x       y       z     vdW  Elec       q    Type
REMARK                         _______ _______ _______ _____ _____    ______ ____
ROOT
ATOM      1  N   LIG    1       -0.730   1.485   3.713  0.00  0.00    -0.510 N 
ATOM      2  H   LIG    1       -1.691   1.180   3.693  0.00  0.00    +0.430 HD
ATOM      3  H   LIG    1       -0.698   2.493   3.744  0.00  0.00    +0.430 HD
ENDROOT
BRANCH   1   4
ATOM      4  C   LIG    1       -0.040   1.010   2.506  0.00  0.00    +0.290 C 
BRANCH   4   9
ATOM      5  N   LIG    1       -0.725   1.574  -1.182  0.00  0.00    -0.540 NA
ATOM      6  C   LIG    1       -2.119   1.107  -1.182  0.00  0.00    +0.160 C 
ATOM      7  C   LIG    1       -2.818   1.601   0.088  0.00  0.00    +0.250 C 
ATOM      8  O   LIG    1       -2.093   1.143   1.233  0.00  0.00    -0.400 OA
ATOM      9  C   LIG    1       -0.731   1.580   1.266  0.00  0.00    +0.150 C 
ATOM     10  C   LIG    1       -0.013   1.086   0.008  0.00  0.00    +0.180 C 
BRANCH   5  12
ATOM     11  C   LIG    1       -0.923   1.471  -3.620  0.00  0.00    +0.040 C 
ATOM     12  C   LIG    1       -0.034   1.168  -2.413  0.00  0.00    +0.170 C 
ENDBRANCH   5  12
ENDBRANCH   4   9
ENDBRANCH   1   4
BRANCH   1  13
ATOM     13  C   LIG    1       -0.067   0.938   4.904  0.00  0.00    +0.360 C 
BRANCH  13  14
ATOM     14  C   LIG    1       -0.774   1.425   6.142  0.00  0.00    -0.330 A 
ATOM     15  C   LIG    1       -1.808   0.810   6.763  0.00  0.00    +0.140 A 
ATOM     16  N   LIG    1       -2.154   1.562   7.828  0.00  0.00    -0.350 N 
ATOM     17  N   LIG    1       -1.306   2.676   7.864  0.00  0.00    -0.270 NA
ATOM     18  C   LIG    1       -2.456  -0.483   6.340  0.00  0.00    +0.160 C 
ATOM     19  C   LIG    1       -0.475   2.590   6.856  0.00  0.00    +0.100 A 
ATOM     20  C   LIG    1        0.613   3.577   6.521  0.00  0.00    +0.160 C 
BRANCH  16  21
ATOM     21  C   LIG    1       -3.228   1.266   8.779  0.00  0.00    +0.330 C 
ATOM     22  C   LIG    1       -2.672   0.428   9.932  0.00  0.00    +0.050 C 
ENDBRANCH  16  21
ENDBRANCH  13  14
ENDBRANCH   1  13
TORSDOF 6
