REMARK  Name = ZINCpk00000xQ294.0
REMARK                            x       y       z     vdW  Elec       q    Type
REMARK                         _______ _______ _______ _____ _____    ______ ____
ROOT
ATOM      1  N   LIG    1       -1.191   7.198   0.183  0.00  0.00    -0.450 N 
ATOM      2  C   LIG    1       -1.889   7.585  -1.050  0.00  0.00    +0.200 C 
ATOM      3  C   LIG    1       -1.988   9.110  -1.125  0.00  0.00    +0.050 C 
ATOM      4  C   LIG    1       -0.579   9.710  -1.105  0.00  0.00    +0.040 C 
ATOM      5  C   LIG    1        0.143   9.253   0.166  0.00  0.00    +0.150 C 
ATOM      6  C   LIG    1        0.180   7.723   0.203  0.00  0.00    +0.200 C 
ENDROOT
BRANCH   1   9
ATOM      7  C   LIG    1       -2.440   3.877   0.506  0.00  0.00    +0.490 A 
ATOM      8  N   LIG    1       -2.368   5.190   0.353  0.00  0.00    -0.600 NA
ATOM      9  C   LIG    1       -1.199   5.825   0.347  0.00  0.00    +0.550 A 
ATOM     10  N   LIG    1       -0.046   5.200   0.492  0.00  0.00    -0.590 NA
ATOM     11  C   LIG    1       -0.012   3.868   0.654  0.00  0.00    +0.220 A 
ATOM     12  C   LIG    1        1.194   3.172   0.811  0.00  0.00    +0.020 A 
ATOM     13  C   LIG    1        1.174   1.818   0.972  0.00  0.00    +0.060 A 
ATOM     14  C   LIG    1       -0.027   1.115   0.983  0.00  0.00    -0.020 A 
ATOM     15  C   LIG    1       -1.218   1.762   0.828  0.00  0.00    +0.060 A 
ATOM     16  C   LIG    1       -1.233   3.151   0.666  0.00  0.00    -0.220 A 
BRANCH   7  18
ATOM     17  C   LIG    1       -4.894   4.000   0.344  0.00  0.00    +0.300 C 
ATOM     18  N   LIG    1       -3.658   3.232   0.510  0.00  0.00    -0.700 N 
ATOM     19  H   LIG    1       -3.697   2.269   0.624  0.00  0.00    +0.410 HD
ENDBRANCH   7  18
ENDBRANCH   1   9
BRANCH   5  20
ATOM     20  O   LIG    1       -0.553   9.741   1.314  0.00  0.00    -0.520 OA
ATOM     21  H   LIG    1       -0.152   9.487   2.155  0.00  0.00    +0.370 HD
ENDBRANCH   5  20
BRANCH   5  22
ATOM     22  C   LIG    1        1.573   9.798   0.165  0.00  0.00    +0.030 C 
BRANCH  22  23
ATOM     23  C   LIG    1        1.535  11.305   0.194  0.00  0.00    +0.510 C 
ATOM     24  N   LIG    1        2.677  12.010   0.071  0.00  0.00    -0.630 N 
ATOM     25  C   LIG    1        3.955  11.312  -0.090  0.00  0.00    +0.280 C 
ATOM     26  C   LIG    1        2.641  13.474   0.100  0.00  0.00    +0.280 C 
ATOM     27  O   LIG    1        0.477  11.883   0.328  0.00  0.00    -0.510 OA
ENDBRANCH  22  23
ENDBRANCH   5  22
TORSDOF 5
