REMARK  Name = ZINCqH0000034Fsf.0
REMARK                            x       y       z     vdW  Elec       q    Type
REMARK                         _______ _______ _______ _____ _____    ______ ____
ROOT
ATOM      1  C   LIG    1        1.656   8.629  -2.036  0.00  0.00    +0.200 C 
ATOM      2  N   LIG    1        2.964   8.638  -1.365  0.00  0.00    -0.520 NA
ENDROOT
BRANCH   2   3
ATOM      3  C   LIG    1        3.569   9.976  -1.410  0.00  0.00    +0.140 C 
ATOM      4  C   LIG    1        3.725  10.450  -2.873  0.00  0.00    +0.080 C 
ATOM      5  C   LIG    1        5.065  11.218  -2.814  0.00  0.00    +0.280 C 
ATOM      6  N   LIG    1        5.801  10.633  -1.687  0.00  0.00    -0.580 N 
ATOM      7  C   LIG    1        4.984   9.935  -0.876  0.00  0.00    +0.540 C 
ATOM      8  O   LIG    1        5.329   9.358   0.133  0.00  0.00    -0.500 OA
BRANCH   6   9
ATOM      9  C   LIG    1        7.178  10.783  -1.480  0.00  0.00    +0.110 A 
ATOM     10  C   LIG    1        7.657  11.847  -0.729  0.00  0.00    +0.050 A 
ATOM     11  C   LIG    1        9.016  11.992  -0.526  0.00  0.00    +0.020 A 
ATOM     12  C   LIG    1        9.900  11.080  -1.071  0.00  0.00    +0.060 A 
ATOM     13  C   LIG    1        9.428  10.017  -1.820  0.00  0.00    -0.010 A 
ATOM     14  C   LIG    1        8.069   9.862  -2.022  0.00  0.00    +0.110 A 
ATOM     15  F   LIG    1        7.608   8.822  -2.750  0.00  0.00    -0.130 F 
ENDBRANCH   6   9
ENDBRANCH   2   3
BRANCH   2  16
ATOM     16  C   LIG    1        2.849   8.158   0.018  0.00  0.00    +0.290 C 
BRANCH  16  17
ATOM     17  C   LIG    1        2.459   6.702   0.014  0.00  0.00    -0.200 A 
ATOM     18  C   LIG    1        3.302   5.665   0.000  0.00  0.00    +0.240 A 
ATOM     19  N   LIG    1        2.747   4.475   0.004  0.00  0.00    -0.450 NA
ATOM     20  C   LIG    1        1.443   4.430   0.011  0.00  0.00    +0.140 A 
ATOM     21  S   LIG    1        0.812   6.075   0.026  0.00  0.00    +0.110 S 
BRANCH  20  22
ATOM     22  C   LIG    1        0.631   3.204   0.013  0.00  0.00    +0.030 A 
ATOM     23  C   LIG    1        1.108   1.928   0.002  0.00  0.00    +0.030 A 
ATOM     24  C   LIG    1       -0.013   1.076   0.008  0.00  0.00    -0.060 A 
ATOM     25  C   LIG    1       -1.108   1.862   0.017  0.00  0.00    +0.200 A 
ATOM     26  O   LIG    1       -0.716   3.147   0.026  0.00  0.00    -0.170 OA
ENDBRANCH  20  22
ENDBRANCH  16  17
ENDBRANCH   2  16
TORSDOF 5
