REMARK  Name = ZINCkj000005mkVq.0
REMARK                            x       y       z     vdW  Elec       q    Type
REMARK                         _______ _______ _______ _____ _____    ______ ____
ROOT
ATOM      1  N   LIG    1       -0.072   0.951  -2.364  0.00  0.00    -0.530 NA
ATOM      2  C   LIG    1        1.331   1.375  -2.444  0.00  0.00    +0.210 C 
ATOM      3  C   LIG    1        2.044   0.580  -3.540  0.00  0.00    +0.050 C 
ATOM      4  C   LIG    1        1.342   0.822  -4.879  0.00  0.00    +0.150 C 
ATOM      5  C   LIG    1       -0.130   0.417  -4.754  0.00  0.00    +0.050 C 
ATOM      6  C   LIG    1       -0.780   1.217  -3.623  0.00  0.00    +0.200 C 
ENDROOT
BRANCH   4   7
ATOM      7  N   LIG    1        1.986   0.015  -5.924  0.00  0.00    -0.380 N 
ATOM      8  C   LIG    1        3.398   0.399  -6.035  0.00  0.00    +0.250 C 
ATOM      9  C   LIG    1        4.093  -0.493  -7.066  0.00  0.00    +0.050 C 
ATOM     10  C   LIG    1        3.408  -0.323  -8.425  0.00  0.00    +0.030 C 
ATOM     11  C   LIG    1        1.920  -0.655  -8.280  0.00  0.00    +0.050 C 
ATOM     12  C   LIG    1        1.306   0.243  -7.205  0.00  0.00    +0.250 C 
ATOM     13  H   LIG    1        1.923  -0.962  -5.680  0.00  0.00    +0.420 HD
ENDBRANCH   4   7
BRANCH   1  14
ATOM     14  C   LIG    1       -0.753   1.593  -1.232  0.00  0.00    +0.160 C 
BRANCH  14  15
ATOM     15  C   LIG    1       -2.005   0.792  -0.869  0.00  0.00    +0.230 C 
BRANCH  15  16
ATOM     16  C   LIG    1       -2.719   1.466   0.305  0.00  0.00    -0.070 C 
ATOM     17  C   LIG    1       -4.032   0.724   0.653  0.00  0.00    +0.020 C 
ATOM     18  C   LIG    1       -5.039   1.853   0.943  0.00  0.00    +0.190 C 
ATOM     19  O   LIG    1       -4.332   3.099   0.817  0.00  0.00    -0.370 OA
ATOM     20  C   LIG    1       -3.236   2.871  -0.095  0.00  0.00    +0.200 C 
ENDBRANCH  15  16
BRANCH  15  21
ATOM     21  O   LIG    1       -1.631  -0.536  -0.499  0.00  0.00    -0.540 OA
ATOM     22  H   LIG    1       -1.034  -0.580   0.261  0.00  0.00    +0.380 HD
ENDBRANCH  15  21
ENDBRANCH  14  15
ENDBRANCH   1  14
TORSDOF 5
