REMARK  Name = ZINCrH000004prSk.0
REMARK                            x       y       z     vdW  Elec       q    Type
REMARK                         _______ _______ _______ _____ _____    ______ ____
ROOT
ATOM      1  C   LIG    1       -6.588   0.201   1.431  0.00  0.00    +0.070 C 
ATOM      2  C   LIG    1       -6.072   0.562   0.037  0.00  0.00    +0.380 C 
ENDROOT
BRANCH   2   3
ATOM      3  C   LIG    1       -4.566   0.506   0.029  0.00  0.00    +0.180 A 
ATOM      4  N   LIG    1       -3.750   1.530   0.034  0.00  0.00    -0.450 NA
ATOM      5  C   LIG    1       -2.505   1.002   0.020  0.00  0.00    +0.210 A 
ATOM      6  N   LIG    1       -2.638  -0.299   0.014  0.00  0.00    -0.360 NA
ATOM      7  O   LIG    1       -3.813  -0.598   0.019  0.00  0.00    +0.090 OA
BRANCH   5   8
ATOM      8  C   LIG    1       -1.228   1.758   0.017  0.00  0.00    +0.000 A 
ATOM      9  C   LIG    1       -1.239   3.151   0.029  0.00  0.00    +0.060 A 
ATOM     10  C   LIG    1       -0.049   3.849   0.022  0.00  0.00    +0.050 A 
ATOM     11  C   LIG    1        1.155   3.170   0.008  0.00  0.00    +0.010 A 
ATOM     12  C   LIG    1        1.174   1.785   0.000  0.00  0.00    +0.100 A 
ATOM     13  F   LIG    1        2.353   1.126  -0.013  0.00  0.00    -0.130 F 
ATOM     14  C   LIG    1       -0.013   1.076   0.008  0.00  0.00    +0.020 A 
ENDBRANCH   5   8
ENDBRANCH   2   3
BRANCH   2  15
ATOM     15  N   LIG    1       -6.602  -0.391  -0.942  0.00  0.00    -0.710 N 
ATOM     16  H   LIG    1       -6.075  -1.163  -1.201  0.00  0.00    +0.420 HD
ATOM     17  C   LIG    1       -7.820  -0.194  -1.483  0.00  0.00    +0.570 C 
ATOM     18  O   LIG    1       -8.480   0.774  -1.159  0.00  0.00    -0.500 OA
BRANCH  17  19
ATOM     19  C   LIG    1       -8.356  -1.157  -2.473  0.00  0.00    +0.130 A 
ATOM     20  N   LIG    1       -7.631  -2.213  -2.823  0.00  0.00    -0.460 NA
ATOM     21  C   LIG    1       -8.069  -3.092  -3.698  0.00  0.00    +0.310 A 
ATOM     22  C   LIG    1       -9.314  -2.947  -4.290  0.00  0.00    +0.020 A 
ATOM     23  C   LIG    1      -10.104  -1.859  -3.953  0.00  0.00    +0.130 A 
ATOM     24  C   LIG    1       -9.618  -0.951  -3.025  0.00  0.00    -0.180 A 
BRANCH  24  25
ATOM     25  C   LIG    1      -10.443   0.244  -2.622  0.00  0.00    +0.520 C 
ATOM     26  F   LIG    1       -9.747   1.417  -2.936  0.00  0.00    -0.160 F 
ATOM     27  F   LIG    1      -10.685   0.201  -1.244  0.00  0.00    -0.160 F 
ATOM     28  F   LIG    1      -11.660   0.225  -3.310  0.00  0.00    -0.180 F 
ENDBRANCH  24  25
ENDBRANCH  17  19
ENDBRANCH   2  15
TORSDOF 5
