REMARK  Name = ZINCtV000002LjGQ.0
REMARK                            x       y       z     vdW  Elec       q    Type
REMARK                         _______ _______ _______ _____ _____    ______ ____
ROOT
ATOM      1  C   LIG    1       -2.806  -4.032   0.007  0.00  0.00    -0.040 A 
ATOM      2  C   LIG    1       -3.184  -5.308   0.004  0.00  0.00    +0.010 A 
ATOM      3  S   LIG    1       -1.799  -6.383  -0.016  0.00  0.00    +0.210 S 
ATOM      4  C   LIG    1       -0.666  -5.040  -0.019  0.00  0.00    +0.100 A 
ATOM      5  N   LIG    1        0.674  -5.019  -0.032  0.00  0.00    -0.480 NA
ATOM      6  C   LIG    1        1.334  -3.884  -0.032  0.00  0.00    +0.540 A 
ATOM      7  N   LIG    1        0.720  -2.715  -0.025  0.00  0.00    -0.460 NA
ATOM      8  C   LIG    1       -0.603  -2.635  -0.006  0.00  0.00    +0.170 A 
ATOM      9  C   LIG    1       -1.363  -3.831  -0.005  0.00  0.00    -0.150 A 
ENDROOT
BRANCH   1  14
ATOM     10  F   LIG    1       -6.460   0.215   0.066  0.00  0.00    -0.130 F 
ATOM     11  C   LIG    1       -5.579  -0.809   0.051  0.00  0.00    +0.110 A 
ATOM     12  C   LIG    1       -5.723  -1.830  -0.873  0.00  0.00    +0.000 A 
ATOM     13  C   LIG    1       -4.825  -2.878  -0.891  0.00  0.00    +0.070 A 
ATOM     14  C   LIG    1       -3.772  -2.908   0.022  0.00  0.00    -0.050 A 
ATOM     15  C   LIG    1       -3.635  -1.880   0.954  0.00  0.00    +0.060 A 
ATOM     16  C   LIG    1       -4.534  -0.833   0.961  0.00  0.00    +0.010 A 
ENDBRANCH   1  14
BRANCH   8  17
ATOM     17  S   LIG    1       -1.404  -1.066   0.010  0.00  0.00    +0.270 S 
BRANCH  17  18
ATOM     18  C   LIG    1        0.002  -0.004   0.002  0.00  0.00    +0.070 A 
ATOM     19  N   LIG    1        1.259  -0.380  -0.012  0.00  0.00    -0.210 NA
ATOM     20  N   LIG    1        2.017   0.659  -0.014  0.00  0.00    -0.270 NA
ATOM     21  C   LIG    1        1.275   1.740  -0.001  0.00  0.00    +0.210 A 
ATOM     22  O   LIG    1       -0.016   1.343   0.009  0.00  0.00    -0.190 OA
BRANCH  21  23
ATOM     23  C   LIG    1        1.761   3.135   0.001  0.00  0.00    -0.020 A 
ATOM     24  C   LIG    1        3.132   3.400  -0.010  0.00  0.00    +0.090 A 
ATOM     25  C   LIG    1        3.579   4.705  -0.008  0.00  0.00    +0.030 A 
ATOM     26  C   LIG    1        2.673   5.750   0.005  0.00  0.00    +0.060 A 
ATOM     27  C   LIG    1        1.313   5.496   0.017  0.00  0.00    +0.030 A 
ATOM     28  C   LIG    1        0.851   4.195   0.009  0.00  0.00    -0.010 A 
ATOM     29 CL   LIG    1       -0.855   3.877   0.016  0.00  0.00    -0.040 Cl
ENDBRANCH  21  23
ENDBRANCH  17  18
ENDBRANCH   8  17
TORSDOF 4
