REMARK  Name = ZINCpe000000V3gL.0
REMARK                            x       y       z     vdW  Elec       q    Type
REMARK                         _______ _______ _______ _____ _____    ______ ____
ROOT
ATOM      1  C   LIG    1       -4.524   1.968   4.405  0.00  0.00    +0.020 C 
ATOM      2  C   LIG    1       -3.988   0.610   4.914  0.00  0.00    +0.100 C 
ATOM      3  C   LIG    1       -3.895   0.786   6.414  0.00  0.00    +0.520 C 
ATOM      4  N   LIG    1       -4.612   1.856   6.799  0.00  0.00    -0.550 N 
ATOM      5  O   LIG    1       -3.265   0.067   7.160  0.00  0.00    -0.500 OA
ATOM      6  C   LIG    1       -5.261   2.503   5.652  0.00  0.00    +0.320 C 
ENDROOT
BRANCH   4   7
ATOM      7  C   LIG    1       -4.726   2.296   8.124  0.00  0.00    +0.180 A 
ATOM      8  C   LIG    1       -4.171   1.549   9.153  0.00  0.00    +0.020 A 
ATOM      9  C   LIG    1       -4.282   1.982  10.461  0.00  0.00    +0.070 A 
ATOM     10  C   LIG    1       -4.947   3.163  10.748  0.00  0.00    +0.010 A 
ATOM     11  O   LIG    1       -5.190   3.799  11.932  0.00  0.00    -0.310 OA
ATOM     12  C   LIG    1       -6.252   4.732  11.656  0.00  0.00    +0.430 C 
ATOM     13  O   LIG    1       -6.097   5.022  10.255  0.00  0.00    -0.310 OA
ATOM     14  C   LIG    1       -5.504   3.916   9.717  0.00  0.00    +0.060 A 
ATOM     15  C   LIG    1       -5.388   3.483   8.407  0.00  0.00    +0.000 A 
ENDBRANCH   4   7
BRANCH   1  18
ATOM     16  N   LIG    1       -2.626   2.586   2.945  0.00  0.00    -0.720 N 
ATOM     17  H   LIG    1       -2.803   1.785   2.428  0.00  0.00    +0.410 HD
ATOM     18  C   LIG    1       -3.392   2.882   4.014  0.00  0.00    +0.530 C 
ATOM     19  O   LIG    1       -3.171   3.884   4.660  0.00  0.00    -0.520 OA
BRANCH  16  20
ATOM     20  C   LIG    1       -1.525   3.475   2.565  0.00  0.00    +0.190 C 
ATOM     21  C   LIG    1       -2.078   4.866   2.249  0.00  0.00    +0.080 C 
ATOM     22  C   LIG    1       -0.527   3.574   3.720  0.00  0.00    +0.080 C 
BRANCH  20  23
ATOM     23  C   LIG    1       -0.831   2.922   1.347  0.00  0.00    +0.460 C 
ATOM     24  O   LIG    1       -0.382   3.673   0.514  0.00  0.00    -0.490 OA
BRANCH  23  26
ATOM     25  C   LIG    1       -0.031   1.133  -0.009  0.00  0.00    +0.280 C 
ATOM     26  O   LIG    1       -0.711   1.595   1.188  0.00  0.00    -0.360 OA
ENDBRANCH  23  26
ENDBRANCH  20  23
ENDBRANCH  16  20
ENDBRANCH   1  18
TORSDOF 5
