REMARK  Name = ZINCrD000000C08R.0
REMARK                            x       y       z     vdW  Elec       q    Type
REMARK                         _______ _______ _______ _____ _____    ______ ____
ROOT
ATOM      1  C   LIG    1        2.602   4.295   0.050  0.00  0.00    +0.280 C 
ENDROOT
BRANCH   1   2
ATOM      2  C   LIG    1        3.329   4.309   1.370  0.00  0.00    +0.520 C 
ATOM      3  N   LIG    1        4.666   4.473   1.401  0.00  0.00    -0.620 N 
ATOM      4  C   LIG    1        5.523   4.745   0.238  0.00  0.00    +0.230 C 
ATOM      5  C   LIG    1        6.977   4.830   0.750  0.00  0.00    +0.040 C 
ATOM      6  C   LIG    1        6.922   4.033   2.080  0.00  0.00    +0.040 C 
ATOM      7  C   LIG    1        5.512   4.403   2.606  0.00  0.00    +0.250 C 
ATOM      8  O   LIG    1        2.710   4.174   2.405  0.00  0.00    -0.530 OA
ENDBRANCH   1   2
BRANCH   1  11
ATOM      9  O   LIG    1        2.427   1.616  -0.199  0.00  0.00    -0.570 OA
ATOM     10  C   LIG    1        1.380   2.187   0.041  0.00  0.00    +0.720 C 
ATOM     11  N   LIG    1        1.362   3.527   0.184  0.00  0.00    -0.710 N 
ATOM     12  H   LIG    1        0.527   3.982   0.375  0.00  0.00    +0.400 HD
ATOM     13  N   LIG    1        0.240   1.480   0.164  0.00  0.00    -0.680 N 
ATOM     14  H   LIG    1       -0.606   1.940   0.279  0.00  0.00    +0.410 HD
BRANCH  13  15
ATOM     15  C   LIG    1        0.275   0.079   0.119  0.00  0.00    +0.130 A 
ATOM     16  C   LIG    1        1.206  -0.567  -0.680  0.00  0.00    +0.090 A 
ATOM     17  C   LIG    1        1.244  -1.948  -0.718  0.00  0.00    +0.010 A 
ATOM     18  C   LIG    1        0.345  -2.688   0.031  0.00  0.00    +0.110 A 
ATOM     19  C   LIG    1       -0.591  -2.046   0.825  0.00  0.00    -0.020 A 
ATOM     20  F   LIG    1        0.380  -4.037  -0.013  0.00  0.00    -0.130 F 
ATOM     21  C   LIG    1       -0.628  -0.664   0.871  0.00  0.00    +0.100 A 
ATOM     22  F   LIG    1       -1.541  -0.038   1.646  0.00  0.00    -0.130 F 
ENDBRANCH  13  15
ENDBRANCH   1  11
BRANCH   1  23
ATOM     23  C   LIG    1        2.270   5.730  -0.365  0.00  0.00    +0.110 C 
BRANCH  23  24
ATOM     24  C   LIG    1        1.655   5.726  -1.741  0.00  0.00    -0.080 A 
ATOM     25  C   LIG    1        2.461   5.840  -2.858  0.00  0.00    +0.010 A 
ATOM     26  C   LIG    1        1.898   5.831  -4.120  0.00  0.00    +0.000 A 
ATOM     27  C   LIG    1        0.527   5.719  -4.265  0.00  0.00    +0.000 A 
ATOM     28  C   LIG    1       -0.279   5.610  -3.147  0.00  0.00    +0.000 A 
ATOM     29  C   LIG    1        0.285   5.613  -1.885  0.00  0.00    +0.010 A 
ENDBRANCH  23  24
ENDBRANCH   1  23
TORSDOF 5
