REMARK  Name = ZINCpe00000MJJ0H.0
REMARK                            x       y       z     vdW  Elec       q    Type
REMARK                         _______ _______ _______ _____ _____    ______ ____
ROOT
ATOM      1  C   LIG    1       -2.433   2.541  -2.545  0.00  0.00    +0.520 C 
ATOM      2  N   LIG    1       -3.764   2.721  -2.659  0.00  0.00    -0.670 N 
ATOM      3  H   LIG    1       -4.370   2.245  -2.069  0.00  0.00    +0.420 HD
ATOM      4  O   LIG    1       -1.680   3.068  -3.336  0.00  0.00    -0.480 OA
ENDROOT
BRANCH   2   5
ATOM      5  C   LIG    1       -4.272   3.595  -3.627  0.00  0.00    +0.180 A 
ATOM      6  C   LIG    1       -3.627   3.731  -4.847  0.00  0.00    +0.070 A 
ATOM      7  C   LIG    1       -4.133   4.598  -5.804  0.00  0.00    +0.160 A 
ATOM      8  C   LIG    1       -5.284   5.328  -5.539  0.00  0.00    +0.020 A 
ATOM      9  C   LIG    1       -5.926   5.191  -4.322  0.00  0.00    +0.100 A 
ATOM     10  C   LIG    1       -5.428   4.324  -3.369  0.00  0.00    -0.060 A 
ATOM     11 CL   LIG    1       -6.242   4.149  -1.845  0.00  0.00    -0.050 Cl
BRANCH   7  12
ATOM     12  N   LIG    1       -3.482   4.739  -7.039  0.00  0.00    -0.330 N 
ATOM     13  C   LIG    1       -3.845   5.529  -8.072  0.00  0.00    +0.470 A 
ATOM     14  N   LIG    1       -2.962   5.357  -9.021  0.00  0.00    -0.330 NA
ATOM     15  N   LIG    1       -2.071   4.505  -8.661  0.00  0.00    -0.030 NA
ATOM     16  N   LIG    1       -2.316   4.082  -7.468  0.00  0.00    -0.060 NA
ENDBRANCH   7  12
ENDBRANCH   2   5
BRANCH   1  20
ATOM     17  C   LIG    1        0.018   1.186  -0.243  0.00  0.00    +0.160 C 
ATOM     18  C   LIG    1       -0.826   2.031   0.737  0.00  0.00    +0.050 C 
ATOM     19  C   LIG    1       -2.105   2.368  -0.067  0.00  0.00    +0.050 C 
ATOM     20  C   LIG    1       -1.881   1.685  -1.435  0.00  0.00    +0.170 C 
ATOM     21  O   LIG    1       -0.446   1.567  -1.557  0.00  0.00    -0.310 OA
BRANCH  17  24
ATOM     22  C   LIG    1        3.548   1.491   1.200  0.00  0.00    +0.290 C 
ATOM     23  N   LIG    1        2.152   1.093   1.002  0.00  0.00    -0.620 N 
ATOM     24  C   LIG    1        1.481   1.509  -0.090  0.00  0.00    +0.520 C 
ATOM     25  O   LIG    1        2.056   2.144  -0.949  0.00  0.00    -0.510 OA
ATOM     26  C   LIG    1        1.486   0.241   1.991  0.00  0.00    +0.290 C 
ENDBRANCH  17  24
ENDBRANCH   1  20
TORSDOF 4
