REMARK  Name = ZINCpe00000bVfya.0
REMARK                            x       y       z     vdW  Elec       q    Type
REMARK                         _______ _______ _______ _____ _____    ______ ____
ROOT
ATOM      1  C   LIG    1       -2.969   3.208   7.619  0.00  0.00    -0.020 C 
ATOM      2  C   LIG    1       -2.786   3.608   9.107  0.00  0.00    +0.040 C 
ATOM      3  C   LIG    1       -3.846   2.749   9.829  0.00  0.00    +0.280 C 
ATOM      4  N   LIG    1       -4.152   1.608   8.954  0.00  0.00    -0.600 N 
ATOM      5  C   LIG    1       -5.047   0.635   9.217  0.00  0.00    +0.580 C 
ATOM      6  O   LIG    1       -5.219  -0.264   8.418  0.00  0.00    -0.520 OA
ATOM      7  C   LIG    1       -3.318   1.704   7.742  0.00  0.00    +0.260 C 
ENDROOT
BRANCH   5   8
ATOM      8  C   LIG    1       -5.823   0.661  10.484  0.00  0.00    +0.130 A 
ATOM      9  C   LIG    1       -6.743  -0.330  10.755  0.00  0.00    -0.040 A 
ATOM     10  C   LIG    1       -7.457  -0.268  11.976  0.00  0.00    +0.520 A 
ATOM     11  N   LIG    1       -7.213   0.761  12.815  0.00  0.00    -0.630 N 
ATOM     12  H   LIG    1       -7.694   0.824  13.655  0.00  0.00    +0.420 HD
ATOM     13  C   LIG    1       -6.304   1.701  12.489  0.00  0.00    +0.600 A 
ATOM     14  O   LIG    1       -8.277  -1.124  12.262  0.00  0.00    -0.520 OA
ATOM     15  N   LIG    1       -5.636   1.653  11.370  0.00  0.00    -0.530 NA
ENDBRANCH   5   8
BRANCH   1  17
ATOM     16  C   LIG    1       -1.256   4.879   6.899  0.00  0.00    +0.030 C 
ATOM     17  C   LIG    1       -1.671   3.407   6.834  0.00  0.00    +0.250 C 
BRANCH  17  18
ATOM     18  N   LIG    1       -1.881   3.021   5.437  0.00  0.00    -0.730 N 
ATOM     19  H   LIG    1       -2.772   3.049   5.055  0.00  0.00    +0.400 HD
ATOM     20  C   LIG    1       -0.836   2.626   4.683  0.00  0.00    +0.600 C 
ATOM     21  O   LIG    1        0.281   2.590   5.162  0.00  0.00    -0.550 OA
BRANCH  20  22
ATOM     22  C   LIG    1       -1.048   2.237   3.278  0.00  0.00    -0.240 A 
ATOM     23  C   LIG    1       -0.096   1.817   2.390  0.00  0.00    +0.250 A 
ATOM     24  N   LIG    1       -0.698   1.558   1.213  0.00  0.00    -0.450 N 
ATOM     25  C   LIG    1       -2.037   1.805   1.302  0.00  0.00    +0.150 A 
ATOM     26  C   LIG    1       -0.013   1.086   0.008  0.00  0.00    +0.330 C 
ATOM     27  C   LIG    1       -2.321   2.221   2.550  0.00  0.00    -0.030 A 
ENDBRANCH  20  22
ENDBRANCH  17  18
ENDBRANCH   1  17
TORSDOF 4
