REMARK  Name = ZINCvU0000000BOe.0
REMARK                            x       y       z     vdW  Elec       q    Type
REMARK                         _______ _______ _______ _____ _____    ______ ____
ROOT
ATOM      1  N   LIG    1        4.271   2.941   0.693  0.00  0.00    -0.480 N 
ATOM      2  C   LIG    1        4.129   3.706  -0.552  0.00  0.00    +0.190 C 
ATOM      3  C   LIG    1        5.437   4.440  -0.853  0.00  0.00    +0.040 C 
ATOM      4  C   LIG    1        6.571   3.419  -0.987  0.00  0.00    -0.030 C 
ATOM      5  C   LIG    1        6.666   2.603   0.305  0.00  0.00    +0.050 C 
ATOM      6  C   LIG    1        5.322   1.922   0.573  0.00  0.00    +0.190 C 
ENDROOT
BRANCH   1  13
ATOM      7  C   LIG    1        2.434   2.751   2.250  0.00  0.00    -0.130 A 
ATOM      8  C   LIG    1        1.233   2.150   2.577  0.00  0.00    +0.220 A 
ATOM      9  N   LIG    1        0.722   1.238   1.760  0.00  0.00    -0.510 NA
ATOM     10  C   LIG    1        1.343   0.899   0.648  0.00  0.00    +0.530 A 
ATOM     11  N   LIG    1        2.490   1.446   0.298  0.00  0.00    -0.540 NA
ATOM     12 CL   LIG    1        0.398   2.590   4.034  0.00  0.00    +0.000 Cl
ATOM     13  C   LIG    1        3.065   2.369   1.065  0.00  0.00    +0.360 A 
BRANCH   7  15
ATOM     14  C   LIG    1        2.089   4.977   3.286  0.00  0.00    +0.030 C 
ATOM     15  C   LIG    1        3.048   3.792   3.150  0.00  0.00    +0.060 C 
ATOM     16  C   LIG    1        3.307   3.185   4.530  0.00  0.00    +0.030 C 
ENDBRANCH   7  15
ENDBRANCH   1  13
BRANCH   4  17
ATOM     17  C   LIG    1        7.893   4.150  -1.228  0.00  0.00    +0.290 C 
BRANCH  17  18
ATOM     18  N   LIG    1        7.843   4.835  -2.523  0.00  0.00    -0.610 N 
ATOM     19  C   LIG    1        8.251   4.197  -3.638  0.00  0.00    +0.520 C 
ATOM     20  O   LIG    1        8.754   3.097  -3.558  0.00  0.00    -0.530 OA
ATOM     21  C   LIG    1        7.350   6.212  -2.604  0.00  0.00    +0.280 C 
BRANCH  19  22
ATOM     22  C   LIG    1        8.082   4.853  -4.984  0.00  0.00    -0.070 C 
ATOM     23  C   LIG    1        6.592   5.021  -5.287  0.00  0.00    +0.040 C 
ATOM     24  C   LIG    1        6.421   5.687  -6.654  0.00  0.00    -0.010 C 
ATOM     25  C   LIG    1        7.097   7.059  -6.641  0.00  0.00    +0.020 C 
ATOM     26  C   LIG    1        8.587   6.891  -6.338  0.00  0.00    -0.010 C 
ATOM     27  C   LIG    1        9.231   6.016  -7.416  0.00  0.00    +0.010 C 
ATOM     28  C   LIG    1        8.555   4.644  -7.429  0.00  0.00    -0.020 C 
ATOM     29  C   LIG    1        7.065   4.812  -7.731  0.00  0.00    +0.010 C 
ATOM     30  C   LIG    1        8.758   6.226  -4.971  0.00  0.00    +0.040 C 
ATOM     31  C   LIG    1        8.726   3.978  -6.062  0.00  0.00    +0.050 C 
ENDBRANCH  19  22
ENDBRANCH  17  18
ENDBRANCH   4  17
TORSDOF 5
