REMARK  Name = ZINCqH0000001cMM.0
REMARK                            x       y       z     vdW  Elec       q    Type
REMARK                         _______ _______ _______ _____ _____    ______ ____
ROOT
ATOM      1  C   LIG    1       -7.546   5.711   5.713  0.00  0.00    +0.130 A 
ATOM      2  C   LIG    1       -8.416   6.095   4.701  0.00  0.00    +0.000 A 
ATOM      3  C   LIG    1       -8.109   5.818   3.384  0.00  0.00    +0.040 A 
ATOM      4  C   LIG    1       -6.929   5.155   3.071  0.00  0.00    +0.120 A 
ATOM      5  C   LIG    1       -6.061   4.767   4.083  0.00  0.00    +0.010 A 
ATOM      6  C   LIG    1       -6.366   5.049   5.400  0.00  0.00    +0.040 A 
ENDROOT
BRANCH   1   8
ATOM      7  C   LIG    1       -6.877   6.301   7.920  0.00  0.00    +0.510 C 
ATOM      8  N   LIG    1       -7.858   5.992   7.049  0.00  0.00    -0.680 N 
ATOM      9  H   LIG    1       -8.780   5.964   7.348  0.00  0.00    +0.410 HD
ATOM     10  O   LIG    1       -5.717   6.254   7.568  0.00  0.00    -0.510 OA
BRANCH   7  11
ATOM     11  C   LIG    1       -7.220   6.704   9.331  0.00  0.00    +0.060 C 
BRANCH  11  13
ATOM     12  C   LIG    1       -5.239   8.218   9.493  0.00  0.00    +0.010 C 
ATOM     13  C   LIG    1       -5.934   7.000  10.104  0.00  0.00    +0.000 C 
ATOM     14  C   LIG    1       -6.274   7.288  11.568  0.00  0.00    +0.030 C 
ENDBRANCH  11  13
ENDBRANCH   7  11
ENDBRANCH   1   8
BRANCH   4  15
ATOM     15  N   LIG    1       -6.618   4.874   1.735  0.00  0.00    -0.670 N 
ATOM     16  H   LIG    1       -6.152   4.054   1.508  0.00  0.00    +0.410 HD
ATOM     17  C   LIG    1       -6.965   5.743   0.764  0.00  0.00    +0.520 C 
ATOM     18  O   LIG    1       -7.619   6.726   1.037  0.00  0.00    -0.510 OA
BRANCH  17  19
ATOM     19  C   LIG    1       -6.539   5.492  -0.659  0.00  0.00    +0.130 C 
BRANCH  19  20
ATOM     20  C   LIG    1       -7.051   6.602  -1.540  0.00  0.00    -0.020 A 
ATOM     21  C   LIG    1       -6.278   7.729  -1.751  0.00  0.00    +0.050 A 
ATOM     22  C   LIG    1       -6.748   8.747  -2.560  0.00  0.00    +0.110 A 
ATOM     23  C   LIG    1       -7.990   8.639  -3.156  0.00  0.00    -0.040 A 
ATOM     24  C   LIG    1       -8.765   7.515  -2.940  0.00  0.00    +0.110 A 
ATOM     25  C   LIG    1       -8.294   6.494  -2.136  0.00  0.00    +0.050 A 
BRANCH  23  26
ATOM     26  N   LIG    1       -8.493   9.730  -4.021  0.00  0.00    +0.030 N 
ATOM     27  O   LIG    1       -9.586   9.633  -4.551  0.00  0.00    -0.160 OA
ATOM     28  O   LIG    1       -7.812  10.722  -4.207  0.00  0.00    -0.160 OA
ENDBRANCH  23  26
ENDBRANCH  19  20
ENDBRANCH  17  19
ENDBRANCH   4  15
TORSDOF 7
