REMARK  Name = ZINCrH000004kfXS.0
REMARK                            x       y       z     vdW  Elec       q    Type
REMARK                         _______ _______ _______ _____ _____    ______ ____
ROOT
ATOM      1  C   LIG    1        0.626   1.063   2.392  0.00  0.00    -0.470 C 
ATOM      2  C   LIG    1        2.049   1.157   2.946  0.00  0.00    +0.080 C 
ATOM      3  C   LIG    1        2.020   1.834   4.318  0.00  0.00    +0.030 C 
ATOM      4  C   LIG    1        1.464   3.254   4.170  0.00  0.00    +0.270 C 
ATOM      5  N   LIG    1        0.156   3.183   3.505  0.00  0.00    -0.600 N 
ATOM      6  C   LIG    1       -0.930   3.756   4.061  0.00  0.00    +0.590 C 
ATOM      7  O   LIG    1       -1.989   3.759   3.463  0.00  0.00    -0.490 OA
ATOM      8  C   LIG    1        0.054   2.474   2.222  0.00  0.00    +0.330 C 
ENDROOT
BRANCH   6   9
ATOM      9  C   LIG    1       -0.834   4.377   5.388  0.00  0.00    -0.210 A 
ATOM     10  C   LIG    1       -1.689   4.159   6.394  0.00  0.00    +0.020 A 
ATOM     11  C   LIG    1       -1.415   4.855   7.583  0.00  0.00    -0.050 A 
ATOM     12  C   LIG    1       -2.125   4.836   8.807  0.00  0.00    +0.090 A 
ATOM     13  C   LIG    1       -1.704   5.584   9.861  0.00  0.00    +0.070 A 
ATOM     14  C   LIG    1       -0.571   6.381   9.757  0.00  0.00    -0.150 A 
ATOM     15  C   LIG    1        0.140   6.421   8.582  0.00  0.00    +0.130 A 
ATOM     16  C   LIG    1       -0.273   5.660   7.484  0.00  0.00    -0.150 A 
ATOM     17 CL   LIG    1       -3.048   3.089   6.239  0.00  0.00    -0.010 Cl
ATOM     18  S   LIG    1        0.423   5.500   5.875  0.00  0.00    +0.210 S 
BRANCH  14  19
ATOM     19  C   LIG    1       -0.120   7.203  10.937  0.00  0.00    +0.510 C 
ATOM     20  F   LIG    1       -0.119   8.558  10.588  0.00  0.00    -0.170 F 
ATOM     21  F   LIG    1        1.172   6.816  11.308  0.00  0.00    -0.170 F 
ATOM     22  F   LIG    1       -0.994   6.998  12.010  0.00  0.00    -0.170 F 
ENDBRANCH  14  19
ENDBRANCH   6   9
BRANCH   1  23
ATOM     23  S   LIG    1        0.657   0.225   0.783  0.00  0.00    +2.620 S 
ATOM     24  O   LIG    1       -0.664  -0.053   0.340  0.00  0.00    -0.940 OA
ATOM     25  O   LIG    1        1.606   0.837  -0.080  0.00  0.00    -0.950 OA
BRANCH  23  27
ATOM     26  C   LIG    1        0.594  -2.194   1.992  0.00  0.00    +0.300 C 
ATOM     27  N   LIG    1        1.302  -1.266   1.106  0.00  0.00    -1.120 NA
ATOM     28  H   LIG    1        2.146  -1.527   0.706  0.00  0.00    +0.420 HD
ENDBRANCH  23  27
ENDBRANCH   1  23
TORSDOF 4
