REMARK  Name = ZINCrH000004rh30.0
REMARK                            x       y       z     vdW  Elec       q    Type
REMARK                         _______ _______ _______ _____ _____    ______ ____
ROOT
ATOM      1  C   LIG    1       -1.527   5.624  -3.645  0.00  0.00    -0.050 A 
ATOM      2  C   LIG    1       -0.740   6.590  -4.274  0.00  0.00    +0.140 A 
ATOM      3  C   LIG    1       -0.942   6.877  -5.609  0.00  0.00    +0.010 A 
ATOM      4  C   LIG    1       -1.927   6.217  -6.321  0.00  0.00    +0.160 A 
ATOM      5  C   LIG    1       -2.714   5.262  -5.702  0.00  0.00    -0.680 A 
ATOM      6  C   LIG    1       -2.520   4.961  -4.370  0.00  0.00    +0.170 A 
ENDROOT
BRANCH   1  10
ATOM      7  C   LIG    1       -0.596   5.258  -0.223  0.00  0.00    +0.190 A 
ATOM      8  N   LIG    1       -1.563   4.399  -0.351  0.00  0.00    -0.370 NA
ATOM      9  O   LIG    1       -1.994   4.412  -1.485  0.00  0.00    +0.090 OA
ATOM     10  C   LIG    1       -1.314   5.307  -2.217  0.00  0.00    +0.220 A 
ATOM     11  N   LIG    1       -0.418   5.851  -1.414  0.00  0.00    -0.470 NA
BRANCH   7  12
ATOM     12  C   LIG    1        0.188   5.534   1.034  0.00  0.00    +0.220 C 
BRANCH  12  17
ATOM     13  C   LIG    1       -2.394   9.748   4.030  0.00  0.00    +0.090 C 
ATOM     14  C   LIG    1       -1.720   8.649   3.249  0.00  0.00    -0.080 A 
ATOM     15  C   LIG    1       -2.064   7.329   3.475  0.00  0.00    +0.000 A 
ATOM     16  C   LIG    1       -1.446   6.321   2.759  0.00  0.00    +0.020 A 
ATOM     17  C   LIG    1       -0.485   6.633   1.815  0.00  0.00    -0.100 A 
ATOM     18  C   LIG    1       -0.138   7.952   1.592  0.00  0.00    +0.030 A 
ATOM     19  C   LIG    1       -0.759   8.961   2.305  0.00  0.00    +0.000 A 
ENDBRANCH  12  17
ENDBRANCH   7  12
ENDBRANCH   1  10
BRANCH   5  20
ATOM     20  S   LIG    1       -3.966   4.427  -6.618  0.00  0.00    +2.700 S 
ATOM     21  O   LIG    1       -4.038   3.109  -6.091  0.00  0.00    -0.950 OA
ATOM     22  O   LIG    1       -3.712   4.703  -7.989  0.00  0.00    -0.950 OA
BRANCH  20  23
ATOM     23  N   LIG    1       -5.408   5.156  -6.254  0.00  0.00    -1.110 NA
ATOM     24  H   LIG    1       -6.085   4.670  -5.758  0.00  0.00    +0.420 HD
BRANCH  23  25
ATOM     25  C   LIG    1       -5.660   6.535  -6.681  0.00  0.00    +0.170 C 
ATOM     26  C   LIG    1       -4.523   7.435  -6.193  0.00  0.00    +0.030 C 
ATOM     27  C   LIG    1       -6.984   7.018  -6.087  0.00  0.00    +0.050 C 
ATOM     28  C   LIG    1       -5.735   6.590  -8.208  0.00  0.00    +0.040 C 
ENDBRANCH  23  25
ENDBRANCH  20  23
ENDBRANCH   5  20
TORSDOF 6
