REMARK  Name = ZINCvU0000000BPP.0
REMARK                            x       y       z     vdW  Elec       q    Type
REMARK                         _______ _______ _______ _____ _____    ______ ____
ROOT
ATOM      1  N   LIG    1        6.578   1.582  -1.433  0.00  0.00    -0.610 N 
ATOM      2  C   LIG    1        7.047   0.496  -2.079  0.00  0.00    +0.540 C 
ATOM      3  O   LIG    1        7.085  -0.577  -1.514  0.00  0.00    -0.500 OA
ENDROOT
BRANCH   1   4
ATOM      4  C   LIG    1        6.532   2.877  -2.116  0.00  0.00    +0.280 C 
BRANCH   4   6
ATOM      5  C   LIG    1        7.800   4.976  -2.598  0.00  0.00    +0.030 C 
ATOM      6  C   LIG    1        7.848   3.623  -1.884  0.00  0.00    +0.000 C 
ENDBRANCH   4   6
ENDBRANCH   1   4
BRANCH   2   7
ATOM      7  C   LIG    1        7.524   0.614  -3.504  0.00  0.00    +0.120 C 
BRANCH   7   8
ATOM      8  S   LIG    1        8.088  -1.004  -4.087  0.00  0.00    +0.070 S 
BRANCH   8   9
ATOM      9  C   LIG    1        8.575  -0.586  -5.728  0.00  0.00    +0.180 A 
ATOM     10  N   LIG    1        8.496   0.607  -6.272  0.00  0.00    -0.480 NA
ATOM     11  C   LIG    1        8.958   0.552  -7.532  0.00  0.00    +0.170 A 
ATOM     12  C   LIG    1        9.331  -0.712  -7.794  0.00  0.00    +0.140 A 
ATOM     13  N   LIG    1        9.091  -1.446  -6.652  0.00  0.00    -0.400 N 
BRANCH  13  14
ATOM     14  C   LIG    1        9.332  -2.816  -6.473  0.00  0.00    +0.120 A 
ATOM     15  C   LIG    1       10.041  -3.258  -5.364  0.00  0.00    +0.040 A 
ATOM     16  C   LIG    1       10.273  -4.609  -5.188  0.00  0.00    +0.060 A 
ATOM     17  C   LIG    1        9.808  -5.519  -6.121  0.00  0.00    -0.030 A 
ATOM     18  C   LIG    1        9.107  -5.080  -7.230  0.00  0.00    +0.060 A 
ATOM     19 CL   LIG    1       10.107  -7.215  -5.901  0.00  0.00    -0.050 Cl
ATOM     20  C   LIG    1        8.868  -3.731  -7.408  0.00  0.00    +0.040 A 
ENDBRANCH  13  14
ENDBRANCH   8   9
ENDBRANCH   7   8
ENDBRANCH   2   7
BRANCH   1  21
ATOM     21  C   LIG    1        6.115   1.467  -0.049  0.00  0.00    +0.480 C 
BRANCH  21  22
ATOM     22  C   LIG    1        4.644   1.137  -0.036  0.00  0.00    +0.140 A 
ATOM     23  N   LIG    1        4.124  -0.058  -0.039  0.00  0.00    -0.250 NA
ATOM     24  N   LIG    1        2.841   0.030  -0.026  0.00  0.00    -0.270 NA
ATOM     25  C   LIG    1        2.494   1.299  -0.015  0.00  0.00    +0.240 A 
ATOM     26  O   LIG    1        3.632   2.023  -0.028  0.00  0.00    -0.220 OA
BRANCH  25  27
ATOM     27  C   LIG    1        1.122   1.828   0.001  0.00  0.00    -0.160 A 
ATOM     28  C   LIG    1       -0.013   1.076   0.008  0.00  0.00    +0.100 A 
ATOM     29  C   LIG    1       -1.181   1.806   0.017  0.00  0.00    +0.020 A 
ATOM     30  C   LIG    1       -1.022   3.133   0.028  0.00  0.00    -0.010 A 
ATOM     31  S   LIG    1        0.690   3.533   0.014  0.00  0.00    +0.170 S 
ENDBRANCH  25  27
ENDBRANCH  21  22
ENDBRANCH   1  21
TORSDOF 9
