REMARK  Name = ZINCrg000000qZ3H.0
REMARK                            x       y       z     vdW  Elec       q    Type
REMARK                         _______ _______ _______ _____ _____    ______ ____
ROOT
ATOM      1  N   LIG    1        2.766   4.381   1.359  0.00  0.00    -0.560 N 
ATOM      2  C   LIG    1        3.488   3.649   2.217  0.00  0.00    +0.530 C 
ATOM      3  C   LIG    1        3.620   4.400   3.523  0.00  0.00    +0.090 C 
ATOM      4  C   LIG    1        2.842   5.707   3.270  0.00  0.00    +0.140 C 
ATOM      5  O   LIG    1        3.960   2.557   1.983  0.00  0.00    -0.480 OA
ATOM      6  C   LIG    1        2.356   5.560   1.844  0.00  0.00    +0.540 C 
ATOM      7  O   LIG    1        1.698   6.378   1.238  0.00  0.00    -0.450 OA
ENDROOT
BRANCH   4   8
ATOM      8  N   LIG    1        3.731   6.870   3.390  0.00  0.00    -0.510 NA
ATOM      9  C   LIG    1        2.997   8.123   3.150  0.00  0.00    +0.250 C 
ATOM     10  C   LIG    1        1.774   8.148   4.066  0.00  0.00    +0.070 C 
ATOM     11  C   LIG    1        2.183   7.841   5.485  0.00  0.00    +0.170 A 
ATOM     12  C   LIG    1        3.369   7.266   5.775  0.00  0.00    -0.230 A 
ATOM     13  C   LIG    1        3.702   6.991   7.114  0.00  0.00    +0.130 A 
ATOM     14  C   LIG    1        2.827   7.309   8.108  0.00  0.00    -0.090 A 
ATOM     15  C   LIG    1        1.603   7.912   7.772  0.00  0.00    +0.520 A 
ATOM     16  O   LIG    1        0.806   8.208   8.648  0.00  0.00    -0.550 OA
ATOM     17  N   LIG    1        1.312   8.163   6.484  0.00  0.00    -0.610 N 
ATOM     18  H   LIG    1        0.466   8.580   6.261  0.00  0.00    +0.410 HD
ATOM     19  C   LIG    1        4.371   6.908   4.709  0.00  0.00    +0.310 C 
ENDBRANCH   4   8
BRANCH   1  20
ATOM     20  C   LIG    1        2.456   3.933  -0.001  0.00  0.00    +0.360 C 
BRANCH  20  26
ATOM     21  C   LIG    1       -0.050   3.842   0.023  0.00  0.00    +0.140 A 
ATOM     22  C   LIG    1       -1.241   3.131   0.031  0.00  0.00    -0.090 A 
ATOM     23  C   LIG    1       -1.220   1.750   0.017  0.00  0.00    +0.060 A 
ATOM     24  C   LIG    1       -0.013   1.076   0.008  0.00  0.00    -0.030 A 
ATOM     25  C   LIG    1        1.176   1.782   0.000  0.00  0.00    +0.070 A 
ATOM     26  C   LIG    1        1.160   3.163   0.007  0.00  0.00    -0.160 A 
BRANCH  21  28
ATOM     27  C   LIG    1       -1.350   5.832   0.046  0.00  0.00    +0.230 C 
ATOM     28  O   LIG    1       -0.069   5.201   0.030  0.00  0.00    -0.290 OA
ENDBRANCH  21  28
ENDBRANCH  20  26
ENDBRANCH   1  20
TORSDOF 4
