REMARK  Name = ZINCkj000005faer.1
REMARK                            x       y       z     vdW  Elec       q    Type
REMARK                         _______ _______ _______ _____ _____    ______ ____
ROOT
ATOM      1  C   LIG    1       -0.046  -2.488   2.937  0.00  0.00    +0.210 C 
ENDROOT
BRANCH   1   2
ATOM      2  O   LIG    1        0.852  -1.743   3.761  0.00  0.00    -0.540 OA
ATOM      3  H   LIG    1        1.786  -1.886   3.555  0.00  0.00    +0.390 HD
ENDBRANCH   1   2
BRANCH   1   4
ATOM      4  C   LIG    1        0.229  -3.983   3.104  0.00  0.00    +0.160 C 
BRANCH   4   5
ATOM      5  O   LIG    1       -0.074  -4.377   4.444  0.00  0.00    -0.370 OA
BRANCH   5   6
ATOM      6  C   LIG    1        0.149  -5.763   4.708  0.00  0.00    +0.200 C 
BRANCH   6   7
ATOM      7  C   LIG    1       -0.206  -6.069   6.164  0.00  0.00    +0.190 C 
BRANCH   7   8
ATOM      8  O   LIG    1       -1.607  -5.867   6.365  0.00  0.00    -0.380 OA
BRANCH   8  10
ATOM      9  C   LIG    1       -3.248  -5.237   8.023  0.00  0.00    +0.040 C 
ATOM     10  C   LIG    1       -2.046  -6.127   7.699  0.00  0.00    +0.140 C 
ATOM     11  C   LIG    1       -2.452  -7.597   7.825  0.00  0.00    +0.010 C 
ENDBRANCH   8  10
ENDBRANCH   7   8
ENDBRANCH   6   7
ENDBRANCH   5   6
ENDBRANCH   4   5
ENDBRANCH   1   4
BRANCH   1  12
ATOM     12  C   LIG    1        0.159  -2.092   1.473  0.00  0.00    +0.250 C 
BRANCH  12  13
ATOM     13  N   LIG    1       -0.110  -0.657   1.311  0.00  0.00    -0.380 N 
ATOM     14  C   LIG    1        0.225  -0.247  -0.059  0.00  0.00    +0.330 C 
ATOM     15  H   LIG    1        0.452  -0.134   1.966  0.00  0.00    +0.430 HD
BRANCH  13  16
ATOM     16  C   LIG    1       -1.533  -0.394   1.567  0.00  0.00    +0.320 C 
BRANCH  16  17
ATOM     17  C   LIG    1       -1.784   1.092   1.522  0.00  0.00    -0.110 A 
ATOM     18  C   LIG    1       -1.685   1.863   2.669  0.00  0.00    +0.000 A 
ATOM     19  C   LIG    1       -1.919   3.223   2.589  0.00  0.00    +0.290 A 
ATOM     20  N   LIG    1       -2.242   3.785   1.441  0.00  0.00    -0.460 NA
ATOM     21  C   LIG    1       -2.350   3.082   0.330  0.00  0.00    +0.280 A 
ATOM     22  C   LIG    1       -2.126   1.718   0.333  0.00  0.00    +0.000 A 
ENDBRANCH  16  17
ENDBRANCH  13  16
ENDBRANCH  12  13
ENDBRANCH   1  12
TORSDOF 11
