REMARK  Name = ZINCkj000005faer.0
REMARK                            x       y       z     vdW  Elec       q    Type
REMARK                         _______ _______ _______ _____ _____    ______ ____
ROOT
ATOM      1  C   LIG    1       -0.013   1.086   0.008  0.00  0.00    +0.220 C 
ENDROOT
BRANCH   1   2
ATOM      2  O   LIG    1       -0.682   1.547   1.184  0.00  0.00    -0.540 OA
ATOM      3  H   LIG    1       -0.732   2.510   1.256  0.00  0.00    +0.390 HD
ENDBRANCH   1   2
BRANCH   1   4
ATOM      4  C   LIG    1        1.423   1.615  -0.003  0.00  0.00    +0.160 C 
BRANCH   4   5
ATOM      5  O   LIG    1        2.147   1.049   1.091  0.00  0.00    -0.370 OA
BRANCH   5   6
ATOM      6  C   LIG    1        3.507   1.481   1.173  0.00  0.00    +0.200 C 
BRANCH   6   7
ATOM      7  C   LIG    1        4.182   0.816   2.374  0.00  0.00    +0.190 C 
BRANCH   7   8
ATOM      8  O   LIG    1        4.246  -0.596   2.162  0.00  0.00    -0.380 OA
BRANCH   8  10
ATOM      9  C   LIG    1        4.261  -2.721   3.313  0.00  0.00    +0.040 C 
ATOM     10  C   LIG    1        4.862  -1.317   3.232  0.00  0.00    +0.140 C 
ATOM     11  C   LIG    1        6.367  -1.420   2.976  0.00  0.00    +0.010 C 
ENDBRANCH   8  10
ENDBRANCH   7   8
ENDBRANCH   6   7
ENDBRANCH   5   6
ENDBRANCH   4   5
ENDBRANCH   1   4
BRANCH   1  12
ATOM     12  C   LIG    1       -0.753   1.593  -1.232  0.00  0.00    +0.250 C 
BRANCH  12  13
ATOM     13  N   LIG    1       -2.131   1.084  -1.221  0.00  0.00    -0.380 N 
ATOM     14  C   LIG    1       -2.114  -0.379  -1.350  0.00  0.00    +0.330 C 
ATOM     15  H   LIG    1       -2.577   1.340  -0.353  0.00  0.00    +0.430 HD
BRANCH  13  16
ATOM     16  C   LIG    1       -2.876   1.666  -2.345  0.00  0.00    +0.320 C 
BRANCH  16  17
ATOM     17  C   LIG    1       -4.320   1.242  -2.264  0.00  0.00    -0.110 A 
ATOM     18  C   LIG    1       -4.756   0.084  -2.891  0.00  0.00    +0.000 A 
ATOM     19  C   LIG    1       -6.087  -0.275  -2.791  0.00  0.00    +0.280 A 
ATOM     20  N   LIG    1       -6.939   0.473  -2.119  0.00  0.00    -0.460 NA
ATOM     21  C   LIG    1       -6.561   1.583  -1.514  0.00  0.00    +0.290 A 
ATOM     22  C   LIG    1       -5.245   2.003  -1.566  0.00  0.00    +0.000 A 
ENDBRANCH  16  17
ENDBRANCH  13  16
ENDBRANCH  12  13
ENDBRANCH   1  12
TORSDOF 11
