REMARK  Name = ZINCpe00000xRwKP.1
REMARK                            x       y       z     vdW  Elec       q    Type
REMARK                         _______ _______ _______ _____ _____    ______ ____
ROOT
ATOM      1  C   LIG    1        0.717  -0.495  -1.230  0.00  0.00    +0.540 C 
ATOM      2  N   LIG    1        0.769  -1.815  -1.498  0.00  0.00    -0.590 N 
ATOM      3  C   LIG    1        0.086  -2.877  -0.735  0.00  0.00    +0.260 C 
ATOM      4  C   LIG    1        0.911  -4.158  -1.012  0.00  0.00    +0.040 C 
ATOM      5  C   LIG    1        1.308  -3.960  -2.500  0.00  0.00    +0.290 C 
ATOM      6  C   LIG    1        1.510  -2.436  -2.602  0.00  0.00    +0.070 C 
ATOM      7  C   LIG    1        2.845  -1.865  -3.074  0.00  0.00    +0.050 C 
ATOM      8  C   LIG    1        1.606  -1.756  -3.966  0.00  0.00    +0.050 C 
ATOM      9  O   LIG    1        1.244   0.298  -1.982  0.00  0.00    -0.520 OA
ENDROOT
BRANCH   5  10
ATOM     10  N   LIG    1        0.226  -4.396  -3.387  0.00  0.00    -0.710 N 
ATOM     11  H   LIG    1       -0.428  -3.754  -3.706  0.00  0.00    +0.410 HD
ATOM     12  C   LIG    1        0.140  -5.688  -3.761  0.00  0.00    +0.510 C 
ATOM     13  O   LIG    1        0.958  -6.490  -3.363  0.00  0.00    -0.530 OA
BRANCH  12  14
ATOM     14  C   LIG    1       -0.972  -6.136  -4.674  0.00  0.00    +0.320 C 
BRANCH  14  15
ATOM     15  N   LIG    1       -0.846  -7.573  -4.929  0.00  0.00    -0.690 N 
ATOM     16  H   LIG    1       -0.121  -8.075  -4.525  0.00  0.00    +0.420 HD
ATOM     17  C   LIG    1       -1.737  -8.197  -5.724  0.00  0.00    +0.490 C 
ATOM     18  O   LIG    1       -2.643  -7.569  -6.229  0.00  0.00    -0.470 OA
BRANCH  17  19
ATOM     19  C   LIG    1       -1.607  -9.675  -5.987  0.00  0.00    +0.460 C 
ATOM     20  F   LIG    1       -1.688 -10.372  -4.776  0.00  0.00    -0.160 F 
ATOM     21  F   LIG    1       -0.373  -9.934  -6.593  0.00  0.00    -0.160 F 
ATOM     22  F   LIG    1       -2.639 -10.091  -6.834  0.00  0.00    -0.150 F 
ENDBRANCH  17  19
ENDBRANCH  14  15
ENDBRANCH  12  14
ENDBRANCH   5  10
BRANCH   1  23
ATOM     23  C   LIG    1        0.004  -0.005   0.004  0.00  0.00    +0.030 C 
ATOM     24  C   LIG    1        1.009   0.145   1.148  0.00  0.00    +0.060 C 
BRANCH  23  27
ATOM     25  C   LIG    1       -3.223   1.614  -0.067  0.00  0.00    +0.120 C 
ATOM     26  C   LIG    1       -1.929   1.472  -0.174  0.00  0.00    -0.190 C 
ATOM     27  C   LIG    1       -0.634   1.330  -0.282  0.00  0.00    +0.050 C 
ENDBRANCH  23  27
ENDBRANCH   1  23
TORSDOF 6
