REMARK  Name = ZINCpk00000e9TLK.1
REMARK                            x       y       z     vdW  Elec       q    Type
REMARK                         _______ _______ _______ _____ _____    ______ ____
ROOT
ATOM      1  N   LIG    1        0.022  -0.500   1.381  0.00  0.00    -0.440 N 
ATOM      2  C   LIG    1        1.117  -0.852   2.094  0.00  0.00    +0.370 A 
ATOM      3  N   LIG    1        0.737  -1.241   3.284  0.00  0.00    -0.470 NA
ATOM      4  C   LIG    1       -0.591  -1.160   3.368  0.00  0.00    -0.020 A 
ATOM      5  C   LIG    1       -1.490  -1.499   4.529  0.00  0.00    +0.200 C 
ATOM      6  C   LIG    1       -1.640  -3.018   4.639  0.00  0.00    +0.020 C 
ATOM      7  C   LIG    1       -2.498  -3.350   5.863  0.00  0.00    +0.220 C 
ATOM      8  O   LIG    1       -1.895  -2.790   7.032  0.00  0.00    -0.380 OA
ATOM      9  C   LIG    1       -1.776  -1.366   7.003  0.00  0.00    +0.220 C 
ATOM     10  C   LIG    1       -0.889  -0.953   5.825  0.00  0.00    +0.010 C 
ATOM     11  N   LIG    1       -2.807  -0.888   4.298  0.00  0.00    -0.670 NA
ATOM     12  H   LIG    1       -2.771   0.111   4.433  0.00  0.00    +0.350 HD
ATOM     13  C   LIG    1       -3.329  -1.220   2.965  0.00  0.00    +0.230 C 
ATOM     14  C   LIG    1       -2.518  -0.477   1.893  0.00  0.00    +0.080 C 
ATOM     15  C   LIG    1       -1.055  -0.699   2.183  0.00  0.00    -0.020 A 
ENDROOT
BRANCH   1  16
ATOM     16  C   LIG    1        0.002  -0.004   0.002  0.00  0.00    +0.360 C 
BRANCH  16  21
ATOM     17  C   LIG    1       -1.240   3.570   0.033  0.00  0.00    -0.140 A 
ATOM     18  C   LIG    1       -0.037   4.277   0.025  0.00  0.00    +0.050 A 
ATOM     19  C   LIG    1        1.161   3.593   0.010  0.00  0.00    +0.020 A 
ATOM     20  C   LIG    1        1.171   2.209   0.003  0.00  0.00    +0.060 A 
ATOM     21  C   LIG    1       -0.018   1.503   0.010  0.00  0.00    -0.120 A 
ATOM     22  C   LIG    1       -1.223   2.175   0.020  0.00  0.00    +0.100 A 
BRANCH  17  26
ATOM     23  C   LIG    1       -3.816   6.365   0.074  0.00  0.00    +0.290 C 
ATOM     24  N   LIG    1       -2.541   5.645   0.057  0.00  0.00    -0.730 N 
ATOM     25  H   LIG    1       -1.705   6.138   0.051  0.00  0.00    +0.400 HD
ATOM     26  C   LIG    1       -2.527   4.297   0.050  0.00  0.00    +0.560 C 
ATOM     27  O   LIG    1       -3.574   3.679   0.057  0.00  0.00    -0.530 OA
ENDBRANCH  17  26
ENDBRANCH  16  21
ENDBRANCH   1  16
TORSDOF 3
