REMARK  Name = ZINCkj000005jVI5.0
REMARK                            x       y       z     vdW  Elec       q    Type
REMARK                         _______ _______ _______ _____ _____    ______ ____
ROOT
ATOM      1  C   LIG    1        4.922  -0.011   0.385  0.00  0.00    +0.100 C 
ATOM      2  C   LIG    1        3.777  -1.002   0.171  0.00  0.00    +0.230 C 
ATOM      3  C   LIG    1        3.898  -2.158   1.176  0.00  0.00    +0.270 C 
ATOM      4  N   LIG    1        2.725  -3.034   1.054  0.00  0.00    -0.510 N 
ATOM      5  C   LIG    1        1.512  -2.302   1.440  0.00  0.00    +0.270 C 
ATOM      6  C   LIG    1        1.274  -1.153   0.454  0.00  0.00    +0.310 C 
ATOM      7  H   LIG    1        2.638  -3.346   0.098  0.00  0.00    +0.430 HD
ATOM      8  H   LIG    1        2.841  -3.834   1.657  0.00  0.00    +0.440 HD
ATOM      9  N   LIG    1        2.490  -0.327   0.398  0.00  0.00    -0.630 N 
ATOM     10  C   LIG    1        2.425   1.011   0.544  0.00  0.00    +0.570 C 
ATOM     11  O   LIG    1        3.428   1.686   0.415  0.00  0.00    -0.490 OA
ENDROOT
BRANCH  10  12
ATOM     12  C   LIG    1        1.135   1.659   0.863  0.00  0.00    -0.110 A 
ATOM     13  C   LIG    1       -0.054   1.141   0.347  0.00  0.00    +0.020 A 
ATOM     14  C   LIG    1       -1.257   1.751   0.642  0.00  0.00    +0.060 A 
ATOM     15  C   LIG    1       -1.290   2.867   1.457  0.00  0.00    +0.030 A 
ATOM     16  C   LIG    1       -0.111   3.390   1.975  0.00  0.00    +0.150 A 
ATOM     17  C   LIG    1        1.102   2.789   1.681  0.00  0.00    +0.070 A 
BRANCH  16  18
ATOM     18  N   LIG    1       -0.149   4.526   2.796  0.00  0.00    -0.420 N 
ATOM     19  C   LIG    1       -1.268   5.227   3.167  0.00  0.00    +0.120 A 
ATOM     20  C   LIG    1       -0.853   6.236   3.956  0.00  0.00    +0.170 A 
ATOM     21  N   LIG    1        0.482   6.164   4.059  0.00  0.00    -0.470 NA
ATOM     22  C   LIG    1        0.916   5.144   3.369  0.00  0.00    +0.400 A 
ENDBRANCH  16  18
ENDBRANCH  10  12
TORSDOF 2
