REMARK  Name = ZINCpe000000SWsA.0
REMARK                            x       y       z     vdW  Elec       q    Type
REMARK                         _______ _______ _______ _____ _____    ______ ____
ROOT
ATOM      1  N   LIG    1       -0.860   2.075  -1.687  0.00  0.00    -0.520 NA
ATOM      2  C   LIG    1       -0.846   3.543  -1.792  0.00  0.00    +0.190 C 
ATOM      3  C   LIG    1       -2.030   4.104  -1.002  0.00  0.00    +0.290 C 
ATOM      4  N   LIG    1       -2.052   3.530   0.341  0.00  0.00    -0.520 N 
ATOM      5  C   LIG    1       -1.393   2.413   0.663  0.00  0.00    +0.530 C 
ATOM      6  O   LIG    1       -1.493   1.988   1.794  0.00  0.00    -0.530 OA
ATOM      7  C   LIG    1       -0.533   1.663  -0.315  0.00  0.00    +0.250 C 
ENDROOT
BRANCH   4   8
ATOM      8  C   LIG    1       -2.802   4.181   1.338  0.00  0.00    -0.000 A 
ATOM      9  C   LIG    1       -3.438   5.373   1.210  0.00  0.00    +0.200 A 
ATOM     10  N   LIG    1       -4.041   5.645   2.396  0.00  0.00    -0.380 N 
ATOM     11  N   LIG    1       -3.764   4.588   3.272  0.00  0.00    -0.290 NA
ATOM     12  C   LIG    1       -4.840   6.834   2.704  0.00  0.00    +0.370 C 
ATOM     13  C   LIG    1       -3.029   3.710   2.640  0.00  0.00    +0.270 A 
ENDBRANCH   4   8
BRANCH   1  14
ATOM     14  C   LIG    1        0.066   1.469  -2.653  0.00  0.00    +0.230 C 
BRANCH  14  16
ATOM     15  N   LIG    1        0.613  -0.794  -3.487  0.00  0.00    -0.610 N 
ATOM     16  C   LIG    1       -0.133  -0.025  -2.670  0.00  0.00    +0.510 C 
ATOM     17  O   LIG    1       -0.964  -0.534  -1.949  0.00  0.00    -0.490 OA
BRANCH  15  19
ATOM     18  C   LIG    1        2.995  -0.759  -4.038  0.00  0.00    +0.030 C 
ATOM     19  C   LIG    1        1.617  -0.179  -4.359  0.00  0.00    +0.230 C 
ATOM     20  C   LIG    1        1.270  -0.468  -5.821  0.00  0.00    +0.030 C 
ENDBRANCH  15  19
BRANCH  15  21
ATOM     21  C   LIG    1        0.419  -2.247  -3.504  0.00  0.00    +0.340 C 
BRANCH  21  22
ATOM     22  C   LIG    1       -0.758  -2.594  -4.418  0.00  0.00    +0.430 C 
ATOM     23  F   LIG    1       -1.937  -2.069  -3.879  0.00  0.00    -0.170 F 
ATOM     24  F   LIG    1       -0.872  -3.984  -4.524  0.00  0.00    -0.180 F 
ATOM     25  F   LIG    1       -0.541  -2.045  -5.687  0.00  0.00    -0.180 F 
ENDBRANCH  21  22
ENDBRANCH  15  21
ENDBRANCH  14  16
ENDBRANCH   1  14
TORSDOF 6
