REMARK  Name = ZINCpe00000MJLec.0
REMARK                            x       y       z     vdW  Elec       q    Type
REMARK                         _______ _______ _______ _____ _____    ______ ____
ROOT
ATOM      1  N   LIG    1        2.330   1.250   0.001  0.00  0.00    -0.450 N 
ATOM      2  C   LIG    1        2.561   0.517   1.273  0.00  0.00    +0.200 C 
ATOM      3  C   LIG    1        4.069   0.185   1.262  0.00  0.00    +0.190 C 
ATOM      4  C   LIG    1        4.705   1.237   0.331  0.00  0.00    +0.040 C 
ATOM      5  F   LIG    1        4.279  -1.103   0.756  0.00  0.00    -0.200 F 
ATOM      6  C   LIG    1        3.528   2.117  -0.143  0.00  0.00    +0.160 C 
ENDROOT
BRANCH   1  11
ATOM      7  C   LIG    1        0.134   4.053   0.300  0.00  0.00    +0.580 A 
ATOM      8  N   LIG    1       -1.067   3.503   0.200  0.00  0.00    -0.580 NA
ATOM      9  C   LIG    1       -1.206   2.197   0.027  0.00  0.00    +0.370 A 
ATOM     10  C   LIG    1       -0.080   1.401  -0.039  0.00  0.00    -0.130 A 
ATOM     11  C   LIG    1        1.173   2.008   0.069  0.00  0.00    +0.380 A 
ATOM     12  N   LIG    1        1.239   3.325   0.236  0.00  0.00    -0.600 NA
BRANCH   7  14
ATOM     13  C   LIG    1        1.557   6.049   0.587  0.00  0.00    +0.300 C 
ATOM     14  N   LIG    1        0.237   5.422   0.475  0.00  0.00    -0.590 N 
ATOM     15  C   LIG    1       -0.973   6.244   0.548  0.00  0.00    +0.310 C 
ENDBRANCH   7  14
ENDBRANCH   1  11
BRANCH   6  16
ATOM     16  C   LIG    1        3.720   2.522  -1.606  0.00  0.00    +0.280 C 
BRANCH  16  17
ATOM     17  N   LIG    1        4.824   3.479  -1.707  0.00  0.00    -0.730 N 
ATOM     18  H   LIG    1        5.344   3.704  -0.919  0.00  0.00    +0.400 HD
ATOM     19  C   LIG    1        5.119   4.045  -2.893  0.00  0.00    +0.520 C 
ATOM     20  O   LIG    1        4.470   3.763  -3.878  0.00  0.00    -0.520 OA
BRANCH  19  21
ATOM     21  C   LIG    1        6.256   5.029  -2.997  0.00  0.00    +0.170 C 
BRANCH  21  22
ATOM     22  C   LIG    1        6.375   5.511  -4.420  0.00  0.00    +0.020 A 
ATOM     23  N   LIG    1        6.513   4.774  -5.484  0.00  0.00    -0.340 NA
ATOM     24  O   LIG    1        6.582   5.448  -6.486  0.00  0.00    +0.110 OA
ATOM     25  C   LIG    1        6.495   6.756  -6.208  0.00  0.00    +0.160 A 
ATOM     26  C   LIG    1        6.353   6.854  -4.864  0.00  0.00    -0.060 A 
ENDBRANCH  21  22
ENDBRANCH  19  21
ENDBRANCH  16  17
ENDBRANCH   6  16
TORSDOF 6
