REMARK  Name = ZINCpe000000VKNK.0
REMARK                            x       y       z     vdW  Elec       q    Type
REMARK                         _______ _______ _______ _____ _____    ______ ____
ROOT
ATOM      1  C   LIG    1       -2.188   1.216   1.361  0.00  0.00    +0.530 C 
ATOM      2  N   LIG    1       -3.015   1.475   0.329  0.00  0.00    -0.560 N 
ATOM      3  C   LIG    1       -2.519   2.110  -0.900  0.00  0.00    +0.330 C 
ATOM      4  C   LIG    1       -3.517   3.143  -1.358  0.00  0.00    +0.510 C 
ATOM      5  N   LIG    1       -4.828   3.002  -1.086  0.00  0.00    -0.650 N 
ATOM      6  H   LIG    1       -5.460   3.658  -1.419  0.00  0.00    +0.420 HD
ATOM      7  C   LIG    1       -5.290   1.921  -0.328  0.00  0.00    +0.130 A 
ATOM      8  C   LIG    1       -6.639   1.611  -0.283  0.00  0.00    +0.000 A 
ATOM      9  C   LIG    1       -7.075   0.541   0.477  0.00  0.00    +0.030 A 
ATOM     10  C   LIG    1       -6.171  -0.222   1.194  0.00  0.00    +0.010 A 
ATOM     11  C   LIG    1       -4.821   0.080   1.154  0.00  0.00    +0.060 A 
ATOM     12  O   LIG    1       -3.135   4.111  -1.980  0.00  0.00    -0.510 OA
ATOM     13  C   LIG    1       -4.378   1.141   0.391  0.00  0.00    +0.110 A 
ATOM     14  O   LIG    1       -2.619   0.692   2.367  0.00  0.00    -0.490 OA
ENDROOT
BRANCH   1  15
ATOM     15  C   LIG    1       -0.729   1.579   1.267  0.00  0.00    +0.180 C 
ATOM     16  C   LIG    1       -0.010   0.570   0.369  0.00  0.00    +0.030 C 
BRANCH  15  20
ATOM     17  C   LIG    1        1.849   0.930   4.616  0.00  0.00    +0.140 C 
ATOM     18  C   LIG    1        0.507   0.196   4.543  0.00  0.00    +0.070 C 
ATOM     19  C   LIG    1        0.019   0.177   3.093  0.00  0.00    +0.190 C 
ATOM     20  N   LIG    1       -0.130   1.555   2.608  0.00  0.00    -0.520 NA
ATOM     21  C   LIG    1        1.155   2.266   2.624  0.00  0.00    +0.190 C 
ATOM     22  C   LIG    1        1.677   2.346   4.060  0.00  0.00    +0.030 C 
BRANCH  17  23
ATOM     23  O   LIG    1        2.821   0.226   3.840  0.00  0.00    -0.560 OA
ATOM     24  H   LIG    1        3.697   0.636   3.841  0.00  0.00    +0.380 HD
ENDBRANCH  17  23
BRANCH  17  25
ATOM     25  C   LIG    1        2.313   1.005   6.072  0.00  0.00    +0.150 C 
BRANCH  25  27
ATOM     26  C   LIG    1        4.024   1.923   7.476  0.00  0.00    +0.200 C 
ATOM     27  O   LIG    1        3.504   1.790   6.152  0.00  0.00    -0.390 OA
ENDBRANCH  25  27
ENDBRANCH  17  25
ENDBRANCH  15  20
ENDBRANCH   1  15
TORSDOF 5
