REMARK  Name = ZINCrD000000Crjw.0
REMARK                            x       y       z     vdW  Elec       q    Type
REMARK                         _______ _______ _______ _____ _____    ______ ____
ROOT
ATOM      1  O   LIG    1        0.002  -0.004   0.002  0.00  0.00    -0.470 OA
ATOM      2  C   LIG    1       -0.014   1.204   0.009  0.00  0.00    +0.480 C 
ENDROOT
BRANCH   2   3
ATOM      3  C   LIG    1       -1.329   1.940   0.019  0.00  0.00    +0.260 C 
BRANCH   3   4
ATOM      4  C   LIG    1       -1.415   2.798   1.254  0.00  0.00    -0.130 A 
ATOM      5  C   LIG    1       -1.768   2.233   2.466  0.00  0.00    +0.040 A 
ATOM      6  C   LIG    1       -1.842   3.020   3.600  0.00  0.00    +0.010 A 
ATOM      7  C   LIG    1       -1.573   4.373   3.521  0.00  0.00    +0.020 A 
ATOM      8  C   LIG    1       -1.226   4.940   2.309  0.00  0.00    +0.010 A 
ATOM      9  C   LIG    1       -1.147   4.152   1.175  0.00  0.00    +0.030 A 
ENDBRANCH   3   4
BRANCH   3  10
ATOM     10  O   LIG    1       -2.403   0.997   0.019  0.00  0.00    -0.350 OA
BRANCH  10  11
ATOM     11  C   LIG    1       -3.589   1.466  -0.626  0.00  0.00    +0.190 C 
BRANCH  11  12
ATOM     12  C   LIG    1       -4.665   0.380  -0.566  0.00  0.00    -0.010 C 
ATOM     13  C   LIG    1       -4.246  -0.828  -1.429  0.00  0.00    +0.030 C 
ATOM     14  C   LIG    1       -5.571  -1.318  -2.065  0.00  0.00    +0.010 C 
ATOM     15  C   LIG    1       -6.317   0.006  -2.365  0.00  0.00    +0.010 C 
ATOM     16  C   LIG    1       -5.982   0.910  -1.161  0.00  0.00    +0.020 C 
ENDBRANCH  11  12
ENDBRANCH  10  11
ENDBRANCH   3  10
ENDBRANCH   2   3
BRANCH   2  17
ATOM     17  O   LIG    1        1.139   1.891   0.001  0.00  0.00    -0.360 OA
BRANCH  17  18
ATOM     18  C   LIG    1        2.367   1.117  -0.015  0.00  0.00    +0.390 C 
BRANCH  18  19
ATOM     19  C   LIG    1        3.550   2.051  -0.021  0.00  0.00    +0.300 A 
ATOM     20  N   LIG    1        4.796   1.676  -0.035  0.00  0.00    -0.450 NA
ATOM     21  C   LIG    1        5.596   2.770  -0.038  0.00  0.00    -0.050 A 
ATOM     22  C   LIG    1        6.976   2.978  -0.051  0.00  0.00    +0.410 A 
ATOM     23  N   LIG    1        7.429   4.220  -0.049  0.00  0.00    -0.520 NA
ATOM     24  C   LIG    1        6.605   5.252  -0.036  0.00  0.00    +0.530 A 
ATOM     25  N   LIG    1        5.296   5.108  -0.024  0.00  0.00    -0.510 NA
ATOM     26  C   LIG    1        4.752   3.899  -0.023  0.00  0.00    +0.280 A 
ATOM     27  N   LIG    1        3.470   3.411  -0.018  0.00  0.00    -0.560 N 
ATOM     28  H   LIG    1        2.655   3.938  -0.012  0.00  0.00    +0.440 HD
ENDBRANCH  18  19
ENDBRANCH  17  18
ENDBRANCH   2  17
TORSDOF 8
