REMARK  Name = ZINCtj00001yywAH.0
REMARK                            x       y       z     vdW  Elec       q    Type
REMARK                         _______ _______ _______ _____ _____    ______ ____
ROOT
ATOM      1  C   LIG    1        3.534   2.137  -0.020  0.00  0.00    +0.550 A 
ATOM      2  N   LIG    1        2.431   1.406  -0.014  0.00  0.00    -0.500 NA
ATOM      3  C   LIG    1        1.240   1.995   0.001  0.00  0.00    +0.170 A 
ATOM      4  C   LIG    1        1.162   3.393   0.009  0.00  0.00    -0.020 A 
ATOM      5  N   LIG    1       -0.068   4.035   0.023  0.00  0.00    -0.440 N 
ATOM      6  C   LIG    1       -0.073   5.389   0.030  0.00  0.00    +0.570 A 
ATOM      7  C   LIG    1       -1.360   6.101   0.046  0.00  0.00    -0.190 A 
ATOM      8  C   LIG    1       -1.426   7.493   0.054  0.00  0.00    +0.140 A 
ATOM      9  C   LIG    1       -2.657   8.115   0.069  0.00  0.00    +0.010 A 
ATOM     10  C   LIG    1       -3.822   7.365   0.075  0.00  0.00    +0.120 A 
ATOM     11  C   LIG    1       -3.772   5.985   0.068  0.00  0.00    +0.000 A 
ATOM     12  C   LIG    1       -2.543   5.341   0.053  0.00  0.00    +0.190 A 
ATOM     13  N   LIG    1       -2.449   3.962   0.045  0.00  0.00    -0.610 N 
ATOM     14  H   LIG    1       -3.260   3.430   0.050  0.00  0.00    +0.440 HD
ATOM     15  O   LIG    1        0.973   6.009   0.025  0.00  0.00    -0.460 OA
ATOM     16  C   LIG    1       -1.235   3.332   0.030  0.00  0.00    +0.520 A 
ATOM     17  C   LIG    1       -1.237   1.930   0.018  0.00  0.00    -0.270 A 
ATOM     18  C   LIG    1        2.353   4.121   0.001  0.00  0.00    +0.430 A 
ATOM     19  C   LIG    1       -0.015   1.215   0.009  0.00  0.00    +0.460 A 
ATOM     20  O   LIG    1        0.002  -0.004   0.002  0.00  0.00    -0.430 OA
ATOM     21  N   LIG    1        3.499   3.464  -0.013  0.00  0.00    -0.530 NA
ENDROOT
BRANCH   1  22
ATOM     22  N   LIG    1        4.763   1.498  -0.035  0.00  0.00    -0.700 N 
ATOM     23  H   LIG    1        4.806   0.529  -0.040  0.00  0.00    +0.420 HD
BRANCH  22  24
ATOM     24  C   LIG    1        5.998   2.286  -0.042  0.00  0.00    +0.300 C 
BRANCH  24  25
ATOM     25  C   LIG    1        7.204   1.344  -0.058  0.00  0.00    +0.030 C 
BRANCH  25  26
ATOM     26  C   LIG    1        8.494   2.167  -0.066  0.00  0.00    +0.270 C 
BRANCH  26  28
ATOM     27  C   LIG    1       10.885   2.050  -0.210  0.00  0.00    +0.320 C 
ATOM     28  N   LIG    1        9.651   1.263  -0.082  0.00  0.00    -0.390 N 
ATOM     29  C   LIG    1        9.689   0.494   1.169  0.00  0.00    +0.320 C 
ATOM     30  H   LIG    1        9.573   0.630  -0.864  0.00  0.00    +0.430 HD
ENDBRANCH  26  28
ENDBRANCH  25  26
ENDBRANCH  24  25
ENDBRANCH  22  24
ENDBRANCH   1  22
BRANCH  17  31
ATOM     31  C   LIG    1       -2.479   1.218   0.020  0.00  0.00    +0.270 C 
ATOM     32  N   LIG    1       -3.465   0.653   0.021  0.00  0.00    -0.400 NA
ENDBRANCH  17  31
TORSDOF 6
