REMARK  Name = ZINCpe000000ZaeN.0
REMARK                            x       y       z     vdW  Elec       q    Type
REMARK                         _______ _______ _______ _____ _____    ______ ____
ROOT
ATOM      1  C   LIG    1       -3.599   1.698   0.131  0.00  0.00    +0.510 C 
ATOM      2  N   LIG    1       -2.426   1.042   0.020  0.00  0.00    -0.650 N 
ATOM      3  H   LIG    1       -2.417   0.076  -0.063  0.00  0.00    +0.420 HD
ATOM      4  O   LIG    1       -3.617   2.912   0.137  0.00  0.00    -0.490 OA
ENDROOT
BRANCH   2   5
ATOM      5  C   LIG    1       -1.224   1.754   0.023  0.00  0.00    +0.150 A 
ATOM      6  C   LIG    1       -1.104   2.914   0.779  0.00  0.00    +0.020 A 
ATOM      7  C   LIG    1        0.087   3.612   0.785  0.00  0.00    +0.060 A 
ATOM      8  C   LIG    1        1.158   3.162   0.035  0.00  0.00    -0.130 A 
ATOM      9  C   LIG    1        1.040   2.011  -0.724  0.00  0.00    +0.050 A 
ATOM     10  C   LIG    1       -0.148   1.308  -0.734  0.00  0.00    -0.010 A 
BRANCH   8  11
ATOM     11  C   LIG    1        2.457   3.926   0.043  0.00  0.00    +0.390 C 
BRANCH  11  12
ATOM     12  N   LIG    1        3.313   3.422   1.120  0.00  0.00    -0.630 N 
ATOM     13  C   LIG    1        4.289   2.328   0.996  0.00  0.00    +0.240 C 
ATOM     14  C   LIG    1        4.898   2.219   2.407  0.00  0.00    +0.260 C 
ATOM     15  O   LIG    1        4.209   3.251   3.170  0.00  0.00    -0.330 OA
ATOM     16  C   LIG    1        3.339   3.886   2.377  0.00  0.00    +0.640 C 
ATOM     17  O   LIG    1        2.635   4.798   2.762  0.00  0.00    -0.520 OA
ENDBRANCH  11  12
ENDBRANCH   8  11
ENDBRANCH   2   5
BRANCH   1  19
ATOM     18  O   LIG    1       -4.857  -0.282   0.239  0.00  0.00    -0.520 OA
ATOM     19  C   LIG    1       -4.875   0.932   0.245  0.00  0.00    +0.510 C 
ATOM     20  N   LIG    1       -6.047   1.588   0.356  0.00  0.00    -0.690 N 
ATOM     21  H   LIG    1       -6.062   2.558   0.361  0.00  0.00    +0.420 HD
BRANCH  20  22
ATOM     22  C   LIG    1       -7.300   0.836   0.469  0.00  0.00    +0.300 C 
BRANCH  22  23
ATOM     23  C   LIG    1       -8.472   1.812   0.581  0.00  0.00    +0.140 C 
ATOM     24  C   LIG    1       -9.790   1.044   0.827  0.00  0.00    +0.010 C 
ATOM     25  C   LIG    1      -10.841   1.833   0.015  0.00  0.00    +0.000 C 
ATOM     26  C   LIG    1      -10.035   2.985  -0.625  0.00  0.00    +0.190 C 
ATOM     27  O   LIG    1       -8.675   2.501  -0.672  0.00  0.00    -0.370 OA
ENDBRANCH  22  23
ENDBRANCH  20  22
ENDBRANCH   1  19
TORSDOF 6
