REMARK  Name = ZINCrH000004myr3.0
REMARK                            x       y       z     vdW  Elec       q    Type
REMARK                         _______ _______ _______ _____ _____    ______ ____
ROOT
ATOM      1  C   LIG    1        3.340   3.248   1.307  0.00  0.00    +0.040 C 
ATOM      2  C   LIG    1        3.216   1.728   1.429  0.00  0.00    +0.020 C 
ATOM      3  C   LIG    1        2.423   1.187   0.235  0.00  0.00    +0.280 C 
ATOM      4  N   LIG    1        1.137   1.893   0.162  0.00  0.00    -0.610 N 
ATOM      5  C   LIG    1        1.139   3.362   0.126  0.00  0.00    +0.260 C 
ATOM      6  C   LIG    1       -0.022   1.206   0.122  0.00  0.00    +0.510 C 
ATOM      7  O   LIG    1       -0.010  -0.006   0.147  0.00  0.00    -0.500 OA
ATOM      8  C   LIG    1        1.945   3.879   1.327  0.00  0.00    +0.020 C 
ENDROOT
BRANCH   1  12
ATOM      9  C   LIG    1        5.632   4.758   4.582  0.00  0.00    +0.120 A 
ATOM     10  C   LIG    1        6.068   4.955   3.280  0.00  0.00    -0.020 A 
ATOM     11  C   LIG    1        5.325   4.465   2.223  0.00  0.00    +0.060 A 
ATOM     12  C   LIG    1        4.148   3.781   2.462  0.00  0.00    -0.120 A 
ATOM     13  C   LIG    1        3.708   3.588   3.759  0.00  0.00    +0.050 A 
ATOM     14  C   LIG    1        4.451   4.070   4.819  0.00  0.00    -0.080 A 
BRANCH   9  16
ATOM     15  C   LIG    1        5.851   4.998   6.938  0.00  0.00    +0.250 C 
ATOM     16  O   LIG    1        6.360   5.238   5.624  0.00  0.00    -0.320 OA
ENDBRANCH   9  16
ENDBRANCH   1  12
BRANCH   6  17
ATOM     17  C   LIG    1       -1.333   1.945   0.042  0.00  0.00    +0.070 C 
BRANCH  17  18
ATOM     18  C   LIG    1       -2.477   0.940  -0.107  0.00  0.00    +0.290 C 
BRANCH  18  19
ATOM     19  N   LIG    1       -2.588   0.142   1.117  0.00  0.00    -0.380 N 
ATOM     20  C   LIG    1       -3.269   0.486   2.230  0.00  0.00    +0.210 A 
ATOM     21  C   LIG    1       -3.125  -0.515   3.128  0.00  0.00    -0.110 A 
ATOM     22  C   LIG    1       -2.328  -1.506   2.544  0.00  0.00    +0.230 A 
ATOM     23  N   LIG    1       -2.010  -1.115   1.336  0.00  0.00    -0.240 NA
ENDBRANCH  18  19
BRANCH  18  24
ATOM     24  C   LIG    1       -3.788   1.691  -0.347  0.00  0.00    +0.450 C 
ATOM     25  F   LIG    1       -3.979   2.632   0.671  0.00  0.00    -0.170 F 
ATOM     26  F   LIG    1       -4.852   0.782  -0.348  0.00  0.00    -0.170 F 
ATOM     27  F   LIG    1       -3.732   2.345  -1.582  0.00  0.00    -0.160 F 
ENDBRANCH  18  24
ENDBRANCH  17  18
ENDBRANCH   6  17
TORSDOF 6
