REMARK  Name = ZINCrD000000Aozx.0
REMARK                            x       y       z     vdW  Elec       q    Type
REMARK                         _______ _______ _______ _____ _____    ______ ____
ROOT
ATOM      1  N   LIG    1       -1.014  -2.220   0.001  0.00  0.00    -0.710 N 
ATOM      2  H   LIG    1       -0.123  -2.603  -0.011  0.00  0.00    +0.420 HD
ATOM      3  C   LIG    1       -1.173  -0.882   0.009  0.00  0.00    +0.610 C 
ATOM      4  O   LIG    1       -2.291  -0.402   0.023  0.00  0.00    -0.510 OA
ENDROOT
BRANCH   3   5
ATOM      5  C   LIG    1        0.002  -0.004   0.002  0.00  0.00    -0.080 A 
ATOM      6  C   LIG    1       -0.016   1.361   0.009  0.00  0.00    -0.080 A 
ATOM      7  C   LIG    1        1.322   1.783  -0.001  0.00  0.00    -0.040 A 
ATOM      8  C   LIG    1        2.090   0.671  -0.014  0.00  0.00    +0.220 A 
ATOM      9  O   LIG    1        1.290  -0.404  -0.012  0.00  0.00    -0.160 OA
BRANCH   6  10
ATOM     10  C   LIG    1       -1.238   2.244   0.020  0.00  0.00    +0.310 C 
BRANCH  10  11
ATOM     11  O   LIG    1       -0.834   3.615   0.026  0.00  0.00    -0.310 OA
BRANCH  11  12
ATOM     12  C   LIG    1       -1.822   4.549   0.036  0.00  0.00    +0.130 A 
ATOM     13  C   LIG    1       -3.152   4.154   0.035  0.00  0.00    -0.080 A 
ATOM     14  C   LIG    1       -4.153   5.105   0.050  0.00  0.00    +0.050 A 
ATOM     15  C   LIG    1       -3.832   6.449   0.056  0.00  0.00    -0.040 A 
ATOM     16  C   LIG    1       -2.507   6.846   0.052  0.00  0.00    +0.050 A 
ATOM     17  C   LIG    1       -1.502   5.899   0.042  0.00  0.00    -0.020 A 
ENDBRANCH  11  12
ENDBRANCH  10  11
ENDBRANCH   6  10
ENDBRANCH   3   5
BRANCH   1  18
ATOM     18  C   LIG    1       -2.188  -3.097   0.008  0.00  0.00    +0.370 C 
BRANCH  18  20
ATOM     19  O   LIG    1       -0.561  -4.802  -0.018  0.00  0.00    -0.500 OA
ATOM     20  C   LIG    1       -1.740  -4.536  -0.005  0.00  0.00    +0.460 C 
BRANCH  20  21
ATOM     21  O   LIG    1       -2.650  -5.522  -0.001  0.00  0.00    -0.340 OA
BRANCH  21  22
ATOM     22  C   LIG    1       -2.146  -6.884  -0.013  0.00  0.00    +0.270 C 
BRANCH  22  23
ATOM     23  C   LIG    1       -3.305  -7.848  -0.006  0.00  0.00    -0.100 A 
ATOM     24  C   LIG    1       -3.820  -8.301   1.194  0.00  0.00    +0.040 A 
ATOM     25  C   LIG    1       -4.886  -9.182   1.200  0.00  0.00    +0.010 A 
ATOM     26  C   LIG    1       -5.429  -9.617   0.006  0.00  0.00    +0.020 A 
ATOM     27  C   LIG    1       -4.910  -9.168  -1.194  0.00  0.00    +0.010 A 
ATOM     28  C   LIG    1       -3.848  -8.284  -1.200  0.00  0.00    +0.040 A 
ENDBRANCH  22  23
ENDBRANCH  21  22
ENDBRANCH  20  21
ENDBRANCH  18  20
ENDBRANCH   1  18
TORSDOF 9
