REMARK  Name = ZINCvU0000000H5o.0
REMARK                            x       y       z     vdW  Elec       q    Type
REMARK                         _______ _______ _______ _____ _____    ______ ____
ROOT
ATOM      1  N   LIG    1        6.332   2.635  -0.044  0.00  0.00    -0.630 N 
ATOM      2  H   LIG    1        6.171   3.592  -0.038  0.00  0.00    +0.420 HD
ATOM      3  C   LIG    1        5.293   1.777  -0.039  0.00  0.00    +0.530 C 
ATOM      4  O   LIG    1        5.494   0.581  -0.047  0.00  0.00    -0.480 OA
ENDROOT
BRANCH   1   6
ATOM      5  C   LIG    1        8.751   2.932  -0.071  0.00  0.00    -0.190 A 
ATOM      6  C   LIG    1        7.631   2.151  -0.059  0.00  0.00    +0.040 A 
ATOM      7  S   LIG    1        8.048   0.502  -0.073  0.00  0.00    +0.310 S 
ATOM      8  C   LIG    1        9.772   0.850  -0.088  0.00  0.00    -0.240 A 
ATOM      9  C   LIG    1       10.852  -0.211  -0.117  0.00  0.00    +0.120 C 
ATOM     10  C   LIG    1       11.922   0.102   0.927  0.00  0.00    +0.020 C 
ATOM     11  C   LIG    1       13.003   0.974   0.293  0.00  0.00    +0.000 C 
ATOM     12  C   LIG    1       12.378   1.897  -0.751  0.00  0.00    +0.030 C 
ATOM     13  C   LIG    1       11.363   2.816  -0.078  0.00  0.00    +0.090 C 
ATOM     14  C   LIG    1        9.989   2.168  -0.079  0.00  0.00    -0.040 A 
BRANCH   5  15
ATOM     15  C   LIG    1        8.710   4.396  -0.073  0.00  0.00    +0.540 C 
ATOM     16  O   LIG    1        8.704   5.006   0.980  0.00  0.00    -0.490 OA
BRANCH  15  17
ATOM     17  O   LIG    1        8.680   5.069  -1.241  0.00  0.00    -0.350 OA
BRANCH  17  19
ATOM     18  C   LIG    1        8.610   7.101  -2.581  0.00  0.00    +0.070 C 
ATOM     19  C   LIG    1        8.640   6.518  -1.167  0.00  0.00    +0.200 C 
ENDBRANCH  17  19
ENDBRANCH  15  17
ENDBRANCH   5  15
ENDBRANCH   1   6
BRANCH   3  20
ATOM     20  C   LIG    1        3.881   2.304  -0.023  0.00  0.00    +0.120 C 
BRANCH  20  21
ATOM     21  S   LIG    1        2.719   0.916  -0.019  0.00  0.00    +0.030 S 
BRANCH  21  22
ATOM     22  C   LIG    1        1.192   1.795   0.000  0.00  0.00    +0.140 A 
ATOM     23  N   LIG    1        1.208   3.113   0.007  0.00  0.00    -0.490 NA
ATOM     24  C   LIG    1        0.072   3.820   0.021  0.00  0.00    +0.150 A 
ATOM     25  C   LIG    1        0.096   5.225   0.027  0.00  0.00    +0.030 A 
ATOM     26  C   LIG    1       -1.075   5.921   0.040  0.00  0.00    +0.040 A 
ATOM     27  C   LIG    1       -2.301   5.261   0.049  0.00  0.00    +0.010 A 
ATOM     28  C   LIG    1       -2.363   3.900   0.043  0.00  0.00    +0.040 A 
ATOM     29  C   LIG    1       -1.176   3.152   0.029  0.00  0.00    -0.110 A 
ATOM     30  C   LIG    1       -1.200   1.742   0.017  0.00  0.00    -0.000 A 
ATOM     31  C   LIG    1       -2.507   0.991   0.019  0.00  0.00    +0.120 C 
ATOM     32  C   LIG    1       -0.013   1.076   0.008  0.00  0.00    -0.020 A 
ENDBRANCH  21  22
ENDBRANCH  20  21
ENDBRANCH   3  20
TORSDOF 7
