REMARK  Name = ZINCrH000004uP8v.0
REMARK                            x       y       z     vdW  Elec       q    Type
REMARK                         _______ _______ _______ _____ _____    ______ ____
ROOT
ATOM      1  O   LIG    1       -5.476  -3.042   0.041  0.00  0.00    -0.520 OA
ATOM      2  C   LIG    1       -5.061  -1.898   0.043  0.00  0.00    +0.590 C 
ATOM      3  N   LIG    1       -5.928  -0.866   0.057  0.00  0.00    -0.720 N 
ATOM      4  H   LIG    1       -5.598   0.046   0.058  0.00  0.00    +0.400 HD
ENDROOT
BRANCH   3   5
ATOM      5  C   LIG    1       -7.370  -1.123   0.070  0.00  0.00    +0.260 C 
ATOM      6  C   LIG    1       -8.109   0.079  -0.526  0.00  0.00    +0.020 C 
ATOM      7  C   LIG    1       -9.618  -0.171  -0.454  0.00  0.00    +0.050 C 
ATOM      8  C   LIG    1      -10.020  -0.415   1.003  0.00  0.00    +0.200 C 
ATOM      9  N   LIG    1       -9.287  -1.574   1.527  0.00  0.00    -0.470 N 
ATOM     10  C   LIG    1       -7.838  -1.338   1.511  0.00  0.00    +0.190 C 
BRANCH   9  11
ATOM     11  C   LIG    1       -9.722  -1.902   2.800  0.00  0.00    +0.490 A 
ATOM     12  N   LIG    1      -10.166  -3.128   3.035  0.00  0.00    -0.490 NA
ATOM     13  C   LIG    1      -10.584  -3.475   4.241  0.00  0.00    +0.330 A 
ATOM     14  C   LIG    1      -10.564  -2.536   5.261  0.00  0.00    -0.080 A 
ATOM     15  C   LIG    1      -10.098  -1.262   4.978  0.00  0.00    +0.330 A 
ATOM     16  N   LIG    1       -9.690  -0.981   3.752  0.00  0.00    -0.540 NA
ENDBRANCH   9  11
ENDBRANCH   3   5
BRANCH   2  17
ATOM     17  C   LIG    1       -3.619  -1.641   0.029  0.00  0.00    -0.260 A 
ATOM     18  C   LIG    1       -2.648  -2.603   0.014  0.00  0.00    +0.110 A 
ATOM     19  C   LIG    1       -1.367  -2.124   0.004  0.00  0.00    +0.010 A 
ATOM     20  C   LIG    1       -1.266  -0.763   0.011  0.00  0.00    -0.120 A 
ATOM     21  S   LIG    1       -2.873  -0.049   0.038  0.00  0.00    +0.170 S 
BRANCH  20  22
ATOM     22  C   LIG    1        0.002  -0.004   0.002  0.00  0.00    -0.040 A 
ATOM     23  C   LIG    1       -0.017   1.392   0.010  0.00  0.00    +0.050 A 
ATOM     24  C   LIG    1        1.169   2.095   0.002  0.00  0.00    -0.010 A 
ATOM     25  C   LIG    1        2.379   1.419  -0.013  0.00  0.00    +0.110 A 
ATOM     26  C   LIG    1        2.404   0.033  -0.021  0.00  0.00    -0.010 A 
ATOM     27  F   LIG    1        3.538   2.112  -0.019  0.00  0.00    -0.130 F 
ATOM     28  C   LIG    1        1.223  -0.680  -0.013  0.00  0.00    +0.070 A 
ENDBRANCH  20  22
ENDBRANCH   2  17
TORSDOF 4
