REMARK  Name = ZINCpk00000eb5Pb.0
REMARK                            x       y       z     vdW  Elec       q    Type
REMARK                         _______ _______ _______ _____ _____    ______ ____
ROOT
ATOM      1  C   LIG    1        3.187   2.103  -1.198  0.00  0.00    +0.160 C 
ATOM      2  C   LIG    1        4.615   1.559  -1.287  0.00  0.00    +0.170 C 
ATOM      3  N   LIG    1        5.325   2.240  -2.379  0.00  0.00    -0.520 NA
ATOM      4  C   LIG    1        5.353   3.693  -2.157  0.00  0.00    +0.150 C 
ATOM      5  C   LIG    1        3.917   4.216  -2.058  0.00  0.00    +0.230 C 
ATOM      6  O   LIG    1        3.233   3.521  -1.013  0.00  0.00    -0.360 OA
ENDROOT
BRANCH   1   7
ATOM      7  C   LIG    1        2.467   1.456  -0.013  0.00  0.00    +0.340 C 
BRANCH   7  11
ATOM      8  C   LIG    1       -2.544   1.378   0.021  0.00  0.00    +0.110 C 
ATOM      9  C   LIG    1       -1.116   1.859   0.017  0.00  0.00    -0.240 A 
ATOM     10  C   LIG    1       -0.013   1.076   0.008  0.00  0.00    +0.210 A 
ATOM     11  N   LIG    1        1.067   1.886   0.002  0.00  0.00    -0.370 N 
ATOM     12  N   LIG    1        0.611   3.211   0.013  0.00  0.00    -0.260 NA
ATOM     13  C   LIG    1       -0.697   3.193   0.025  0.00  0.00    +0.220 A 
ENDBRANCH   7  11
ENDBRANCH   1   7
BRANCH   3  14
ATOM     14  C   LIG    1        6.685   1.706  -2.536  0.00  0.00    +0.220 C 
BRANCH  14  15
ATOM     15  C   LIG    1        7.293   2.245  -3.806  0.00  0.00    +0.520 C 
ATOM     16  N   LIG    1        8.544   1.888  -4.158  0.00  0.00    -0.620 N 
ATOM     17  C   LIG    1        9.313   0.977  -3.307  0.00  0.00    +0.280 C 
ATOM     18  O   LIG    1        6.656   3.000  -4.510  0.00  0.00    -0.510 OA
BRANCH  16  19
ATOM     19  C   LIG    1        9.135   2.412  -5.392  0.00  0.00    +0.410 C 
BRANCH  19  20
ATOM     20  C   LIG    1        9.857   3.701  -5.095  0.00  0.00    -0.040 A 
ATOM     21  C   LIG    1       11.147   3.815  -4.734  0.00  0.00    -0.040 A 
ATOM     22  C   LIG    1       11.404   5.195  -4.560  0.00  0.00    -0.070 A 
ATOM     23  C   LIG    1       10.252   5.841  -4.818  0.00  0.00    -0.010 A 
ATOM     24  C   LIG    1       10.045   7.332  -4.754  0.00  0.00    +0.180 C 
ATOM     25  O   LIG    1        9.319   4.931  -5.141  0.00  0.00    -0.160 OA
ENDBRANCH  19  20
ENDBRANCH  16  19
ENDBRANCH  14  15
ENDBRANCH   3  14
TORSDOF 6
