REMARK  Name = ZINCpk00001AZiRn.0
REMARK                            x       y       z     vdW  Elec       q    Type
REMARK                         _______ _______ _______ _____ _____    ______ ____
ROOT
ATOM      1  C   LIG    1       -1.263   7.799   0.041  0.00  0.00    +0.260 C 
ENDROOT
BRANCH   1   3
ATOM      2  C   LIG    1       -0.071   5.674   0.008  0.00  0.00    +0.560 C 
ATOM      3  N   LIG    1       -1.246   6.334   0.028  0.00  0.00    -0.720 N 
ATOM      4  H   LIG    1       -2.080   5.840   0.033  0.00  0.00    +0.400 HD
ATOM      5  O   LIG    1        0.975   6.295   0.001  0.00  0.00    -0.520 OA
BRANCH   2   9
ATOM      6  C   LIG    1       -0.018   1.423  -0.030  0.00  0.00    +0.010 A 
ATOM      7  C   LIG    1        1.182   2.137  -0.038  0.00  0.00    +0.080 A 
ATOM      8  C   LIG    1        1.164   3.514  -0.026  0.00  0.00    +0.080 A 
ATOM      9  C   LIG    1       -0.054   4.198  -0.005  0.00  0.00    -0.100 A 
ATOM     10  C   LIG    1       -1.256   3.485   0.004  0.00  0.00    +0.020 A 
ATOM     11  C   LIG    1       -1.239   2.107  -0.015  0.00  0.00    +0.110 A 
ATOM     12  F   LIG    1       -2.401   1.417  -0.012  0.00  0.00    -0.130 F 
BRANCH   6  14
ATOM     13  C   LIG    1        0.016  -1.183  -0.053  0.00  0.00    +0.100 C 
ATOM     14  C   LIG    1        0.000  -0.009  -0.042  0.00  0.00    -0.170 C 
ENDBRANCH   6  14
ENDBRANCH   2   9
ENDBRANCH   1   3
BRANCH   1  15
ATOM     15  C   LIG    1       -2.711   8.292   0.062  0.00  0.00    +0.010 C 
BRANCH  15  16
ATOM     16  C   LIG    1       -2.729   9.822   0.076  0.00  0.00    +0.130 C 
ATOM     17  C   LIG    1       -4.178  10.316   0.096  0.00  0.00    +0.050 C 
ATOM     18  C   LIG    1       -4.196  11.845   0.141  0.00  0.00    +0.030 C 
ATOM     19  C   LIG    1       -3.513  12.399  -1.113  0.00  0.00    +0.260 C 
ATOM     20  N   LIG    1       -2.169  11.815  -1.216  0.00  0.00    -0.600 N 
ATOM     21  C   LIG    1       -1.085  12.605  -1.342  0.00  0.00    +0.550 C 
ATOM     22  O   LIG    1        0.029  12.116  -1.331  0.00  0.00    -0.540 OA
ATOM     23  C   LIG    1       -2.030  10.353  -1.180  0.00  0.00    +0.260 C 
BRANCH  21  24
ATOM     24  C   LIG    1       -1.248  14.059  -1.494  0.00  0.00    -0.090 C 
ATOM     25  C   LIG    1       -0.186  14.828  -1.717  0.00  0.00    +0.140 C 
ENDBRANCH  21  24
BRANCH  16  26
ATOM     26  O   LIG    1       -2.047  10.297   1.238  0.00  0.00    -0.550 OA
ATOM     27  H   LIG    1       -1.122  10.022   1.291  0.00  0.00    +0.380 HD
ENDBRANCH  16  26
ENDBRANCH  15  16
ENDBRANCH   1  15
TORSDOF 7
