REMARK  Name = ZINCpk00000eaQqG.0
REMARK                            x       y       z     vdW  Elec       q    Type
REMARK                         _______ _______ _______ _____ _____    ______ ____
ROOT
ATOM      1  C   LIG    1       -3.137   0.106  -4.874  0.00  0.00    +0.520 C 
ATOM      2  N   LIG    1       -3.976  -0.615  -5.644  0.00  0.00    -0.620 N 
ATOM      3  C   LIG    1       -4.979  -1.505  -5.039  0.00  0.00    +0.300 C 
ATOM      4  C   LIG    1       -6.348  -1.180  -5.657  0.00  0.00    +0.200 C 
ATOM      5  N   LIG    1       -6.250  -1.260  -7.120  0.00  0.00    -0.490 N 
ATOM      6  C   LIG    1       -5.317  -0.254  -7.647  0.00  0.00    +0.190 C 
ATOM      7  C   LIG    1       -3.910  -0.537  -7.111  0.00  0.00    +0.310 C 
ATOM      8  O   LIG    1       -2.313   0.831  -5.390  0.00  0.00    -0.510 OA
ENDROOT
BRANCH   5   9
ATOM      9  C   LIG    1       -7.508  -1.135  -7.714  0.00  0.00    +0.170 A 
ATOM     10  C   LIG    1       -7.735  -0.146  -8.664  0.00  0.00    -0.020 A 
ATOM     11  C   LIG    1       -8.979  -0.029  -9.252  0.00  0.00    +0.140 A 
ATOM     12  C   LIG    1      -10.001  -0.887  -8.889  0.00  0.00    -0.070 A 
ATOM     13  C   LIG    1       -9.780  -1.869  -7.941  0.00  0.00    +0.130 A 
ATOM     14  C   LIG    1       -8.537  -1.995  -7.352  0.00  0.00    +0.010 A 
BRANCH  12  15
ATOM     15  N   LIG    1      -11.334  -0.754  -9.518  0.00  0.00    +0.030 N 
ATOM     16  O   LIG    1      -11.530   0.110 -10.354  0.00  0.00    -0.160 OA
ATOM     17  O   LIG    1      -12.236  -1.509  -9.199  0.00  0.00    -0.160 OA
ENDBRANCH  12  15
ENDBRANCH   5   9
BRANCH   1  18
ATOM     18  C   LIG    1       -3.223   0.011  -3.372  0.00  0.00    +0.250 C 
BRANCH  18  19
ATOM     19  O   LIG    1       -2.221   0.875  -2.775  0.00  0.00    -0.330 OA
BRANCH  19  20
ATOM     20  C   LIG    1       -2.164   0.907  -1.434  0.00  0.00    +0.500 C 
ATOM     21  O   LIG    1       -2.926   0.233  -0.781  0.00  0.00    -0.500 OA
BRANCH  20  25
ATOM     22  C   LIG    1       -2.152   0.877   1.500  0.00  0.00    +0.070 C 
ATOM     23  C   LIG    1       -1.136   1.773   0.788  0.00  0.00    +0.010 C 
ATOM     24  C   LIG    1       -0.013   1.086   0.008  0.00  0.00    +0.070 C 
ATOM     25  C   LIG    1       -1.150   1.781  -0.743  0.00  0.00    -0.030 C 
ENDBRANCH  20  25
ENDBRANCH  19  20
ENDBRANCH  18  19
ENDBRANCH   1  18
TORSDOF 6
