REMARK  Name = ZINCrH000004o5XK.0
REMARK                            x       y       z     vdW  Elec       q    Type
REMARK                         _______ _______ _______ _____ _____    ______ ____
ROOT
ATOM      1  N   LIG    1       -0.020   1.094   2.454  0.00  0.00    -0.720 N 
ATOM      2  H   LIG    1       -0.308   0.277   2.890  0.00  0.00    +0.400 HD
ATOM      3  C   LIG    1        1.032   1.782   2.939  0.00  0.00    +0.500 C 
ATOM      4  O   LIG    1        1.392   2.804   2.393  0.00  0.00    -0.520 OA
ENDROOT
BRANCH   1   6
ATOM      5  C   LIG    1       -0.013   1.086   0.008  0.00  0.00    +0.030 C 
ATOM      6  C   LIG    1       -0.729   1.579   1.267  0.00  0.00    +0.230 C 
BRANCH   6   7
ATOM      7  C   LIG    1       -2.164   1.050   1.278  0.00  0.00    +0.030 C 
BRANCH   7   8
ATOM      8  C   LIG    1       -2.918   1.643   2.470  0.00  0.00    +0.060 C 
BRANCH   8   9
ATOM      9  C   LIG    1       -4.332   1.121   2.481  0.00  0.00    -0.080 A 
ATOM     10  C   LIG    1       -5.327   1.809   1.812  0.00  0.00    +0.000 A 
ATOM     11  C   LIG    1       -6.623   1.328   1.817  0.00  0.00    +0.000 A 
ATOM     12  C   LIG    1       -6.925   0.165   2.501  0.00  0.00    +0.000 A 
ATOM     13  C   LIG    1       -5.931  -0.520   3.174  0.00  0.00    +0.000 A 
ATOM     14  C   LIG    1       -4.634  -0.042   3.164  0.00  0.00    +0.000 A 
ENDBRANCH   8   9
ENDBRANCH   7   8
ENDBRANCH   6   7
ENDBRANCH   1   6
BRANCH   3  15
ATOM     15  C   LIG    1        1.761   1.283   4.160  0.00  0.00    +0.350 C 
BRANCH  15  16
ATOM     16  N   LIG    1        2.856   2.200   4.483  0.00  0.00    -0.560 N 
ATOM     17  C   LIG    1        4.110   2.086   4.008  0.00  0.00    +0.590 C 
ATOM     18  C   LIG    1        4.923   3.192   4.555  0.00  0.00    -0.120 A 
ATOM     19  C   LIG    1        6.246   3.579   4.419  0.00  0.00    +0.140 A 
ATOM     20  C   LIG    1        6.709   4.699   5.094  0.00  0.00    -0.010 A 
ATOM     21  C   LIG    1        5.856   5.432   5.902  0.00  0.00    -0.010 A 
ATOM     22  C   LIG    1        4.529   5.056   6.047  0.00  0.00    +0.140 A 
ATOM     23 CL   LIG    1        6.452   6.831   6.740  0.00  0.00    -0.020 Cl
ATOM     24 CL   LIG    1        8.367   5.185   4.925  0.00  0.00    -0.020 Cl
ATOM     25  C   LIG    1        4.055   3.939   5.378  0.00  0.00    -0.120 A 
ATOM     26  O   LIG    1        4.506   1.220   3.255  0.00  0.00    -0.450 OA
ATOM     27  C   LIG    1        2.743   3.264   5.299  0.00  0.00    +0.590 C 
ATOM     28  O   LIG    1        1.731   3.611   5.875  0.00  0.00    -0.450 OA
ENDBRANCH  15  16
ENDBRANCH   3  15
TORSDOF 6
