REMARK  Name = ZINCpk00000ebb3B.0
REMARK                            x       y       z     vdW  Elec       q    Type
REMARK                         _______ _______ _______ _____ _____    ______ ____
ROOT
ATOM      1  C   LIG    1        7.690  -0.958   0.195  0.00  0.00    +0.180 C 
ATOM      2  C   LIG    1        8.570   0.264   0.148  0.00  0.00    +0.140 A 
ATOM      3  N   LIG    1        9.851   0.274  -0.099  0.00  0.00    -0.260 NA
ATOM      4  N   LIG    1       10.321   1.592  -0.057  0.00  0.00    -0.370 N 
ATOM      5  C   LIG    1        9.276   2.409   0.227  0.00  0.00    +0.350 A 
ATOM      6  N   LIG    1        9.161   3.763   0.385  0.00  0.00    -0.610 N 
ATOM      7  H   LIG    1        9.950   4.319   0.289  0.00  0.00    +0.420 HD
ATOM      8  C   LIG    1        7.983   4.341   0.671  0.00  0.00    +0.560 A 
ATOM      9  O   LIG    1        7.930   5.553   0.803  0.00  0.00    -0.520 OA
ATOM     10  C   LIG    1        6.807   3.584   0.817  0.00  0.00    +0.000 A 
ATOM     11  C   LIG    1        6.858   2.209   0.674  0.00  0.00    +0.130 A 
ATOM     12  C   LIG    1       11.705   2.016  -0.281  0.00  0.00    +0.360 C 
ATOM     13  C   LIG    1        8.152   1.593   0.362  0.00  0.00    -0.260 A 
ENDROOT
BRANCH  11  14
ATOM     14  C   LIG    1        5.640   1.384   0.827  0.00  0.00    +0.210 A 
ATOM     15  N   LIG    1        4.463   1.794   1.256  0.00  0.00    -0.450 NA
ATOM     16  C   LIG    1        3.668   0.704   1.227  0.00  0.00    +0.270 A 
ATOM     17  N   LIG    1        4.393  -0.296   0.794  0.00  0.00    -0.380 NA
ATOM     18  O   LIG    1        5.523   0.075   0.555  0.00  0.00    +0.100 OA
BRANCH  16  19
ATOM     19  C   LIG    1        2.238   0.648   1.620  0.00  0.00    -0.180 A 
ATOM     20  C   LIG    1        1.436  -0.456   1.589  0.00  0.00    +0.300 A 
ATOM     21  N   LIG    1        0.216  -0.085   2.022  0.00  0.00    -0.370 N 
ATOM     22  N   LIG    1        0.256   1.280   2.329  0.00  0.00    -0.290 NA
ATOM     23  C   LIG    1        1.461   1.724   2.091  0.00  0.00    +0.300 A 
BRANCH  21  24
ATOM     24  C   LIG    1       -0.953  -0.960   2.148  0.00  0.00    +0.310 C 
BRANCH  24  25
ATOM     25  C   LIG    1       -1.494  -0.885   3.578  0.00  0.00    +0.220 C 
ATOM     26  F   LIG    1       -2.609  -1.720   3.699  0.00  0.00    -0.200 F 
ENDBRANCH  24  25
ENDBRANCH  21  24
ENDBRANCH  16  19
ENDBRANCH  11  14
TORSDOF 4
