REMARK  Name = ZINCrD000000CxtT.0
REMARK                            x       y       z     vdW  Elec       q    Type
REMARK                         _______ _______ _______ _____ _____    ______ ____
ROOT
ATOM      1  O   LIG    1        2.723  -1.528  -0.588  0.00  0.00    -0.520 OA
ATOM      2  C   LIG    1        1.528  -1.427  -0.385  0.00  0.00    +0.600 C 
ATOM      3  N   LIG    1        0.801  -2.522  -0.086  0.00  0.00    -0.610 N 
ATOM      4  C   LIG    1       -0.657  -2.431   0.074  0.00  0.00    +0.260 C 
ATOM      5  C   LIG    1       -1.319  -3.462  -0.845  0.00  0.00    +0.030 C 
ATOM      6  C   LIG    1       -0.740  -4.848  -0.552  0.00  0.00    +0.000 C 
ATOM      7  C   LIG    1        0.764  -4.844  -0.835  0.00  0.00    +0.030 C 
ATOM      8  C   LIG    1        1.450  -3.830   0.079  0.00  0.00    +0.290 C 
ENDROOT
BRANCH   7   9
ATOM      9  C   LIG    1        1.328  -6.218  -0.577  0.00  0.00    -0.080 A 
ATOM     10  C   LIG    1        1.457  -7.118  -1.618  0.00  0.00    +0.010 A 
ATOM     11  C   LIG    1        1.979  -8.377  -1.382  0.00  0.00    +0.000 A 
ATOM     12  C   LIG    1        2.362  -8.738  -0.104  0.00  0.00    +0.000 A 
ATOM     13  C   LIG    1        2.228  -7.838   0.938  0.00  0.00    +0.000 A 
ATOM     14  C   LIG    1        1.711  -6.579   0.701  0.00  0.00    +0.000 A 
ENDBRANCH   7   9
BRANCH   2  15
ATOM     15  C   LIG    1        0.876  -0.109  -0.465  0.00  0.00    -0.270 A 
ATOM     16  C   LIG    1       -0.256   0.211  -1.186  0.00  0.00    +0.290 A 
ATOM     17  N   LIG    1       -0.515   1.512  -0.989  0.00  0.00    -0.460 N 
ATOM     18  H   LIG    1       -1.256   2.000  -1.383  0.00  0.00    +0.450 HD
ATOM     19  N   LIG    1        0.446   2.060  -0.135  0.00  0.00    -0.270 NA
ATOM     20  C   LIG    1        1.302   1.123   0.206  0.00  0.00    +0.170 A 
BRANCH  20  21
ATOM     21  C   LIG    1        2.475   1.282   1.099  0.00  0.00    -0.020 A 
ATOM     22  C   LIG    1        2.853   0.244   1.948  0.00  0.00    +0.040 A 
ATOM     23  C   LIG    1        3.950   0.395   2.772  0.00  0.00    +0.010 A 
ATOM     24  C   LIG    1        4.665   1.579   2.766  0.00  0.00    +0.020 A 
ATOM     25  C   LIG    1        4.290   2.615   1.929  0.00  0.00    +0.010 A 
ATOM     26  C   LIG    1        3.199   2.473   1.096  0.00  0.00    +0.040 A 
ENDBRANCH  20  21
ENDBRANCH   2  15
BRANCH   6  27
ATOM     27  C   LIG    1       -0.981  -5.201   0.917  0.00  0.00    +0.170 C 
BRANCH  27  28
ATOM     28  O   LIG    1       -2.386  -5.238   1.173  0.00  0.00    -0.570 OA
ATOM     29  H   LIG    1       -2.614  -5.456   2.087  0.00  0.00    +0.380 HD
ENDBRANCH  27  28
ENDBRANCH   6  27
TORSDOF 5
