REMARK  Name = ZINC9p0000001xm6.0
REMARK                            x       y       z     vdW  Elec       q    Type
REMARK                         _______ _______ _______ _____ _____    ______ ____
ROOT
ATOM      1  N   LIG    1       -0.012   1.005   0.008  0.00  0.00    -0.500 N 
ATOM      2  H   LIG    1        0.935   1.354   0.000  0.00  0.00    +0.430 HD
ATOM      3  H   LIG    1        0.002  -0.004   0.002  0.00  0.00    +0.430 HD
ENDROOT
BRANCH   1   4
ATOM      4  C   LIG    1       -0.699   1.479   1.216  0.00  0.00    +0.160 C 
ATOM      5  C   LIG    1       -0.573   3.012   1.329  0.00  0.00    +0.050 C 
ATOM      6  C   LIG    1       -0.408   3.268   2.848  0.00  0.00    +0.040 C 
ATOM      7  C   LIG    1        0.481   2.083   3.301  0.00  0.00    +0.040 C 
ATOM      8  C   LIG    1       -0.029   0.888   2.469  0.00  0.00    +0.040 C 
ENDBRANCH   1   4
BRANCH   1  10
ATOM      9  C   LIG    1        0.062   1.104  -2.438  0.00  0.00    +0.090 C 
ATOM     10  C   LIG    1       -0.722   1.492  -1.183  0.00  0.00    +0.160 C 
ATOM     11  C   LIG    1       -2.116   0.863  -1.237  0.00  0.00    +0.090 C 
ENDBRANCH   1  10
TORSDOF 2
