REMARK  Name = ZINCpk00000ebCwe.0
REMARK                            x       y       z     vdW  Elec       q    Type
REMARK                         _______ _______ _______ _____ _____    ______ ____
ROOT
ATOM      1  O   LIG    1        5.992  -1.952  -0.768  0.00  0.00    -0.520 OA
ATOM      2  C   LIG    1        5.292  -1.570  -1.682  0.00  0.00    +0.510 C 
ATOM      3  N   LIG    1        4.131  -0.937  -1.422  0.00  0.00    -0.720 N 
ATOM      4  H   LIG    1        3.571  -0.632  -2.153  0.00  0.00    +0.400 HD
ENDROOT
BRANCH   2   5
ATOM      5  C   LIG    1        5.720  -1.804  -3.108  0.00  0.00    +0.120 C 
ATOM      6  C   LIG    1        5.167  -3.145  -3.634  0.00  0.00    +0.080 C 
ATOM      7  C   LIG    1        6.252  -3.688  -4.544  0.00  0.00    -0.100 A 
ATOM      8  C   LIG    1        6.196  -4.672  -5.516  0.00  0.00    +0.020 A 
ATOM      9  C   LIG    1        7.328  -5.004  -6.236  0.00  0.00    +0.010 A 
ATOM     10  C   LIG    1        8.520  -4.352  -5.984  0.00  0.00    +0.020 A 
ATOM     11  C   LIG    1        8.578  -3.369  -5.015  0.00  0.00    +0.020 A 
ATOM     12  C   LIG    1        7.444  -3.036  -4.293  0.00  0.00    -0.090 A 
ATOM     13  C   LIG    1        7.247  -2.013  -3.195  0.00  0.00    +0.140 C 
BRANCH   5  14
ATOM     14  O   LIG    1        5.307  -0.721  -3.944  0.00  0.00    -0.530 OA
ATOM     15  H   LIG    1        4.351  -0.576  -3.956  0.00  0.00    +0.380 HD
ENDBRANCH   5  14
ENDBRANCH   2   5
BRANCH   3  16
ATOM     16  C   LIG    1        3.715  -0.710  -0.036  0.00  0.00    +0.340 C 
BRANCH  16  17
ATOM     17  C   LIG    1        2.391   0.011  -0.020  0.00  0.00    -0.040 A 
ATOM     18  C   LIG    1        1.198  -0.696  -0.013  0.00  0.00    -0.020 A 
ATOM     19  C   LIG    1        0.002  -0.004   0.002  0.00  0.00    +0.310 A 
ATOM     20  N   LIG    1       -0.016   1.315   0.009  0.00  0.00    -0.490 NA
ATOM     21  C   LIG    1        1.101   2.024   0.002  0.00  0.00    +0.350 A 
ATOM     22  C   LIG    1        2.339   1.395  -0.013  0.00  0.00    -0.010 A 
BRANCH  21  23
ATOM     23  N   LIG    1        1.034   3.421   0.011  0.00  0.00    -0.410 N 
ATOM     24  C   LIG    1       -0.102   4.183   0.116  0.00  0.00    +0.150 A 
ATOM     25  C   LIG    1        0.288   5.471   0.085  0.00  0.00    +0.150 A 
ATOM     26  N   LIG    1        1.623   5.502  -0.045  0.00  0.00    -0.470 NA
ATOM     27  C   LIG    1        2.082   4.281  -0.090  0.00  0.00    +0.400 A 
ENDBRANCH  21  23
ENDBRANCH  16  17
ENDBRANCH   3  16
TORSDOF 5
