REMARK  Name = ZINCvU0000000BSd.0
REMARK                            x       y       z     vdW  Elec       q    Type
REMARK                         _______ _______ _______ _____ _____    ______ ____
ROOT
ATOM      1  C   LIG    1       -1.255   5.907  -0.094  0.00  0.00    +0.370 A 
ATOM      2  N   LIG    1       -1.356   7.213  -0.053  0.00  0.00    -0.530 NA
ATOM      3  C   LIG    1       -0.263   8.004   0.059  0.00  0.00    +0.180 A 
ATOM      4  C   LIG    1       -0.369   9.396   0.102  0.00  0.00    +0.040 A 
ATOM      5  C   LIG    1        0.772  10.161   0.216  0.00  0.00    +0.010 A 
ATOM      6  C   LIG    1        2.025   9.564   0.286  0.00  0.00    +0.020 A 
ATOM      7  C   LIG    1        2.154   8.203   0.246  0.00  0.00    +0.130 A 
ATOM      8 CL   LIG    1        0.642  11.891   0.270  0.00  0.00    -0.050 Cl
ATOM      9  C   LIG    1        1.017   7.405   0.131  0.00  0.00    -0.200 A 
ATOM     10  C   LIG    1        1.100   5.940   0.088  0.00  0.00    +0.560 A 
ATOM     11  O   LIG    1        2.173   5.367   0.151  0.00  0.00    -0.490 OA
ATOM     12  N   LIG    1       -0.058   5.249  -0.029  0.00  0.00    -0.480 N 
ENDROOT
BRANCH  12  13
ATOM     13  C   LIG    1       -0.030   3.850  -0.079  0.00  0.00    +0.090 A 
ATOM     14  C   LIG    1        0.505   3.203  -1.185  0.00  0.00    +0.050 A 
ATOM     15  C   LIG    1        0.531   1.823  -1.231  0.00  0.00    +0.020 A 
ATOM     16  C   LIG    1        0.026   1.085  -0.177  0.00  0.00    +0.030 A 
ATOM     17  C   LIG    1       -0.513   1.726   0.924  0.00  0.00    +0.030 A 
ATOM     18  C   LIG    1       -0.537   3.106   0.978  0.00  0.00    +0.040 A 
ENDBRANCH  12  13
BRANCH   1  19
ATOM     19  S   LIG    1       -2.730   4.954  -0.240  0.00  0.00    +0.090 S 
BRANCH  19  21
ATOM     20  C   LIG    1       -3.957   7.022   1.058  0.00  0.00    +0.090 C 
ATOM     21  C   LIG    1       -3.959   6.283  -0.282  0.00  0.00    +0.010 C 
BRANCH  21  22
ATOM     22  C   LIG    1       -5.325   5.696  -0.530  0.00  0.00    +0.540 C 
ATOM     23  N   LIG    1       -6.290   6.450  -1.092  0.00  0.00    -0.570 N 
ATOM     24  C   LIG    1       -5.980   7.798  -1.572  0.00  0.00    +0.300 C 
ATOM     25  O   LIG    1       -5.555   4.545  -0.224  0.00  0.00    -0.510 OA
BRANCH  23  26
ATOM     26  C   LIG    1       -7.589   5.944  -1.216  0.00  0.00    +0.140 A 
ATOM     27  C   LIG    1       -8.123   5.698  -2.474  0.00  0.00    +0.000 A 
ATOM     28  C   LIG    1       -9.403   5.195  -2.594  0.00  0.00    +0.020 A 
ATOM     29  C   LIG    1      -10.158   4.946  -1.462  0.00  0.00    +0.010 A 
ATOM     30  C   LIG    1       -9.632   5.195  -0.207  0.00  0.00    +0.020 A 
ATOM     31  C   LIG    1       -8.350   5.693  -0.081  0.00  0.00    +0.010 A 
ENDBRANCH  23  26
ENDBRANCH  21  22
ENDBRANCH  19  21
ENDBRANCH   1  19
TORSDOF 5
