REMARK  Name = ZINCvU0000000Ivr.0
REMARK                            x       y       z     vdW  Elec       q    Type
REMARK                         _______ _______ _______ _____ _____    ______ ____
ROOT
ATOM      1  C   LIG    1       -4.320   2.987   1.297  0.00  0.00    -0.210 A 
ATOM      2  C   LIG    1       -3.976   3.574   2.464  0.00  0.00    +0.250 A 
ATOM      3  N   LIG    1       -5.040   3.483   3.305  0.00  0.00    -0.310 N 
ATOM      4  N   LIG    1       -6.068   2.810   2.632  0.00  0.00    -0.260 NA
ATOM      5  C   LIG    1       -5.639   2.510   1.423  0.00  0.00    +0.140 A 
ENDROOT
BRANCH   1  12
ATOM      6  C   LIG    1       -1.615   6.271  -0.070  0.00  0.00    +0.120 C 
ATOM      7  C   LIG    1       -2.734   5.262  -0.035  0.00  0.00    +0.550 C 
ATOM      8  N   LIG    1       -2.452   3.946   0.036  0.00  0.00    -0.460 N 
ATOM      9  N   LIG    1       -1.174   3.392   0.083  0.00  0.00    -0.220 NA
ATOM     10  C   LIG    1       -1.162   2.103   0.149  0.00  0.00    +0.180 C 
ATOM     11  C   LIG    1       -2.582   1.584   0.148  0.00  0.00    +0.090 C 
ATOM     12  C   LIG    1       -3.444   2.860   0.077  0.00  0.00    +0.300 C 
ATOM     13  O   LIG    1       -3.888   5.635  -0.070  0.00  0.00    -0.510 OA
BRANCH  10  14
ATOM     14  C   LIG    1        0.043   1.270   0.209  0.00  0.00    +0.020 A 
ATOM     15  C   LIG    1        1.331   1.722   0.200  0.00  0.00    +0.020 A 
ATOM     16  C   LIG    1        2.159   0.586   0.266  0.00  0.00    -0.060 A 
ATOM     17  C   LIG    1        1.349  -0.492   0.312  0.00  0.00    +0.200 A 
ATOM     18  O   LIG    1        0.073  -0.076   0.277  0.00  0.00    -0.160 OA
ENDBRANCH  10  14
ENDBRANCH   1  12
BRANCH   5  19
ATOM     19  C   LIG    1       -6.411   1.794   0.378  0.00  0.00    -0.010 A 
ATOM     20  C   LIG    1       -7.755   2.099   0.169  0.00  0.00    +0.070 A 
ATOM     21  C   LIG    1       -8.467   1.435  -0.809  0.00  0.00    +0.030 A 
ATOM     22  C   LIG    1       -7.851   0.458  -1.574  0.00  0.00    -0.030 A 
ATOM     23  C   LIG    1       -6.519   0.147  -1.366  0.00  0.00    +0.030 A 
ATOM     24 CL   LIG    1       -8.754  -0.378  -2.798  0.00  0.00    -0.060 Cl
ATOM     25  C   LIG    1       -5.796   0.810  -0.395  0.00  0.00    +0.050 A 
ENDBRANCH   5  19
BRANCH   3  26
ATOM     26  C   LIG    1       -5.096   3.971   4.617  0.00  0.00    +0.160 A 
ATOM     27  C   LIG    1       -3.997   4.617   5.167  0.00  0.00    -0.010 A 
ATOM     28  C   LIG    1       -4.058   5.102   6.458  0.00  0.00    +0.040 A 
ATOM     29  C   LIG    1       -5.208   4.935   7.208  0.00  0.00    +0.000 A 
ATOM     30  C   LIG    1       -6.302   4.287   6.665  0.00  0.00    +0.040 A 
ATOM     31  C   LIG    1       -6.250   3.805   5.372  0.00  0.00    +0.020 A 
ENDBRANCH   3  26
TORSDOF 4
