REMARK  Name = ZINCbw0000000Hlr.0
REMARK                            x       y       z     vdW  Elec       q    Type
REMARK                         _______ _______ _______ _____ _____    ______ ____
ROOT
ATOM      1  C   LIG    1        0.092   1.528  -0.061  0.00  0.00    +0.090 C 
ATOM      2  C   LIG    1       -0.668   1.783   1.215  0.00  0.00    -0.070 A 
ATOM      3  C   LIG    1       -2.013   2.100   1.167  0.00  0.00    +0.010 A 
ATOM      4  C   LIG    1       -2.711   2.329   2.338  0.00  0.00    +0.010 A 
ATOM      5  C   LIG    1       -2.062   2.253   3.556  0.00  0.00    +0.000 A 
ATOM      6  C   LIG    1       -0.716   1.942   3.603  0.00  0.00    +0.020 A 
ATOM      7  C   LIG    1       -0.019   1.707   2.433  0.00  0.00    -0.090 A 
ENDROOT
BRANCH   7   8
ATOM      8  C   LIG    1        1.449   1.368   2.485  0.00  0.00    +0.170 C 
ATOM      9  C   LIG    1        2.231   2.569   3.020  0.00  0.00    +0.080 C 
BRANCH   8  10
ATOM     10  C   LIG    1        1.654   0.213   3.374  0.00  0.00    +0.210 C 
ATOM     11  N   LIG    1        1.813  -0.678   4.060  0.00  0.00    -0.430 NA
ENDBRANCH   8  10
ENDBRANCH   7   8
TORSDOF 2
