REMARK  Name = ZINCbw0000000HlR.1
REMARK                            x       y       z     vdW  Elec       q    Type
REMARK                         _______ _______ _______ _____ _____    ______ ____
ROOT
ATOM      1  C   LIG    1       -4.814   2.352   0.036  0.00  0.00    +0.190 C 
ATOM      2  C   LIG    1       -3.308   2.401   0.029  0.00  0.00    +0.300 A 
ATOM      3  N   LIG    1       -2.529   1.359   0.021  0.00  0.00    -0.490 NA
ATOM      4  C   LIG    1       -1.231   1.759   0.017  0.00  0.00    +0.060 A 
ATOM      5  C   LIG    1       -0.013   1.076   0.008  0.00  0.00    +0.080 A 
ATOM      6  C   LIG    1        1.161   1.776   0.001  0.00  0.00    +0.040 A 
ATOM      7  C   LIG    1        1.157   3.164   0.008  0.00  0.00    -0.080 A 
ATOM      8  C   LIG    1       -0.035   3.859   0.023  0.00  0.00    +0.050 A 
ATOM      9 BR   LIG    1        2.795   4.108  -0.004  0.00  0.00    -0.040 Br
ATOM     10  C   LIG    1       -1.236   3.164   0.031  0.00  0.00    +0.050 A 
ATOM     11  N   LIG    1       -2.565   3.540   0.046  0.00  0.00    -0.600 N 
ATOM     12  H   LIG    1       -2.905   4.449   0.054  0.00  0.00    +0.430 HD
ENDROOT
TORSDOF 0
