REMARK  Name = ZINCvU0000000HhG.0
REMARK                            x       y       z     vdW  Elec       q    Type
REMARK                         _______ _______ _______ _____ _____    ______ ____
ROOT
ATOM      1  C   LIG    1       -8.851   1.191   0.457  0.00  0.00    +0.090 C 
ATOM      2  C   LIG    1       -7.427   1.678   0.383  0.00  0.00    -0.120 A 
ATOM      3  C   LIG    1       -6.388   0.769   0.360  0.00  0.00    +0.050 A 
ATOM      4  C   LIG    1       -5.081   1.211   0.287  0.00  0.00    +0.010 A 
ATOM      5  C   LIG    1       -4.808   2.572   0.245  0.00  0.00    +0.160 A 
ATOM      6  C   LIG    1       -5.850   3.489   0.267  0.00  0.00    +0.010 A 
ATOM      7  C   LIG    1       -7.161   3.041   0.336  0.00  0.00    +0.160 A 
ENDROOT
BRANCH   5   8
ATOM      8  N   LIG    1       -3.484   3.019   0.176  0.00  0.00    -0.670 N 
ATOM      9  H   LIG    1       -3.235   3.863   0.584  0.00  0.00    +0.400 HD
ATOM     10  C   LIG    1       -2.555   2.277  -0.458  0.00  0.00    +0.600 C 
ATOM     11  O   LIG    1       -2.889   1.289  -1.088  0.00  0.00    -0.490 OA
BRANCH  10  12
ATOM     12  C   LIG    1       -1.190   2.645  -0.392  0.00  0.00    -0.090 A 
ATOM     13  C   LIG    1       -0.118   1.932  -0.893  0.00  0.00    +0.190 A 
ATOM     14  N   LIG    1        0.987   2.621  -0.632  0.00  0.00    -0.440 NA
ATOM     15  C   LIG    1        0.676   3.730   0.013  0.00  0.00    +0.190 A 
ATOM     16  S   LIG    1        1.349   5.194   0.749  0.00  0.00    +0.220 S 
ATOM     17  C   LIG    1       -0.228   5.820   1.263  0.00  0.00    +0.040 A 
ATOM     18  C   LIG    1       -1.111   4.921   0.861  0.00  0.00    +0.200 A 
ATOM     19 CL   LIG    1       -0.201   0.410  -1.723  0.00  0.00    +0.050 Cl
ATOM     20  N   LIG    1       -0.661   3.806   0.198  0.00  0.00    -0.390 N 
ENDBRANCH  10  12
ENDBRANCH   5   8
BRANCH   7  21
ATOM     21  N   LIG    1       -8.214   3.961   0.357  0.00  0.00    -0.670 N 
ATOM     22  H   LIG    1       -9.061   3.738  -0.060  0.00  0.00    +0.400 HD
ATOM     23  C   LIG    1       -8.052   5.157   0.957  0.00  0.00    +0.600 C 
ATOM     24  O   LIG    1       -6.965   5.469   1.411  0.00  0.00    -0.490 OA
BRANCH  23  25
ATOM     25  C   LIG    1       -9.144   6.051   1.060  0.00  0.00    -0.090 A 
ATOM     26  C   LIG    1       -9.111   7.341   1.551  0.00  0.00    +0.200 A 
ATOM     27  N   LIG    1      -10.340   7.838   1.473  0.00  0.00    -0.440 NA
ATOM     28  C   LIG    1      -11.154   6.931   0.967  0.00  0.00    +0.190 A 
ATOM     29  S   LIG    1      -12.834   6.617   0.499  0.00  0.00    +0.220 S 
ATOM     30  C   LIG    1      -12.511   4.962  -0.047  0.00  0.00    +0.040 A 
ATOM     31  C   LIG    1      -11.217   4.772   0.152  0.00  0.00    +0.200 A 
ATOM     32 CL   LIG    1       -7.711   8.168   2.159  0.00  0.00    +0.050 Cl
ATOM     33  N   LIG    1      -10.476   5.796   0.687  0.00  0.00    -0.390 N 
ENDBRANCH  23  25
ENDBRANCH   7  21
TORSDOF 4
