REMARK  Name = ZINCvU0000000Gfa.0
REMARK                            x       y       z     vdW  Elec       q    Type
REMARK                         _______ _______ _______ _____ _____    ______ ____
ROOT
ATOM      1  C   LIG    1       -5.593   3.795  -0.080  0.00  0.00    +0.340 C 
ENDROOT
BRANCH   1   6
ATOM      2  C   LIG    1      -10.259   4.441   1.421  0.00  0.00    +0.240 C 
ATOM      3  C   LIG    1       -9.224   4.388   0.546  0.00  0.00    -0.240 C 
ATOM      4  S   LIG    1       -9.257   4.687  -1.203  0.00  0.00    +0.010 S 
ATOM      5  C   LIG    1       -7.525   4.392  -1.430  0.00  0.00    +0.510 C 
ATOM      6  N   LIG    1       -7.020   4.094  -0.227  0.00  0.00    -0.570 N 
ATOM      7  O   LIG    1       -6.912   4.450  -2.479  0.00  0.00    -0.430 OA
ATOM      8  C   LIG    1       -7.818   4.066   0.826  0.00  0.00    +0.560 C 
ATOM      9  O   LIG    1       -7.419   3.796   1.944  0.00  0.00    -0.460 OA
BRANCH   2  15
ATOM     10  C   LIG    1      -15.175   4.870   2.126  0.00  0.00    +0.090 C 
ATOM     11  C   LIG    1      -13.937   5.162   1.318  0.00  0.00    -0.090 A 
ATOM     12  C   LIG    1      -14.029   5.915   0.161  0.00  0.00    +0.040 A 
ATOM     13  C   LIG    1      -12.898   6.189  -0.588  0.00  0.00    +0.020 A 
ATOM     14  C   LIG    1      -11.667   5.719  -0.182  0.00  0.00    +0.040 A 
ATOM     15  C   LIG    1      -11.566   4.952   0.984  0.00  0.00    -0.100 A 
ATOM     16  C   LIG    1      -12.714   4.679   1.735  0.00  0.00    +0.050 A 
ENDBRANCH   2  15
ENDBRANCH   1   6
BRANCH   1  17
ATOM     17  C   LIG    1       -4.828   5.089   0.206  0.00  0.00    +0.110 C 
BRANCH  17  18
ATOM     18  C   LIG    1       -3.360   4.782   0.358  0.00  0.00    +0.470 C 
ATOM     19  O   LIG    1       -2.967   3.644   0.248  0.00  0.00    -0.480 OA
BRANCH  18  20
ATOM     20  O   LIG    1       -2.490   5.771   0.614  0.00  0.00    -0.290 OA
BRANCH  20  21
ATOM     21  C   LIG    1       -1.173   5.441   0.648  0.00  0.00    +0.100 A 
ATOM     22  C   LIG    1       -0.566   5.155   1.837  0.00  0.00    +0.040 A 
ATOM     23  C   LIG    1        0.785   4.820   1.890  0.00  0.00    +0.060 A 
ATOM     24  C   LIG    1        1.538   4.757   0.756  0.00  0.00    -0.020 A 
ATOM     25  C   LIG    1        0.948   5.039  -0.490  0.00  0.00    -0.040 A 
ATOM     26  C   LIG    1        1.693   4.983  -1.679  0.00  0.00    +0.040 A 
ATOM     27  C   LIG    1        1.089   5.261  -2.867  0.00  0.00    +0.030 A 
ATOM     28  C   LIG    1       -0.261   5.601  -2.922  0.00  0.00    +0.030 A 
ATOM     29  C   LIG    1       -1.014   5.666  -1.789  0.00  0.00    +0.030 A 
ATOM     30 CL   LIG    1        3.218   4.332   0.848  0.00  0.00    -0.050 Cl
ATOM     31  C   LIG    1       -0.425   5.386  -0.546  0.00  0.00    -0.040 A 
ENDBRANCH  20  21
ENDBRANCH  18  20
ENDBRANCH  17  18
ENDBRANCH   1  17
TORSDOF 6
