REMARK  Name = ZINCrH000004mkIi.0
REMARK                            x       y       z     vdW  Elec       q    Type
REMARK                         _______ _______ _______ _____ _____    ______ ____
ROOT
ATOM      1  C   LIG    1       -0.085  -2.778  -0.006  0.00  0.00    +0.110 A 
ATOM      2  C   LIG    1        1.104  -2.113  -0.244  0.00  0.00    -0.030 A 
ATOM      3  C   LIG    1        1.151  -0.724  -0.237  0.00  0.00    -0.060 A 
ATOM      4  C   LIG    1        0.002  -0.004   0.002  0.00  0.00    -0.100 A 
ATOM      5  C   LIG    1       -0.018   1.504   0.010  0.00  0.00    +0.330 C 
ATOM      6  N   LIG    1        1.356   2.017  -0.000  0.00  0.00    -0.620 N 
ATOM      7  C   LIG    1        2.307   1.381  -0.926  0.00  0.00    +0.290 C 
ATOM      8  C   LIG    1        1.732   3.030   0.806  0.00  0.00    +0.520 C 
ATOM      9  O   LIG    1        2.875   3.435   0.777  0.00  0.00    -0.530 OA
ATOM     10  C   LIG    1       -1.194  -0.667   0.245  0.00  0.00    -0.030 A 
ATOM     11  C   LIG    1        2.486  -0.072  -0.491  0.00  0.00    +0.080 C 
ATOM     12  C   LIG    1       -1.244  -2.049   0.243  0.00  0.00    +0.100 A 
ENDROOT
BRANCH   1  14
ATOM     13  C   LIG    1        1.109  -4.817  -0.277  0.00  0.00    +0.250 C 
ATOM     14  O   LIG    1       -0.120  -4.137  -0.015  0.00  0.00    -0.310 OA
ENDBRANCH   1  14
BRANCH  12  15
ATOM     15  O   LIG    1       -2.418  -2.692   0.482  0.00  0.00    -0.310 OA
ATOM     16  C   LIG    1       -3.566  -1.876   0.729  0.00  0.00    +0.250 C 
ENDBRANCH  12  15
BRANCH   8  17
ATOM     17  C   LIG    1        0.733   3.659   1.742  0.00  0.00    +0.060 C 
BRANCH  17  18
ATOM     18  C   LIG    1        1.412   4.776   2.538  0.00  0.00    +0.060 C 
BRANCH  18  19
ATOM     19  C   LIG    1        0.398   5.414   3.489  0.00  0.00    +0.180 C 
BRANCH  19  20
ATOM     20  O   LIG    1        1.032   6.457   4.231  0.00  0.00    -0.310 OA
BRANCH  20  21
ATOM     21  C   LIG    1        0.265   7.131   5.128  0.00  0.00    +0.130 A 
ATOM     22  C   LIG    1       -1.071   6.795   5.289  0.00  0.00    -0.080 A 
ATOM     23  C   LIG    1       -1.850   7.482   6.201  0.00  0.00    +0.030 A 
ATOM     24  C   LIG    1       -1.298   8.502   6.953  0.00  0.00    -0.030 A 
ATOM     25  C   LIG    1        0.034   8.839   6.793  0.00  0.00    +0.050 A 
ATOM     26  C   LIG    1        0.818   8.152   5.887  0.00  0.00    -0.120 A 
ATOM     27  C   LIG    1        2.271   8.515   5.719  0.00  0.00    +0.100 C 
ENDBRANCH  20  21
ENDBRANCH  19  20
ENDBRANCH  18  19
ENDBRANCH  17  18
ENDBRANCH   8  17
TORSDOF 7
