REMARK  Name = ZINCvU00000007co.0
REMARK                            x       y       z     vdW  Elec       q    Type
REMARK                         _______ _______ _______ _____ _____    ______ ____
ROOT
ATOM      1  C   LIG    1        1.901   1.343  -1.667  0.00  0.00    -0.690 A 
ATOM      2  C   LIG    1        2.452   0.094  -1.889  0.00  0.00    +0.160 A 
ATOM      3  C   LIG    1        2.842  -0.273  -3.162  0.00  0.00    +0.000 A 
ATOM      4  C   LIG    1        2.690   0.617  -4.217  0.00  0.00    +0.210 A 
ATOM      5  C   LIG    1        2.141   1.873  -3.989  0.00  0.00    -0.010 A 
ATOM      6  C   LIG    1        1.748   2.232  -2.715  0.00  0.00    +0.150 A 
ENDROOT
BRANCH   1   8
ATOM      7  O   LIG    1        1.313   3.224  -0.037  0.00  0.00    -0.950 OA
ATOM      8  S   LIG    1        1.398   1.805  -0.042  0.00  0.00    +2.690 S 
ATOM      9  O   LIG    1        2.219   1.072   0.856  0.00  0.00    -0.940 OA
BRANCH   8  10
ATOM     10  N   LIG    1       -0.146   1.244   0.171  0.00  0.00    -1.060 N 
ATOM     11  H   LIG    1       -0.878   1.870   0.285  0.00  0.00    +0.430 HD
BRANCH  10  12
ATOM     12  C   LIG    1       -0.394  -0.131   0.182  0.00  0.00    +0.130 A 
ATOM     13  C   LIG    1       -0.988  -0.740  -0.916  0.00  0.00    +0.030 A 
ATOM     14  C   LIG    1       -1.227  -2.100  -0.904  0.00  0.00    +0.040 A 
ATOM     15  C   LIG    1       -0.886  -2.854   0.203  0.00  0.00    +0.040 A 
ATOM     16  C   LIG    1       -0.299  -2.250   1.302  0.00  0.00    -0.030 A 
ATOM     17 CL   LIG    1        0.128  -3.202   2.689  0.00  0.00    -0.060 Cl
ATOM     18  C   LIG    1       -0.052  -0.891   1.294  0.00  0.00    +0.050 A 
ENDBRANCH  10  12
ENDBRANCH   8  10
ENDBRANCH   1   8
BRANCH   4  19
ATOM     19  N   LIG    1        3.089   0.251  -5.505  0.00  0.00    -1.060 N 
ATOM     20  H   LIG    1        2.505   0.420  -6.260  0.00  0.00    +0.430 HD
BRANCH  19  21
ATOM     21  S   LIG    1        4.561  -0.472  -5.741  0.00  0.00    +2.690 S 
ATOM     22  O   LIG    1        4.716  -0.615  -7.146  0.00  0.00    -0.940 OA
ATOM     23  O   LIG    1        4.620  -1.566  -4.837  0.00  0.00    -0.940 OA
BRANCH  21  24
ATOM     24  C   LIG    1        5.794   0.673  -5.219  0.00  0.00    -0.670 A 
ATOM     25  C   LIG    1        6.232   1.628  -6.084  0.00  0.00    +0.170 A 
ATOM     26  C   LIG    1        7.211   2.546  -5.669  0.00  0.00    -0.080 A 
ATOM     27  C   LIG    1        7.684   3.549  -6.532  0.00  0.00    +0.040 A 
ATOM     28  C   LIG    1        8.638   4.417  -6.097  0.00  0.00    +0.010 A 
ATOM     29  C   LIG    1        9.155   4.327  -4.807  0.00  0.00    +0.040 A 
ATOM     30  C   LIG    1        8.721   3.369  -3.943  0.00  0.00    +0.010 A 
ATOM     31  C   LIG    1        7.737   2.455  -4.356  0.00  0.00    -0.010 A 
ATOM     32  C   LIG    1        7.264   1.452  -3.493  0.00  0.00    +0.030 A 
ATOM     33  C   LIG    1        6.311   0.583  -3.928  0.00  0.00    +0.090 A 
ENDBRANCH  21  24
ENDBRANCH  19  21
ENDBRANCH   4  19
TORSDOF 6
