REMARK  Name = ZINCrH000004jY2m.0
REMARK                            x       y       z     vdW  Elec       q    Type
REMARK                         _______ _______ _______ _____ _____    ______ ____
ROOT
ATOM      1  C   LIG    1        2.425   5.256  -2.296  0.00  0.00    +0.280 C 
ATOM      2  N   LIG    1        2.889   4.098  -1.529  0.00  0.00    -0.610 N 
ATOM      3  C   LIG    1        3.859   3.305  -2.026  0.00  0.00    +0.590 C 
ATOM      4  O   LIG    1        4.167   2.283  -1.444  0.00  0.00    -0.510 OA
ENDROOT
BRANCH   3   5
ATOM      5  C   LIG    1        4.547   3.678  -3.273  0.00  0.00    -0.040 A 
ATOM      6  C   LIG    1        5.445   2.906  -3.985  0.00  0.00    +0.040 A 
ATOM      7  C   LIG    1        5.817   3.693  -5.090  0.00  0.00    +0.060 A 
ATOM      8  N   LIG    1        5.168   4.834  -5.002  0.00  0.00    -0.230 NA
ATOM      9  N   LIG    1        4.417   4.852  -3.960  0.00  0.00    -0.380 N 
ATOM     10  H   LIG    1        3.846   5.591  -3.697  0.00  0.00    +0.450 HD
BRANCH   7  11
ATOM     11  C   LIG    1        6.771   3.307  -6.160  0.00  0.00    -0.000 A 
ATOM     12  C   LIG    1        7.395   2.062  -6.125  0.00  0.00    +0.050 A 
ATOM     13  C   LIG    1        8.277   1.706  -7.126  0.00  0.00    +0.020 A 
ATOM     14  C   LIG    1        8.549   2.587  -8.157  0.00  0.00    +0.030 A 
ATOM     15  C   LIG    1        7.937   3.826  -8.195  0.00  0.00    +0.030 A 
ATOM     16  C   LIG    1        7.049   4.191  -7.202  0.00  0.00    -0.020 A 
ATOM     17 CL   LIG    1        6.281   5.747  -7.251  0.00  0.00    -0.040 Cl
ENDBRANCH   7  11
ENDBRANCH   3   5
BRANCH   2  18
ATOM     18  C   LIG    1        2.300   3.801  -0.221  0.00  0.00    +0.350 C 
BRANCH  18  19
ATOM     19  C   LIG    1        1.113   2.889  -0.401  0.00  0.00    -0.110 A 
ATOM     20  C   LIG    1        1.287   1.518  -0.376  0.00  0.00    +0.050 A 
ATOM     21  C   LIG    1        0.202   0.678  -0.542  0.00  0.00    +0.020 A 
ATOM     22  C   LIG    1       -1.064   1.210  -0.740  0.00  0.00    +0.060 A 
ATOM     23  O   LIG    1       -2.123   0.370  -0.904  0.00  0.00    -0.310 OA
ATOM     24  C   LIG    1       -3.426   0.933  -0.720  0.00  0.00    +0.220 C 
ATOM     25  C   LIG    1       -3.484   2.268  -1.475  0.00  0.00    +0.220 C 
ATOM     26  O   LIG    1       -2.475   3.131  -0.939  0.00  0.00    -0.310 OA
ATOM     27  C   LIG    1       -1.240   2.588  -0.757  0.00  0.00    +0.050 A 
ATOM     28  C   LIG    1       -0.147   3.425  -0.590  0.00  0.00    +0.030 A 
ENDBRANCH  18  19
ENDBRANCH   2  18
TORSDOF 4
