REMARK  Name = ZINCrH000004jY2m.1
REMARK                            x       y       z     vdW  Elec       q    Type
REMARK                         _______ _______ _______ _____ _____    ______ ____
ROOT
ATOM      1  C   LIG    1        3.778   3.208  -1.977  0.00  0.00    +0.300 C 
ATOM      2  N   LIG    1        2.886   4.208  -1.385  0.00  0.00    -0.600 N 
ATOM      3  C   LIG    1        2.497   5.277  -2.108  0.00  0.00    +0.600 C 
ATOM      4  O   LIG    1        1.701   6.068  -1.642  0.00  0.00    -0.520 OA
ENDROOT
BRANCH   3   5
ATOM      5  C   LIG    1        3.039   5.487  -3.466  0.00  0.00    -0.010 A 
ATOM      6  N   LIG    1        3.824   4.661  -4.130  0.00  0.00    -0.240 NA
ATOM      7  N   LIG    1        4.109   5.145  -5.285  0.00  0.00    -0.380 N 
ATOM      8  H   LIG    1        4.670   4.712  -5.947  0.00  0.00    +0.450 HD
ATOM      9  C   LIG    1        3.512   6.362  -5.441  0.00  0.00    +0.050 A 
ATOM     10  C   LIG    1        2.817   6.611  -4.291  0.00  0.00    +0.030 A 
BRANCH   9  11
ATOM     11  C   LIG    1        3.601   7.242  -6.627  0.00  0.00    -0.020 A 
ATOM     12  C   LIG    1        4.811   7.386  -7.304  0.00  0.00    +0.030 A 
ATOM     13  C   LIG    1        4.887   8.208  -8.410  0.00  0.00    +0.030 A 
ATOM     14  C   LIG    1        3.766   8.890  -8.847  0.00  0.00    +0.040 A 
ATOM     15  C   LIG    1        2.562   8.752  -8.181  0.00  0.00    +0.030 A 
ATOM     16  C   LIG    1        2.471   7.928  -7.076  0.00  0.00    -0.020 A 
ATOM     17 CL   LIG    1        0.957   7.752  -6.245  0.00  0.00    -0.050 Cl
ENDBRANCH   9  11
ENDBRANCH   3   5
BRANCH   2  18
ATOM     18  C   LIG    1        2.417   4.046  -0.006  0.00  0.00    +0.350 C 
BRANCH  18  19
ATOM     19  C   LIG    1        1.129   3.264  -0.002  0.00  0.00    -0.110 A 
ATOM     20  C   LIG    1        1.160   1.885   0.091  0.00  0.00    +0.030 A 
ATOM     21  C   LIG    1       -0.019   1.164   0.093  0.00  0.00    +0.010 A 
ATOM     22  C   LIG    1       -1.236   1.821  -0.004  0.00  0.00    +0.050 A 
ATOM     23  O   LIG    1       -2.389   1.098  -0.003  0.00  0.00    -0.310 OA
ATOM     24  C   LIG    1       -3.597   1.811   0.281  0.00  0.00    +0.220 C 
ATOM     25  C   LIG    1       -3.598   3.103  -0.546  0.00  0.00    +0.220 C 
ATOM     26  O   LIG    1       -2.451   3.875  -0.175  0.00  0.00    -0.310 OA
ATOM     27  C   LIG    1       -1.267   3.209  -0.090  0.00  0.00    +0.050 A 
ATOM     28  C   LIG    1       -0.081   3.926  -0.092  0.00  0.00    +0.050 A 
ENDBRANCH  18  19
ENDBRANCH   2  18
TORSDOF 4
