REMARK  Name = ZINCrD0000075E8c.0
REMARK                            x       y       z     vdW  Elec       q    Type
REMARK                         _______ _______ _______ _____ _____    ______ ____
ROOT
ATOM      1  C   LIG    1       -2.515   4.291   1.840  0.00  0.00    -0.070 A 
ATOM      2  N   LIG    1       -3.005   3.084   1.955  0.00  0.00    -0.210 NA
ATOM      3  N   LIG    1       -2.321   2.153   1.448  0.00  0.00    -0.250 NA
ATOM      4  C   LIG    1       -1.201   2.469   0.872  0.00  0.00    +0.010 A 
ATOM      5  S   LIG    1       -0.984   4.165   0.972  0.00  0.00    +0.260 S 
ENDROOT
BRANCH   1   7
ATOM      6  O   LIG    1       -2.573   6.599   2.172  0.00  0.00    -0.520 OA
ATOM      7  C   LIG    1       -3.130   5.532   2.343  0.00  0.00    +0.610 C 
ATOM      8  N   LIG    1       -4.310   5.484   2.993  0.00  0.00    -0.700 N 
ATOM      9  H   LIG    1       -4.754   4.632   3.129  0.00  0.00    +0.410 HD
BRANCH   8  10
ATOM     10  C   LIG    1       -4.921   6.717   3.494  0.00  0.00    +0.340 C 
BRANCH  10  11
ATOM     11  C   LIG    1       -6.224   6.391   4.176  0.00  0.00    -0.130 A 
ATOM     12  C   LIG    1       -7.401   6.382   3.450  0.00  0.00    +0.070 A 
ATOM     13  C   LIG    1       -8.596   6.077   4.073  0.00  0.00    -0.020 A 
ATOM     14  C   LIG    1       -8.617   5.792   5.428  0.00  0.00    +0.110 A 
ATOM     15  C   LIG    1       -7.439   5.807   6.155  0.00  0.00    -0.020 A 
ATOM     16  F   LIG    1       -9.785   5.501   6.040  0.00  0.00    -0.140 F 
ATOM     17  C   LIG    1       -6.244   6.106   5.528  0.00  0.00    +0.070 A 
ENDBRANCH  10  11
ENDBRANCH   8  10
ENDBRANCH   1   7
BRANCH   4  18
ATOM     18  C   LIG    1       -0.249   1.502   0.216  0.00  0.00    +0.320 C 
BRANCH  18  19
ATOM     19  N   LIG    1       -0.515   1.456  -1.228  0.00  0.00    -0.510 NA
BRANCH  19  20
ATOM     20  C   LIG    1       -1.768   0.742  -1.510  0.00  0.00    +0.090 C 
ATOM     21  C   LIG    1       -2.651   1.284  -2.635  0.00  0.00    +0.050 C 
ATOM     22  C   LIG    1       -3.079   1.457  -1.175  0.00  0.00    +0.030 C 
ENDBRANCH  19  20
BRANCH  19  23
ATOM     23  C   LIG    1        0.610   0.850  -1.951  0.00  0.00    +0.310 C 
BRANCH  23  24
ATOM     24  C   LIG    1        0.415   1.040  -3.434  0.00  0.00    -0.010 A 
ATOM     25  C   LIG    1        0.851   2.088  -4.156  0.00  0.00    -0.040 A 
ATOM     26  C   LIG    1        0.454   1.856  -5.493  0.00  0.00    -0.070 A 
ATOM     27  C   LIG    1       -0.207   0.684  -5.506  0.00  0.00    +0.160 A 
ATOM     28  O   LIG    1       -0.227   0.195  -4.256  0.00  0.00    -0.170 OA
ENDBRANCH  23  24
ENDBRANCH  19  23
ENDBRANCH  18  19
ENDBRANCH   4  18
TORSDOF 8
