REMARK  Name = ZINCvU0000000HhM.0
REMARK                            x       y       z     vdW  Elec       q    Type
REMARK                         _______ _______ _______ _____ _____    ______ ____
ROOT
ATOM      1  C   LIG    1        3.619   6.656  -0.212  0.00  0.00    +0.300 C 
ENDROOT
BRANCH   1   2
ATOM      2  C   LIG    1        4.350   6.214  -1.453  0.00  0.00    -0.110 A 
ATOM      3  C   LIG    1        3.975   6.708  -2.689  0.00  0.00    +0.030 A 
ATOM      4  C   LIG    1        4.648   6.306  -3.827  0.00  0.00    +0.000 A 
ATOM      5  C   LIG    1        5.691   5.404  -3.731  0.00  0.00    +0.010 A 
ATOM      6  C   LIG    1        6.063   4.906  -2.496  0.00  0.00    +0.010 A 
ATOM      7  C   LIG    1        5.392   5.311  -1.357  0.00  0.00    +0.020 A 
ENDBRANCH   1   2
BRANCH   1  10
ATOM      8  N   LIG    1        2.346   4.546   0.004  0.00  0.00    -0.660 N 
ATOM      9  H   LIG    1        3.193   4.076   0.062  0.00  0.00    +0.410 HD
ATOM     10  C   LIG    1        2.327   5.890  -0.091  0.00  0.00    +0.520 C 
ATOM     11  O   LIG    1        1.269   6.483  -0.078  0.00  0.00    -0.500 OA
BRANCH   8  16
ATOM     12  C   LIG    1       -2.527   1.640   0.058  0.00  0.00    +0.100 C 
ATOM     13  C   LIG    1       -1.232   2.410   0.045  0.00  0.00    -0.090 A 
ATOM     14  C   LIG    1       -1.160   3.649   0.655  0.00  0.00    +0.050 A 
ATOM     15  C   LIG    1        0.024   4.360   0.642  0.00  0.00    +0.040 A 
ATOM     16  C   LIG    1        1.146   3.828   0.019  0.00  0.00    +0.150 A 
ATOM     17  C   LIG    1        1.073   2.581  -0.589  0.00  0.00    +0.010 A 
ATOM     18  C   LIG    1       -0.115   1.874  -0.572  0.00  0.00    -0.020 A 
ATOM     19 CL   LIG    1       -0.207   0.316  -1.331  0.00  0.00    -0.060 Cl
ENDBRANCH   8  16
ENDBRANCH   1  10
BRANCH   1  20
ATOM     20  N   LIG    1        3.330   8.090  -0.299  0.00  0.00    -0.730 N 
ATOM     21  H   LIG    1        2.471   8.392  -0.633  0.00  0.00    +0.410 HD
BRANCH  20  22
ATOM     22  C   LIG    1        4.293   9.021   0.098  0.00  0.00    +0.210 A 
ATOM     23  C   LIG    1        5.524   8.588   0.576  0.00  0.00    -0.050 A 
ATOM     24  C   LIG    1        6.479   9.506   0.970  0.00  0.00    +0.050 A 
ATOM     25  C   LIG    1        6.217  10.859   0.891  0.00  0.00    -0.020 A 
ATOM     26  C   LIG    1        4.984  11.304   0.413  0.00  0.00    -0.090 A 
ATOM     27  C   LIG    1        4.022  10.379   0.010  0.00  0.00    +0.010 A 
BRANCH  26  28
ATOM     28  C   LIG    1        4.700  12.753   0.329  0.00  0.00    +0.560 C 
ATOM     29  N   LIG    1        5.633  13.646   0.714  0.00  0.00    -0.700 N 
ATOM     30  H   LIG    1        6.491  13.338   1.046  0.00  0.00    +0.400 HD
ATOM     31  O   LIG    1        3.625  13.139  -0.087  0.00  0.00    -0.530 OA
BRANCH  29  32
ATOM     32  C   LIG    1        5.352  15.081   0.631  0.00  0.00    +0.220 C 
ATOM     33  C   LIG    1        6.454  15.986   0.076  0.00  0.00    +0.010 C 
ATOM     34  C   LIG    1        6.126  16.008   1.571  0.00  0.00    +0.020 C 
ENDBRANCH  29  32
ENDBRANCH  26  28
ENDBRANCH  20  22
ENDBRANCH   1  20
TORSDOF 7
