REMARK  Name = ZINCpk00000ebcRT.0
REMARK                            x       y       z     vdW  Elec       q    Type
REMARK                         _______ _______ _______ _____ _____    ______ ____
ROOT
ATOM      1  C   LIG    1       -5.786   0.384  -5.353  0.00  0.00    -0.120 A 
ATOM      2  C   LIG    1       -6.589  -0.548  -4.693  0.00  0.00    +0.030 A 
ATOM      3  C   LIG    1       -6.367  -0.829  -3.360  0.00  0.00    +0.040 A 
ATOM      4  C   LIG    1       -5.351  -0.190  -2.674  0.00  0.00    +0.010 A 
ATOM      5  C   LIG    1       -4.546   0.740  -3.322  0.00  0.00    +0.140 A 
ATOM      6  C   LIG    1       -4.764   1.033  -4.659  0.00  0.00    +0.090 A 
ENDROOT
BRANCH   1   9
ATOM      7  N   LIG    1       -7.014   0.063  -7.447  0.00  0.00    -0.730 N 
ATOM      8  H   LIG    1       -7.572  -0.585  -6.990  0.00  0.00    +0.400 HD
ATOM      9  C   LIG    1       -6.022   0.687  -6.781  0.00  0.00    +0.560 C 
ATOM     10  O   LIG    1       -5.322   1.499  -7.353  0.00  0.00    -0.520 OA
BRANCH   7  11
ATOM     11  C   LIG    1       -7.248   0.363  -8.862  0.00  0.00    +0.280 C 
BRANCH  11  12
ATOM     12  C   LIG    1       -8.421  -0.474  -9.374  0.00  0.00    +0.190 C 
BRANCH  12  17
ATOM     13  C   LIG    1       -8.309  -0.499 -14.380  0.00  0.00    +0.200 C 
ATOM     14  C   LIG    1       -8.624  -0.164 -12.945  0.00  0.00    +0.170 A 
ATOM     15  N   LIG    1       -9.432   0.765 -12.531  0.00  0.00    -0.380 NA
ATOM     16  O   LIG    1       -9.469   0.781 -11.319  0.00  0.00    +0.080 OA
ATOM     17  C   LIG    1       -8.662  -0.165 -10.829  0.00  0.00    +0.180 A 
ATOM     18  N   LIG    1       -8.116  -0.770 -11.856  0.00  0.00    -0.470 NA
ENDBRANCH  12  17
ENDBRANCH  11  12
ENDBRANCH   7  11
ENDBRANCH   1   9
BRANCH   5  19
ATOM     19  N   LIG    1       -3.519   1.385  -2.623  0.00  0.00    -0.670 N 
ATOM     20  H   LIG    1       -3.627   1.588  -1.681  0.00  0.00    +0.410 HD
ATOM     21  C   LIG    1       -2.381   1.723  -3.259  0.00  0.00    +0.510 C 
ATOM     22  O   LIG    1       -2.205   1.385  -4.411  0.00  0.00    -0.490 OA
BRANCH  21  23
ATOM     23  C   LIG    1       -1.324   2.522  -2.540  0.00  0.00    +0.160 C 
ATOM     24  C   LIG    1       -1.868   3.923  -2.199  0.00  0.00    +0.020 C 
ATOM     25  C   LIG    1       -0.887   4.892  -2.902  0.00  0.00    +0.010 C 
ATOM     26  C   LIG    1        0.369   4.004  -3.091  0.00  0.00    +0.210 C 
ATOM     27  O   LIG    1       -0.182   2.703  -3.393  0.00  0.00    -0.350 OA
ENDBRANCH  21  23
ENDBRANCH   5  19
TORSDOF 6
