REMARK  Name = ZINCrD000000Bpt6.0
REMARK                            x       y       z     vdW  Elec       q    Type
REMARK                         _______ _______ _______ _____ _____    ______ ____
ROOT
ATOM      1  O   LIG    1        4.636   5.345  -0.739  0.00  0.00    -0.530 OA
ATOM      2  C   LIG    1        3.875   5.062  -1.645  0.00  0.00    +0.590 C 
ATOM      3  N   LIG    1        2.756   4.355  -1.390  0.00  0.00    -0.730 N 
ATOM      4  H   LIG    1        2.150   4.130  -2.112  0.00  0.00    +0.400 HD
ENDROOT
BRANCH   2   5
ATOM      5  C   LIG    1        4.177   5.492  -3.021  0.00  0.00    -0.280 A 
ATOM      6  C   LIG    1        3.421   5.245  -4.148  0.00  0.00    +0.300 A 
ATOM      7  N   LIG    1        4.045   5.810  -5.194  0.00  0.00    -0.460 N 
ATOM      8  H   LIG    1        3.728   5.790  -6.110  0.00  0.00    +0.450 HD
ATOM      9  N   LIG    1        5.223   6.426  -4.762  0.00  0.00    -0.280 NA
ATOM     10  C   LIG    1        5.344   6.261  -3.465  0.00  0.00    +0.180 A 
BRANCH  10  11
ATOM     11  C   LIG    1        6.450   6.758  -2.611  0.00  0.00    -0.040 A 
ATOM     12  C   LIG    1        6.191   7.187  -1.310  0.00  0.00    +0.090 A 
ATOM     13  C   LIG    1        7.225   7.643  -0.519  0.00  0.00    -0.010 A 
ATOM     14  C   LIG    1        8.514   7.686  -1.018  0.00  0.00    +0.020 A 
ATOM     15  C   LIG    1        8.776   7.268  -2.310  0.00  0.00    -0.010 A 
ATOM     16  C   LIG    1        7.751   6.804  -3.108  0.00  0.00    +0.030 A 
ENDBRANCH  10  11
ENDBRANCH   2   5
BRANCH   3  17
ATOM     17  C   LIG    1        2.456   3.928  -0.021  0.00  0.00    +0.330 C 
BRANCH  17  18
ATOM     18  C   LIG    1        1.159   3.160  -0.008  0.00  0.00    -0.130 A 
ATOM     19  C   LIG    1        1.166   1.790  -0.188  0.00  0.00    +0.050 A 
ATOM     20  C   LIG    1       -0.021   1.083  -0.176  0.00  0.00    +0.020 A 
ATOM     21  C   LIG    1       -1.223   1.752   0.012  0.00  0.00    +0.160 A 
ATOM     22  C   LIG    1       -1.227   3.129   0.198  0.00  0.00    -0.020 A 
ATOM     23  C   LIG    1       -0.036   3.829   0.185  0.00  0.00    +0.050 A 
BRANCH  21  24
ATOM     24  N   LIG    1       -2.428   1.041   0.019  0.00  0.00    -0.670 N 
ATOM     25  H   LIG    1       -3.236   1.452  -0.326  0.00  0.00    +0.410 HD
ATOM     26  C   LIG    1       -2.465  -0.216   0.506  0.00  0.00    +0.540 C 
ATOM     27  O   LIG    1       -1.479  -0.695   1.025  0.00  0.00    -0.520 OA
BRANCH  26  28
ATOM     28  C   LIG    1       -3.732  -1.025   0.405  0.00  0.00    -0.070 C 
ATOM     29  C   LIG    1       -4.476  -1.337   1.706  0.00  0.00    +0.060 C 
ATOM     30  C   LIG    1       -3.712  -2.444   0.976  0.00  0.00    +0.080 C 
ENDBRANCH  26  28
ENDBRANCH  21  24
ENDBRANCH  17  18
ENDBRANCH   3  17
TORSDOF 6
