REMARK  Name = ZINCrg00000aibwm.0
REMARK                            x       y       z     vdW  Elec       q    Type
REMARK                         _______ _______ _______ _____ _____    ______ ____
ROOT
ATOM      1  C   LIG    1       -2.317   4.486   0.049  0.00  0.00    +0.580 C 
ATOM      2  N   LIG    1       -1.849   3.233  -0.120  0.00  0.00    -0.590 N 
ATOM      3  C   LIG    1       -1.879   2.268   0.988  0.00  0.00    +0.290 C 
ATOM      4  C   LIG    1       -2.595   0.999   0.516  0.00  0.00    +0.050 C 
ATOM      5  C   LIG    1       -1.917   0.477  -0.753  0.00  0.00    +0.040 C 
ATOM      6  C   LIG    1       -2.024   1.530  -1.859  0.00  0.00    +0.250 C 
ATOM      7  C   LIG    1       -1.302   2.806  -1.415  0.00  0.00    +0.310 C 
ATOM      8  O   LIG    1       -2.228   5.294  -0.855  0.00  0.00    -0.490 OA
ENDROOT
BRANCH   1  13
ATOM      9  C   LIG    1       -4.626   6.061   2.555  0.00  0.00    +0.230 A 
ATOM     10  C   LIG    1       -4.077   5.595   3.732  0.00  0.00    -0.190 A 
ATOM     11  C   LIG    1       -2.945   4.761   3.674  0.00  0.00    +0.510 A 
ATOM     12  O   LIG    1       -2.414   4.424   2.487  0.00  0.00    -0.260 OA
ATOM     13  C   LIG    1       -2.937   4.877   1.332  0.00  0.00    +0.110 A 
ATOM     14  O   LIG    1       -2.446   4.340   4.704  0.00  0.00    -0.470 OA
ATOM     15  C   LIG    1       -4.028   5.683   1.329  0.00  0.00    +0.020 A 
BRANCH   9  16
ATOM     16  O   LIG    1       -5.715   6.864   2.574  0.00  0.00    -0.290 OA
BRANCH  16  18
ATOM     17  C   LIG    1       -7.473   8.104   3.674  0.00  0.00    +0.080 C 
ATOM     18  C   LIG    1       -6.255   7.196   3.854  0.00  0.00    +0.210 C 
ENDBRANCH  16  18
ENDBRANCH   9  16
ENDBRANCH   1  13
BRANCH   6  19
ATOM     19  N   LIG    1       -1.403   1.018  -3.083  0.00  0.00    -0.290 N 
ATOM     20  C   LIG    1       -0.087   1.082  -3.391  0.00  0.00    +0.140 A 
ATOM     21  C   LIG    1        0.045   0.495  -4.604  0.00  0.00    -0.010 A 
ATOM     22  N   LIG    1       -1.181   0.106  -4.973  0.00  0.00    -0.240 NA
ATOM     23  N   LIG    1       -2.016   0.426  -4.048  0.00  0.00    -0.080 NA
BRANCH  21  24
ATOM     24  C   LIG    1        1.321   0.315  -5.384  0.00  0.00    +0.110 C 
BRANCH  24  25
ATOM     25  C   LIG    1        1.504  -1.165  -5.729  0.00  0.00    +0.200 C 
ATOM     26  C   LIG    1        2.859  -1.366  -6.411  0.00  0.00    +0.010 C 
BRANCH  25  27
ATOM     27  O   LIG    1        0.460  -1.581  -6.611  0.00  0.00    -0.550 OA
ATOM     28  H   LIG    1        0.433  -1.095  -7.446  0.00  0.00    +0.370 HD
ENDBRANCH  25  27
ENDBRANCH  24  25
ENDBRANCH  21  24
ENDBRANCH   6  19
TORSDOF 7
