REMARK  Name = ZINCqH0000003PkL.0
REMARK                            x       y       z     vdW  Elec       q    Type
REMARK                         _______ _______ _______ _____ _____    ______ ____
ROOT
ATOM      1  N   LIG    1        3.592   6.042  -0.888  0.00  0.00    -0.720 N 
ATOM      2  H   LIG    1        4.340   5.456  -1.083  0.00  0.00    +0.400 HD
ATOM      3  C   LIG    1        3.536   7.270  -1.440  0.00  0.00    +0.520 C 
ATOM      4  O   LIG    1        2.600   8.002  -1.196  0.00  0.00    -0.520 OA
ENDROOT
BRANCH   1   5
ATOM      5  C   LIG    1        2.524   5.592   0.008  0.00  0.00    +0.290 C 
ATOM      6  C   LIG    1        2.808   6.084   1.429  0.00  0.00    +0.040 C 
BRANCH   5  11
ATOM      7  C   LIG    1        1.185   2.058   0.002  0.00  0.00    +0.140 A 
ATOM      8  C   LIG    1        2.359   1.320  -0.008  0.00  0.00    -0.080 A 
ATOM      9  C   LIG    1        3.580   1.966  -0.022  0.00  0.00    +0.060 A 
ATOM     10  C   LIG    1        3.633   3.348  -0.015  0.00  0.00    -0.030 A 
ATOM     11  C   LIG    1        2.463   4.086   0.000  0.00  0.00    -0.050 A 
ATOM     12  C   LIG    1        1.240   3.445   0.009  0.00  0.00    -0.010 A 
BRANCH   7  13
ATOM     13  O   LIG    1       -0.017   1.425   0.010  0.00  0.00    -0.310 OA
BRANCH  13  15
ATOM     14  C   LIG    1       -1.433  -0.534   0.013  0.00  0.00    +0.070 C 
ATOM     15  C   LIG    1        0.002  -0.004   0.002  0.00  0.00    +0.170 C 
ENDBRANCH  13  15
ENDBRANCH   7  13
ENDBRANCH   5  11
ENDBRANCH   1   5
BRANCH   3  16
ATOM     16  C   LIG    1        4.635   7.733  -2.362  0.00  0.00    +0.080 C 
BRANCH  16  17
ATOM     17  C   LIG    1        4.329   9.151  -2.847  0.00  0.00    +0.080 C 
ATOM     18  S   LIG    1        4.369  10.300  -1.438  0.00  0.00    -0.040 S 
ATOM     19  C   LIG    1        6.103  10.438  -1.135  0.00  0.00    -0.140 A 
ATOM     20  C   LIG    1        6.565  10.683   0.148  0.00  0.00    +0.080 A 
ATOM     21  C   LIG    1        7.923  10.795   0.383  0.00  0.00    +0.000 A 
ATOM     22  C   LIG    1        8.816  10.664  -0.664  0.00  0.00    +0.050 A 
ATOM     23  C   LIG    1        8.362  10.418  -1.945  0.00  0.00    -0.010 A 
ATOM     24  C   LIG    1        6.999  10.299  -2.195  0.00  0.00    +0.160 A 
ATOM     25  N   LIG    1        6.568  10.039  -3.494  0.00  0.00    -0.650 N 
ATOM     26  H   LIG    1        7.201  10.210  -4.208  0.00  0.00    +0.410 HD
ATOM     27  C   LIG    1        5.372   9.579  -3.847  0.00  0.00    +0.530 C 
ATOM     28  O   LIG    1        5.108   9.500  -5.028  0.00  0.00    -0.510 OA
ENDBRANCH  16  17
ENDBRANCH   3  16
TORSDOF 6
