REMARK  Name = ZINCpk00000y0c0c.0
REMARK                            x       y       z     vdW  Elec       q    Type
REMARK                         _______ _______ _______ _____ _____    ______ ____
ROOT
ATOM      1  N   LIG    1        2.195   1.050   1.795  0.00  0.00    -0.570 N 
ATOM      2  C   LIG    1        1.675   1.706   0.587  0.00  0.00    +0.310 C 
ATOM      3  C   LIG    1        0.230   1.248   0.362  0.00  0.00    +0.010 C 
ATOM      4  C   LIG    1        0.185  -0.281   0.317  0.00  0.00    +0.250 C 
ATOM      5  C   LIG    1        0.668  -0.847   1.654  0.00  0.00    +0.010 C 
ATOM      6  C   LIG    1        2.117  -0.413   1.894  0.00  0.00    +0.300 C 
ENDROOT
BRANCH   1  11
ATOM      7  N   LIG    1        3.509   3.933   3.687  0.00  0.00    -0.480 N 
ATOM      8  C   LIG    1        3.836   3.270   4.832  0.00  0.00    +0.160 A 
ATOM      9  C   LIG    1        3.625   1.942   4.948  0.00  0.00    +0.190 A 
ATOM     10  N   LIG    1        3.086   1.229   3.960  0.00  0.00    -0.510 NA
ATOM     11  C   LIG    1        2.750   1.801   2.823  0.00  0.00    +0.350 A 
ATOM     12  C   LIG    1        2.965   3.243   2.659  0.00  0.00    +0.480 A 
ATOM     13  O   LIG    1        2.660   3.806   1.621  0.00  0.00    -0.530 OA
BRANCH   7  15
ATOM     14  C   LIG    1        2.506   6.133   4.056  0.00  0.00    +0.030 C 
ATOM     15  C   LIG    1        3.743   5.375   3.571  0.00  0.00    +0.290 C 
ENDBRANCH   7  15
ENDBRANCH   1  11
BRANCH   4  16
ATOM     16  N   LIG    1       -1.190  -0.722   0.068  0.00  0.00    -0.740 N 
ATOM     17  H   LIG    1       -1.934  -0.150   0.314  0.00  0.00    +0.400 HD
ATOM     18  C   LIG    1       -1.420  -1.921  -0.502  0.00  0.00    +0.710 C 
ATOM     19  N   LIG    1       -2.685  -2.327  -0.731  0.00  0.00    -0.680 N 
ATOM     20  H   LIG    1       -3.427  -1.729  -0.548  0.00  0.00    +0.410 HD
ATOM     21  O   LIG    1       -0.487  -2.638  -0.810  0.00  0.00    -0.570 OA
BRANCH  19  22
ATOM     22  C   LIG    1       -2.929  -3.611  -1.232  0.00  0.00    +0.110 A 
ATOM     23  C   LIG    1       -2.048  -4.194  -2.138  0.00  0.00    +0.070 A 
ATOM     24  C   LIG    1       -2.329  -5.469  -2.603  0.00  0.00    -0.010 A 
ATOM     25  C   LIG    1       -3.472  -6.110  -2.163  0.00  0.00    +0.240 A 
ATOM     26  N   LIG    1       -4.289  -5.528  -1.307  0.00  0.00    -0.470 NA
ATOM     27  C   LIG    1       -4.056  -4.319  -0.837  0.00  0.00    +0.240 A 
ENDBRANCH  19  22
ENDBRANCH   4  16
TORSDOF 4
