REMARK  Name = ZINCpk00000y6xWD.0
REMARK                            x       y       z     vdW  Elec       q    Type
REMARK                         _______ _______ _______ _____ _____    ______ ____
ROOT
ATOM      1  C   LIG    1        1.474   1.887  -0.002  0.00  0.00    +0.210 C 
ATOM      2  C   LIG    1        2.092   0.807  -0.929  0.00  0.00    +0.090 C 
ATOM      3  C   LIG    1        1.274  -0.455  -0.582  0.00  0.00    +0.260 C 
ATOM      4  N   LIG    1        0.002  -0.004   0.002  0.00  0.00    -0.610 N 
ATOM      5  C   LIG    1       -0.983  -0.805   0.455  0.00  0.00    +0.540 C 
ATOM      6  O   LIG    1       -1.993  -0.322   0.918  0.00  0.00    -0.510 OA
ATOM      7  C   LIG    1       -0.018   1.470   0.010  0.00  0.00    +0.260 C 
ENDROOT
BRANCH   1  10
ATOM      8  N   LIG    1        1.583   5.401  -0.924  0.00  0.00    -0.280 N 
ATOM      9  C   LIG    1        1.205   4.430  -0.061  0.00  0.00    +0.160 A 
ATOM     10  C   LIG    1        1.645   3.264  -0.589  0.00  0.00    -0.040 A 
ATOM     11  N   LIG    1        2.267   3.576  -1.732  0.00  0.00    -0.250 NA
ATOM     12  N   LIG    1        2.208   4.849  -1.904  0.00  0.00    -0.080 NA
BRANCH   8  14
ATOM     13  C   LIG    1       -0.067   7.164  -1.317  0.00  0.00    +0.060 C 
ATOM     14  C   LIG    1        1.323   6.835  -0.770  0.00  0.00    +0.250 C 
ATOM     15  C   LIG    1        1.390   7.209   0.712  0.00  0.00    +0.060 C 
ENDBRANCH   8  14
ENDBRANCH   1  10
BRANCH   1  16
ATOM     16  O   LIG    1        2.036   1.818   1.310  0.00  0.00    -0.530 OA
ATOM     17  H   LIG    1        1.613   2.407   1.950  0.00  0.00    +0.380 HD
ENDBRANCH   1  16
BRANCH   5  18
ATOM     18  C   LIG    1       -0.827  -2.303   0.384  0.00  0.00    +0.250 C 
BRANCH  18  19
ATOM     19  O   LIG    1       -1.995  -2.928   0.921  0.00  0.00    -0.290 OA
BRANCH  19  20
ATOM     20  C   LIG    1       -2.017  -4.287   0.932  0.00  0.00    +0.160 A 
ATOM     21  C   LIG    1       -0.940  -5.003   0.431  0.00  0.00    -0.080 A 
ATOM     22  C   LIG    1       -0.961  -6.385   0.448  0.00  0.00    +0.090 A 
ATOM     23  C   LIG    1       -2.060  -7.055   0.952  0.00  0.00    -0.050 A 
ATOM     24  C   LIG    1       -3.139  -6.343   1.448  0.00  0.00    +0.140 A 
ATOM     25  F   LIG    1       -4.213  -6.999   1.940  0.00  0.00    -0.130 F 
ATOM     26  C   LIG    1       -3.119  -4.960   1.438  0.00  0.00    -0.040 A 
ENDBRANCH  19  20
ENDBRANCH  18  19
ENDBRANCH   5  18
TORSDOF 6
