REMARK  Name = ZINCpk00000earPH.0
REMARK                            x       y       z     vdW  Elec       q    Type
REMARK                         _______ _______ _______ _____ _____    ______ ____
ROOT
ATOM      1  C   LIG    1       -1.236  -2.249  -0.111  0.00  0.00    +0.490 C 
ATOM      2  N   LIG    1       -2.392  -2.935  -0.206  0.00  0.00    -0.690 N 
ATOM      3  H   LIG    1       -3.239  -2.462  -0.196  0.00  0.00    +0.420 HD
ATOM      4  O   LIG    1       -0.176  -2.841  -0.124  0.00  0.00    -0.510 OA
ENDROOT
BRANCH   1   5
ATOM      5  C   LIG    1       -1.258  -0.761   0.009  0.00  0.00    +0.390 C 
ATOM      6  O   LIG    1       -2.317  -0.177   0.117  0.00  0.00    -0.390 OA
BRANCH   5  13
ATOM      7  C   LIG    1       -0.018   1.402  -0.013  0.00  0.00    +0.180 A 
ATOM      8  C   LIG    1        1.177   2.105  -0.024  0.00  0.00    -0.050 A 
ATOM      9  C   LIG    1        2.380   1.428  -0.023  0.00  0.00    +0.080 A 
ATOM     10  C   LIG    1        2.406   0.040  -0.013  0.00  0.00    +0.040 A 
ATOM     11  C   LIG    1        1.229  -0.678  -0.002  0.00  0.00    +0.130 A 
ATOM     12  F   LIG    1        3.591  -0.611  -0.013  0.00  0.00    -0.130 F 
ATOM     13  C   LIG    1        0.002  -0.004  -0.002  0.00  0.00    -0.180 A 
BRANCH   7  15
ATOM     14  C   LIG    1       -1.141   3.494  -0.029  0.00  0.00    +0.250 C 
ATOM     15  O   LIG    1       -1.200   2.067  -0.018  0.00  0.00    -0.290 OA
ENDBRANCH   7  15
ENDBRANCH   5  13
ENDBRANCH   1   5
BRANCH   2  16
ATOM     16  C   LIG    1       -2.370  -4.395  -0.325  0.00  0.00    +0.320 C 
BRANCH  16  17
ATOM     17  C   LIG    1       -3.783  -4.913  -0.414  0.00  0.00    +0.510 C 
ATOM     18  N   LIG    1       -4.009  -6.236  -0.530  0.00  0.00    -0.720 N 
ATOM     19  H   LIG    1       -3.263  -6.855  -0.556  0.00  0.00    +0.410 HD
ATOM     20  O   LIG    1       -4.716  -4.138  -0.382  0.00  0.00    -0.530 OA
BRANCH  18  21
ATOM     21  C   LIG    1       -5.382  -6.740  -0.617  0.00  0.00    +0.320 C 
BRANCH  21  22
ATOM     22  C   LIG    1       -5.359  -8.242  -0.739  0.00  0.00    -0.110 A 
ATOM     23  C   LIG    1       -5.315  -8.833  -1.988  0.00  0.00    +0.020 A 
ATOM     24  C   LIG    1       -5.290 -10.210  -2.099  0.00  0.00    +0.010 A 
ATOM     25  C   LIG    1       -5.319 -10.997  -0.963  0.00  0.00    +0.010 A 
ATOM     26  C   LIG    1       -5.369 -10.405   0.286  0.00  0.00    +0.010 A 
ATOM     27  C   LIG    1       -5.389  -9.028   0.398  0.00  0.00    +0.020 A 
ENDBRANCH  21  22
ENDBRANCH  18  21
ENDBRANCH  16  17
ENDBRANCH   2  16
TORSDOF 7
