REMARK  Name = ZINCpk00000KfLIJ.0
REMARK                            x       y       z     vdW  Elec       q    Type
REMARK                         _______ _______ _______ _____ _____    ______ ____
ROOT
ATOM      1  C   LIG    1        1.971   5.795  -1.219  0.00  0.00    +0.200 C 
ENDROOT
BRANCH   1   2
ATOM      2  O   LIG    1        3.096   4.955  -0.954  0.00  0.00    -0.540 OA
ATOM      3  H   LIG    1        3.444   5.034  -0.055  0.00  0.00    +0.370 HD
ENDBRANCH   1   2
BRANCH   1   4
ATOM      4  C   LIG    1        0.832   5.437  -0.262  0.00  0.00    +0.180 C 
BRANCH   4  11
ATOM      5  C   LIG    1       -1.543  -0.543  -2.038  0.00  0.00    +0.200 C 
ATOM      6  C   LIG    1       -1.360   0.421  -0.895  0.00  0.00    +0.180 A 
ATOM      7  N   LIG    1       -1.662   0.206   0.361  0.00  0.00    -0.300 NA
ATOM      8  N   LIG    1       -1.370   1.247   1.064  0.00  0.00    -0.280 NA
ATOM      9  C   LIG    1       -0.871   2.163   0.294  0.00  0.00    +0.170 A 
ATOM     10  C   LIG    1       -0.377   3.542   0.649  0.00  0.00    +0.330 C 
ATOM     11  N   LIG    1        0.430   4.041  -0.479  0.00  0.00    -0.530 NA
ATOM     12  C   LIG    1       -0.286   3.891  -1.754  0.00  0.00    +0.190 C 
ATOM     13  C   LIG    1       -0.368   2.407  -2.133  0.00  0.00    +0.310 C 
ATOM     14  N   LIG    1       -0.854   1.664  -0.970  0.00  0.00    -0.470 N 
ENDBRANCH   4  11
ENDBRANCH   1   4
BRANCH   1  15
ATOM     15  C   LIG    1        2.368   7.258  -1.015  0.00  0.00    +0.280 C 
BRANCH  15  16
ATOM     16  N   LIG    1        3.374   7.635  -2.011  0.00  0.00    -0.490 N 
ATOM     17  C   LIG    1        4.723   7.620  -1.839  0.00  0.00    +0.480 A 
ATOM     18  N   LIG    1        5.318   8.014  -2.927  0.00  0.00    -0.500 NA
ATOM     19  C   LIG    1        4.389   8.309  -3.873  0.00  0.00    +0.050 A 
ATOM     20  C   LIG    1        4.468   8.764  -5.191  0.00  0.00    +0.070 A 
ATOM     21  C   LIG    1        3.324   8.961  -5.913  0.00  0.00    -0.090 A 
ATOM     22  C   LIG    1        2.080   8.723  -5.347  0.00  0.00    -0.070 A 
ATOM     23  C   LIG    1        1.978   8.276  -4.046  0.00  0.00    +0.010 A 
ATOM     24  C   LIG    1        0.832   8.953  -6.159  0.00  0.00    +0.080 C 
ATOM     25  C   LIG    1        3.415   9.449  -7.336  0.00  0.00    +0.090 C 
ATOM     26  C   LIG    1        3.129   8.064  -3.300  0.00  0.00    +0.050 A 
ENDBRANCH  15  16
ENDBRANCH   1  15
TORSDOF 5
