REMARK  Name = ZINCrD00000F5LjC.0
REMARK                            x       y       z     vdW  Elec       q    Type
REMARK                         _______ _______ _______ _____ _____    ______ ____
ROOT
ATOM      1  N   LIG    1        0.331  -2.009  -4.931  0.00  0.00    -0.450 N 
ATOM      2  N   LIG    1        1.303  -2.417  -5.854  0.00  0.00    -0.240 NA
ATOM      3  C   LIG    1        0.817  -3.397  -6.545  0.00  0.00    +0.290 A 
ATOM      4  N   LIG    1       -0.462  -3.652  -6.113  0.00  0.00    -0.540 N 
ATOM      5  C   LIG    1       -0.753  -2.791  -5.117  0.00  0.00    +0.660 A 
ATOM      6  O   LIG    1       -1.802  -2.729  -4.500  0.00  0.00    -0.550 OA
ENDROOT
BRANCH   3   7
ATOM      7  C   LIG    1        1.534  -4.135  -7.646  0.00  0.00    +0.250 C 
ATOM      8  O   LIG    1        1.031  -3.724  -8.936  0.00  0.00    -0.360 OA
ATOM      9  C   LIG    1        2.066  -4.077  -9.879  0.00  0.00    +0.210 C 
ATOM     10  C   LIG    1        3.388  -3.712  -9.168  0.00  0.00    +0.010 C 
ATOM     11  C   LIG    1        3.030  -3.753  -7.663  0.00  0.00    -0.020 C 
ATOM     12  C   LIG    1        3.240  -2.378  -7.025  0.00  0.00    +0.070 C 
ENDBRANCH   3   7
BRANCH   4  13
ATOM     13  C   LIG    1       -1.357  -4.684  -6.643  0.00  0.00    +0.260 C 
ATOM     14  C   LIG    1       -2.623  -4.026  -7.195  0.00  0.00    +0.040 C 
ATOM     15  C   LIG    1       -1.734  -5.656  -5.524  0.00  0.00    +0.050 C 
ENDBRANCH   4  13
BRANCH   1  16
ATOM     16  C   LIG    1        0.465  -0.930  -3.948  0.00  0.00    +0.410 C 
BRANCH  16  19
ATOM     17  N   LIG    1        1.224  -0.673  -1.608  0.00  0.00    -0.630 N 
ATOM     18  H   LIG    1        1.020   0.272  -1.679  0.00  0.00    +0.420 HD
ATOM     19  C   LIG    1        1.016  -1.488  -2.662  0.00  0.00    +0.490 C 
ATOM     20  O   LIG    1        1.272  -2.671  -2.573  0.00  0.00    -0.490 OA
BRANCH  17  25
ATOM     21  C   LIG    1        3.174  -3.521   2.501  0.00  0.00    +0.120 C 
ATOM     22  C   LIG    1        2.647  -2.513   1.512  0.00  0.00    -0.230 A 
ATOM     23  C   LIG    1        2.483  -1.213   1.755  0.00  0.00    -0.090 A 
ATOM     24  C   LIG    1        1.983  -0.478   0.694  0.00  0.00    -0.150 A 
ATOM     25  C   LIG    1        1.736  -1.190  -0.415  0.00  0.00    +0.030 A 
ATOM     26  C   LIG    1        1.731   1.005   0.779  0.00  0.00    +0.110 C 
ATOM     27  C   LIG    1        2.816  -0.590   3.086  0.00  0.00    +0.120 C 
ATOM     28  S   LIG    1        2.156  -2.875  -0.137  0.00  0.00    +0.210 S 
ENDBRANCH  17  25
ENDBRANCH  16  19
ENDBRANCH   1  16
TORSDOF 5
