REMARK  Name = ZINCtV00000L6kAD.0
REMARK                            x       y       z     vdW  Elec       q    Type
REMARK                         _______ _______ _______ _____ _____    ______ ____
ROOT
ATOM      1  N   LIG    1       -2.309  -4.097  -0.933  0.00  0.00    -0.590 N 
ATOM      2  C   LIG    1       -2.196  -4.355  -2.251  0.00  0.00    +0.610 C 
ATOM      3  O   LIG    1       -2.067  -5.501  -2.639  0.00  0.00    -0.510 OA
ENDROOT
BRANCH   2   4
ATOM      4  C   LIG    1       -2.228  -3.254  -3.218  0.00  0.00    -0.070 A 
ATOM      5  C   LIG    1       -2.236  -3.382  -4.590  0.00  0.00    +0.060 A 
ATOM      6  C   LIG    1       -2.272  -2.087  -5.116  0.00  0.00    -0.030 A 
ATOM      7  C   LIG    1       -2.275  -1.224  -4.058  0.00  0.00    +0.060 A 
ATOM      8  O   LIG    1       -2.248  -1.938  -2.920  0.00  0.00    -0.150 OA
BRANCH   7   9
ATOM      9  C   LIG    1       -2.302   0.250  -4.149  0.00  0.00    -0.020 A 
ATOM     10  C   LIG    1       -2.322   0.875  -5.398  0.00  0.00    +0.060 A 
ATOM     11  C   LIG    1       -2.352   2.251  -5.476  0.00  0.00    +0.040 A 
ATOM     12  C   LIG    1       -2.352   3.014  -4.320  0.00  0.00    -0.020 A 
ATOM     13  C   LIG    1       -2.327   2.400  -3.079  0.00  0.00    +0.030 A 
ATOM     14 CL   LIG    1       -2.382   4.746  -4.427  0.00  0.00    -0.060 Cl
ATOM     15  C   LIG    1       -2.302   1.024  -2.987  0.00  0.00    +0.050 A 
ENDBRANCH   7   9
ENDBRANCH   2   4
BRANCH   1  17
ATOM     16  C   LIG    1       -3.543  -5.738   0.395  0.00  0.00    +0.020 C 
ATOM     17  C   LIG    1       -2.163  -5.182   0.040  0.00  0.00    +0.280 C 
ENDBRANCH   1  17
BRANCH   1  18
ATOM     18  C   LIG    1       -2.579  -2.733  -0.474  0.00  0.00    +0.330 C 
BRANCH  18  19
ATOM     19  C   LIG    1       -1.276  -2.000  -0.284  0.00  0.00    +0.480 C 
ATOM     20  N   LIG    1       -1.279  -0.720   0.138  0.00  0.00    -0.670 N 
ATOM     21  H   LIG    1       -2.116  -0.284   0.361  0.00  0.00    +0.410 HD
ATOM     22  O   LIG    1       -0.226  -2.562  -0.509  0.00  0.00    -0.470 OA
BRANCH  20  23
ATOM     23  C   LIG    1       -0.072  -0.018   0.252  0.00  0.00    +0.170 A 
ATOM     24  C   LIG    1        0.911  -0.161  -0.719  0.00  0.00    -0.030 A 
ATOM     25  C   LIG    1        2.101   0.534  -0.603  0.00  0.00    +0.050 A 
ATOM     26  C   LIG    1        2.313   1.369   0.478  0.00  0.00    +0.030 A 
ATOM     27  C   LIG    1        1.336   1.514   1.447  0.00  0.00    +0.050 A 
ATOM     28 CL   LIG    1        0.649  -1.215  -2.073  0.00  0.00    -0.010 Cl
ATOM     29  C   LIG    1        0.144   0.823   1.337  0.00  0.00    -0.050 A 
ATOM     30 CL   LIG    1       -1.081   1.005   2.553  0.00  0.00    -0.050 Cl
ENDBRANCH  20  23
ENDBRANCH  18  19
ENDBRANCH   1  18
TORSDOF 6
