REMARK  Name = ZINCrH000004qf1H.0
REMARK                            x       y       z     vdW  Elec       q    Type
REMARK                         _______ _______ _______ _____ _____    ______ ____
ROOT
ATOM      1  N   LIG    1       -0.890   8.127   1.393  0.00  0.00    -0.640 N 
ATOM      2  H   LIG    1       -0.998   8.192   2.355  0.00  0.00    +0.410 HD
ATOM      3  C   LIG    1       -0.792   6.918   0.806  0.00  0.00    +0.520 C 
ATOM      4  O   LIG    1       -0.657   6.836  -0.397  0.00  0.00    -0.520 OA
ENDROOT
BRANCH   3   5
ATOM      5  C   LIG    1       -0.849   5.666   1.644  0.00  0.00    +0.010 C 
ATOM      6  C   LIG    1       -2.188   5.610   2.385  0.00  0.00    +0.050 C 
ATOM      7  C   LIG    1       -2.149   4.485   3.427  0.00  0.00    +0.130 C 
ATOM      8  C   LIG    1       -1.657   3.229   2.753  0.00  0.00    +0.090 A 
ATOM      9  C   LIG    1       -1.016   3.207   1.557  0.00  0.00    -0.190 A 
ATOM     10  C   LIG    1       -0.722   1.881   1.250  0.00  0.00    -0.000 A 
ATOM     11  N   LIG    1       -1.161   1.129   2.230  0.00  0.00    -0.230 NA
ATOM     12  N   LIG    1       -1.755   1.962   3.190  0.00  0.00    -0.440 N 
ATOM     13  H   LIG    1       -2.163   1.675   4.022  0.00  0.00    +0.450 HD
ATOM     14  C   LIG    1       -0.714   4.437   0.737  0.00  0.00    +0.150 C 
BRANCH  10  15
ATOM     15  C   LIG    1       -0.017   1.395   0.010  0.00  0.00    +0.550 C 
ATOM     16  F   LIG    1       -0.694   1.858  -1.124  0.00  0.00    -0.160 F 
ATOM     17  F   LIG    1        1.296   1.879  -0.000  0.00  0.00    -0.160 F 
ATOM     18  F   LIG    1        0.002  -0.004   0.002  0.00  0.00    -0.170 F 
ENDBRANCH  10  15
ENDBRANCH   3   5
BRANCH   1  21
ATOM     19  C   LIG    1       -1.105  10.988   2.506  0.00  0.00    +0.140 C 
ATOM     20  C   LIG    1       -0.928  10.570   1.069  0.00  0.00    +0.050 A 
ATOM     21  C   LIG    1       -0.837   9.295   0.610  0.00  0.00    -0.000 A 
ATOM     22  C   LIG    1       -0.685   9.350  -0.783  0.00  0.00    +0.250 A 
ATOM     23  N   LIG    1       -0.681  10.607  -1.147  0.00  0.00    -0.280 NA
ATOM     24  N   LIG    1       -0.829  11.399  -0.002  0.00  0.00    -0.360 N 
BRANCH  24  25
ATOM     25  C   LIG    1       -0.875  12.863   0.034  0.00  0.00    +0.260 C 
ATOM     26  C   LIG    1       -2.015  13.378  -0.868  0.00  0.00    +0.020 C 
ATOM     27  C   LIG    1       -1.442  14.668  -1.506  0.00  0.00    +0.020 C 
ATOM     28  C   LIG    1        0.039  14.294  -1.761  0.00  0.00    +0.020 C 
ATOM     29  C   LIG    1        0.432  13.445  -0.534  0.00  0.00    +0.020 C 
ENDBRANCH  24  25
ENDBRANCH   1  21
TORSDOF 4
