REMARK  Name = ZINCrH00000No4Oj.0
REMARK                            x       y       z     vdW  Elec       q    Type
REMARK                         _______ _______ _______ _____ _____    ______ ____
ROOT
ATOM      1  C   LIG    1        2.239  -2.790   0.867  0.00  0.00    +0.290 C 
ENDROOT
BRANCH   1   2
ATOM      2  N   LIG    1        2.157  -4.253   0.835  0.00  0.00    -0.730 N 
ATOM      3  H   LIG    1        1.323  -4.687   0.597  0.00  0.00    +0.400 HD
ATOM      4  C   LIG    1        3.241  -4.995   1.136  0.00  0.00    +0.550 C 
ATOM      5  O   LIG    1        4.288  -4.450   1.435  0.00  0.00    -0.540 OA
BRANCH   4   6
ATOM      6  C   LIG    1        3.160  -6.455   1.104  0.00  0.00    -0.100 C 
ATOM      7  C   LIG    1        4.246  -7.198   1.405  0.00  0.00    +0.140 C 
BRANCH   7   8
ATOM      8  C   LIG    1        4.164  -8.665   1.373  0.00  0.00    -0.120 A 
ATOM      9  C   LIG    1        2.960  -9.294   1.036  0.00  0.00    +0.070 A 
ATOM     10  C   LIG    1        2.891 -10.669   1.002  0.00  0.00    -0.080 A 
ATOM     11  C   LIG    1        4.010 -11.432   1.313  0.00  0.00    +0.140 A 
ATOM     12  C   LIG    1        5.207 -10.812   1.654  0.00  0.00    -0.020 A 
ATOM     13  C   LIG    1        5.289  -9.438   1.685  0.00  0.00    +0.090 A 
BRANCH  11  14
ATOM     14  O   LIG    1        3.935 -12.787   1.283  0.00  0.00    -0.310 OA
ATOM     15  C   LIG    1        2.676 -13.359   0.924  0.00  0.00    +0.240 C 
ENDBRANCH  11  14
ENDBRANCH   7   8
ENDBRANCH   4   6
ENDBRANCH   1   2
BRANCH   1  16
ATOM     16  C   LIG    1        0.881  -2.196   0.488  0.00  0.00    +0.050 C 
BRANCH  16  19
ATOM     17  N   LIG    1       -0.119   0.051   0.220  0.00  0.00    -0.680 N 
ATOM     18  H   LIG    1       -0.971  -0.381   0.051  0.00  0.00    +0.410 HD
ATOM     19  C   LIG    1        0.965  -0.691   0.521  0.00  0.00    +0.520 C 
ATOM     20  O   LIG    1        2.008  -0.148   0.819  0.00  0.00    -0.510 OA
BRANCH  17  27
ATOM     21  C   LIG    1       -0.377   2.112  -1.013  0.00  0.00    -0.090 A 
ATOM     22  C   LIG    1       -0.278   3.488  -1.076  0.00  0.00    +0.010 A 
ATOM     23  C   LIG    1        0.190   4.200   0.013  0.00  0.00    +0.020 A 
ATOM     24  C   LIG    1        0.554   3.538   1.171  0.00  0.00    +0.010 A 
ATOM     25  C   LIG    1        0.453   2.162   1.242  0.00  0.00    -0.070 A 
ATOM     26  C   LIG    1        0.851   1.442   2.505  0.00  0.00    +0.100 C 
ATOM     27  C   LIG    1       -0.016   1.444   0.150  0.00  0.00    +0.130 A 
BRANCH  21  29
ATOM     28  C   LIG    1       -2.383   1.091  -2.052  0.00  0.00    +0.020 C 
ATOM     29  C   LIG    1       -0.881   1.336  -2.202  0.00  0.00    +0.060 C 
ENDBRANCH  21  29
ENDBRANCH  17  27
ENDBRANCH  16  19
ENDBRANCH   1  16
TORSDOF 8
