REMARK  Name = ZINCrD0000073nkw.0
REMARK                            x       y       z     vdW  Elec       q    Type
REMARK                         _______ _______ _______ _____ _____    ______ ____
ROOT
ATOM      1  C   LIG    1       -2.240  -4.845  -0.303  0.00  0.00    +0.430 C 
ATOM      2  O   LIG    1       -3.131  -4.427   0.407  0.00  0.00    -0.450 OA
ENDROOT
BRANCH   1   3
ATOM      3  C   LIG    1       -0.927  -4.197  -0.289  0.00  0.00    -0.280 A 
ATOM      4  C   LIG    1       -0.541  -3.112   0.476  0.00  0.00    +0.140 A 
ATOM      5  N   LIG    1        0.742  -2.831   0.188  0.00  0.00    -0.430 N 
ATOM      6  C   LIG    1        1.224  -3.705  -0.742  0.00  0.00    +0.010 A 
ATOM      7  C   LIG    1        2.624  -3.701  -1.302  0.00  0.00    +0.120 C 
ATOM      8  C   LIG    1       -1.410  -2.370   1.459  0.00  0.00    +0.150 C 
ATOM      9  C   LIG    1        0.254  -4.571  -1.079  0.00  0.00    +0.000 A 
BRANCH   5  10
ATOM     10  C   LIG    1        1.514  -1.742   0.791  0.00  0.00    +0.310 C 
BRANCH  10  11
ATOM     11  C   LIG    1        1.358  -0.476  -0.054  0.00  0.00    +0.150 C 
ATOM     12  C   LIG    1        2.211   0.674   0.537  0.00  0.00    +0.020 C 
ATOM     13  C   LIG    1        1.448   1.915  -0.002  0.00  0.00    +0.020 C 
ATOM     14  C   LIG    1       -0.017   1.428   0.010  0.00  0.00    +0.190 C 
ATOM     15  O   LIG    1        0.002  -0.004   0.002  0.00  0.00    -0.370 OA
ENDBRANCH  10  11
ENDBRANCH   5  10
ENDBRANCH   1   3
BRANCH   1  16
ATOM     16  C   LIG    1       -2.486  -6.030  -1.201  0.00  0.00    +0.230 C 
BRANCH  16  17
ATOM     17  O   LIG    1       -3.854  -6.488  -1.034  0.00  0.00    -0.340 OA
BRANCH  17  18
ATOM     18  C   LIG    1       -4.238  -7.549  -1.772  0.00  0.00    +0.510 C 
ATOM     19  O   LIG    1       -3.451  -8.076  -2.533  0.00  0.00    -0.510 OA
BRANCH  18  23
ATOM     20  C   LIG    1       -8.196  -9.046  -1.435  0.00  0.00    +0.170 A 
ATOM     21  C   LIG    1       -7.298  -9.652  -2.306  0.00  0.00    -0.030 A 
ATOM     22  C   LIG    1       -6.013  -9.169  -2.418  0.00  0.00    +0.140 A 
ATOM     23  C   LIG    1       -5.612  -8.069  -1.655  0.00  0.00    -0.170 A 
ATOM     24  C   LIG    1       -6.517  -7.467  -0.775  0.00  0.00    +0.120 A 
ATOM     25  C   LIG    1       -7.802  -7.952  -0.674  0.00  0.00    -0.080 A 
BRANCH  20  27
ATOM     26  C   LIG    1      -10.332  -8.856  -0.414  0.00  0.00    +0.240 C 
ATOM     27  O   LIG    1       -9.461  -9.525  -1.328  0.00  0.00    -0.310 OA
ENDBRANCH  20  27
ENDBRANCH  18  23
ENDBRANCH  17  18
ENDBRANCH  16  17
ENDBRANCH   1  16
TORSDOF 8
