REMARK  Name = ZINCpk000000nVmY.0
REMARK                            x       y       z     vdW  Elec       q    Type
REMARK                         _______ _______ _______ _____ _____    ______ ____
ROOT
ATOM      1  C   LIG    1       -2.022   3.946   3.240  0.00  0.00    +0.090 C 
ATOM      2  C   LIG    1       -1.663   3.558   1.804  0.00  0.00    -0.540 C 
ATOM      3  C   LIG    1       -1.189   2.085   1.786  0.00  0.00    +0.080 C 
ATOM      4  C   LIG    1       -0.397   1.728   0.513  0.00  0.00    +0.300 C 
ATOM      5  N   LIG    1       -0.960   2.276  -0.687  0.00  0.00    -0.630 N 
ATOM      6  C   LIG    1       -0.340   3.508  -1.263  0.00  0.00    +0.330 C 
ATOM      7  C   LIG    1       -0.818   4.691  -0.586  0.00  0.00    -0.360 C 
ATOM      8  C   LIG    1       -2.021   1.695  -1.280  0.00  0.00    +0.710 C 
ATOM      9  N   LIG    1       -2.537   2.224  -2.407  0.00  0.00    -0.690 N 
ATOM     10  H   LIG    1       -2.107   2.986  -2.826  0.00  0.00    +0.410 HD
ATOM     11  O   LIG    1       -2.513   0.693  -0.798  0.00  0.00    -0.550 OA
ATOM     12  C   LIG    1       -2.915   3.682   0.933  0.00  0.00    +0.080 C 
ATOM     13  S   LIG    1       -0.416   4.687   1.192  0.00  0.00    +2.440 S 
ATOM     14  O   LIG    1       -0.669   5.981   1.722  0.00  0.00    -0.930 OA
ATOM     15  O   LIG    1        0.864   4.097   1.371  0.00  0.00    -0.930 OA
ENDROOT
BRANCH   9  16
ATOM     16  C   LIG    1       -3.695   1.673  -2.974  0.00  0.00    +0.150 A 
ATOM     17  C   LIG    1       -3.912   0.303  -2.916  0.00  0.00    +0.050 A 
ATOM     18  C   LIG    1       -5.055  -0.239  -3.469  0.00  0.00    +0.030 A 
ATOM     19  C   LIG    1       -5.981   0.585  -4.095  0.00  0.00    +0.120 A 
ATOM     20  C   LIG    1       -5.761   1.955  -4.158  0.00  0.00    +0.020 A 
ATOM     21  C   LIG    1       -4.621   2.497  -3.599  0.00  0.00    +0.000 A 
BRANCH  19  22
ATOM     22  N   LIG    1       -7.137   0.036  -4.661  0.00  0.00    -1.060 N 
ATOM     23  H   LIG    1       -7.999   0.449  -4.502  0.00  0.00    +0.430 HD
BRANCH  22  24
ATOM     24  S   LIG    1       -7.031  -1.321  -5.605  0.00  0.00    +2.610 S 
ATOM     25  O   LIG    1       -8.362  -1.541  -6.052  0.00  0.00    -0.950 OA
ATOM     26  O   LIG    1       -6.369  -2.271  -4.780  0.00  0.00    -0.950 OA
ATOM     27  C   LIG    1       -5.968  -0.828  -6.989  0.00  0.00    -0.280 C 
ENDBRANCH  22  24
ENDBRANCH  19  22
ENDBRANCH   9  16
TORSDOF 3
