REMARK  Name = ZINCrH00000No526.0
REMARK                            x       y       z     vdW  Elec       q    Type
REMARK                         _______ _______ _______ _____ _____    ______ ____
ROOT
ATOM      1  C   LIG    1        2.440   4.118   0.001  0.00  0.00    -0.080 A 
ATOM      2  C   LIG    1        3.665   3.473   0.095  0.00  0.00    +0.050 A 
ATOM      3  C   LIG    1        4.845   4.230   0.078  0.00  0.00    +0.200 A 
ATOM      4  N   LIG    1        4.837   5.543  -0.014  0.00  0.00    -0.440 NA
ATOM      5  C   LIG    1        3.707   6.245  -0.102  0.00  0.00    +0.130 A 
ATOM      6  C   LIG    1        3.729   7.649  -0.200  0.00  0.00    +0.050 A 
ATOM      7  C   LIG    1        2.559   8.338  -0.289  0.00  0.00    +0.040 A 
ATOM      8  C   LIG    1        1.333   7.676  -0.286  0.00  0.00    +0.030 A 
ATOM      9  C   LIG    1        1.272   6.317  -0.195  0.00  0.00    +0.070 A 
ATOM     10  C   LIG    1        2.456   5.577  -0.100  0.00  0.00    -0.050 A 
ENDROOT
BRANCH   3  11
ATOM     11  C   LIG    1        6.148   3.528   0.173  0.00  0.00    +0.160 A 
ATOM     12  C   LIG    1        7.332   4.263   0.165  0.00  0.00    +0.030 A 
ATOM     13  C   LIG    1        8.540   3.593   0.254  0.00  0.00    +0.060 A 
ATOM     14  C   LIG    1        8.525   2.209   0.350  0.00  0.00    -0.020 A 
ATOM     15  C   LIG    1        7.312   1.543   0.353  0.00  0.00    +0.260 A 
ATOM     16  N   LIG    1        6.177   2.205   0.272  0.00  0.00    -0.470 NA
ENDBRANCH   3  11
BRANCH   1  19
ATOM     17  N   LIG    1        1.188   2.014  -0.007  0.00  0.00    -0.570 N 
ATOM     18  H   LIG    1        2.034   1.540  -0.023  0.00  0.00    +0.390 HD
ATOM     19  C   LIG    1        1.170   3.361   0.009  0.00  0.00    +0.580 C 
ATOM     20  O   LIG    1        0.108   3.955   0.030  0.00  0.00    -0.480 OA
BRANCH  17  23
ATOM     21  C   LIG    1        1.317  -0.740  -0.040  0.00  0.00    +0.090 C 
ATOM     22  C   LIG    1        0.002  -0.004  -0.014  0.00  0.00    +0.170 C 
ATOM     23  N   LIG    1       -0.016   1.297   0.001  0.00  0.00    -0.220 NA
BRANCH  22  24
ATOM     24  C   LIG    1       -1.258  -0.754  -0.006  0.00  0.00    +0.030 A 
ATOM     25  C   LIG    1       -2.526  -0.216   0.017  0.00  0.00    +0.030 A 
ATOM     26  C   LIG    1       -3.430  -1.287   0.016  0.00  0.00    -0.070 A 
ATOM     27  C   LIG    1       -2.714  -2.434  -0.007  0.00  0.00    +0.190 A 
ATOM     28  N   LIG    1       -1.388  -2.123  -0.026  0.00  0.00    -0.550 N 
ATOM     29  H   LIG    1       -0.658  -2.760  -0.047  0.00  0.00    +0.420 HD
ENDBRANCH  22  24
ENDBRANCH  17  23
ENDBRANCH   1  19
TORSDOF 4
