REMARK  Name = ZINCrH000004tqS0.0
REMARK                            x       y       z     vdW  Elec       q    Type
REMARK                         _______ _______ _______ _____ _____    ______ ____
ROOT
ATOM      1  N   LIG    1       -0.937   1.184  -0.284  0.00  0.00    -0.550 N 
ATOM      2  C   LIG    1        0.378   0.935  -0.440  0.00  0.00    +0.530 C 
ATOM      3  O   LIG    1        0.746  -0.139  -0.865  0.00  0.00    -0.500 OA
ENDROOT
BRANCH   1   4
ATOM      4  C   LIG    1       -1.871   0.160  -0.478  0.00  0.00    +0.150 A 
ATOM      5  C   LIG    1       -3.229   0.448  -0.475  0.00  0.00    -0.040 A 
ATOM      6  C   LIG    1       -4.148  -0.565  -0.672  0.00  0.00    +0.020 A 
ATOM      7  C   LIG    1       -3.717  -1.865  -0.862  0.00  0.00    -0.020 A 
ATOM      8  C   LIG    1       -2.365  -2.155  -0.861  0.00  0.00    +0.020 A 
ATOM      9  C   LIG    1       -1.441  -1.146  -0.669  0.00  0.00    +0.010 A 
ENDBRANCH   1   4
BRANCH   1  10
ATOM     10  C   LIG    1       -1.389   2.527   0.089  0.00  0.00    +0.310 C 
BRANCH  10  11
ATOM     11  C   LIG    1       -1.774   3.304  -1.171  0.00  0.00    +0.030 C 
BRANCH  11  15
ATOM     12  N   LIG    1       -2.538   5.585  -1.750  0.00  0.00    -0.850 N 
ATOM     13  H   LIG    1       -2.786   6.491  -1.508  0.00  0.00    +0.400 HD
ATOM     14  H   LIG    1       -2.561   5.307  -2.679  0.00  0.00    +0.400 HD
ATOM     15  C   LIG    1       -2.159   4.712  -0.795  0.00  0.00    +0.530 C 
ATOM     16  O   LIG    1       -2.130   5.059   0.367  0.00  0.00    -0.540 OA
ENDBRANCH  11  15
ENDBRANCH  10  11
ENDBRANCH   1  10
BRANCH   2  17
ATOM     17  C   LIG    1        1.392   1.995  -0.093  0.00  0.00    +0.080 C 
BRANCH  17  18
ATOM     18  C   LIG    1        1.591   2.907  -1.276  0.00  0.00    -0.080 A 
ATOM     19  C   LIG    1        1.840   2.373  -2.526  0.00  0.00    +0.020 A 
ATOM     20  C   LIG    1        2.018   3.210  -3.612  0.00  0.00    +0.000 A 
ATOM     21  C   LIG    1        1.956   4.581  -3.446  0.00  0.00    +0.010 A 
ATOM     22  C   LIG    1        1.712   5.115  -2.195  0.00  0.00    +0.000 A 
ATOM     23  C   LIG    1        1.529   4.278  -1.110  0.00  0.00    +0.010 A 
ENDBRANCH  17  18
BRANCH  17  24
ATOM     24  C   LIG    1        2.702   1.340   0.262  0.00  0.00    -0.080 A 
ATOM     25  C   LIG    1        3.324   0.501  -0.645  0.00  0.00    +0.050 A 
ATOM     26  C   LIG    1        4.527  -0.096  -0.321  0.00  0.00    +0.000 A 
ATOM     27  C   LIG    1        5.105   0.137   0.913  0.00  0.00    +0.010 A 
ATOM     28  C   LIG    1        4.481   0.972   1.821  0.00  0.00    +0.000 A 
ATOM     29  C   LIG    1        3.280   1.573   1.496  0.00  0.00    +0.010 A 
ENDBRANCH  17  24
ENDBRANCH   2  17
TORSDOF 7
