REMARK  Name = ZINCpk00001AZj6O.0
REMARK                            x       y       z     vdW  Elec       q    Type
REMARK                         _______ _______ _______ _____ _____    ______ ____
ROOT
ATOM      1  N   LIG    1       -2.067   5.005   1.612  0.00  0.00    -0.480 N 
ATOM      2  C   LIG    1       -2.075   4.787   0.140  0.00  0.00    +0.230 C 
ATOM      3  C   LIG    1       -1.699   3.327  -0.063  0.00  0.00    -0.030 C 
ATOM      4  C   LIG    1       -0.883   2.962  -1.284  0.00  0.00    +0.260 C 
ATOM      5  O   LIG    1       -0.623   1.549  -1.196  0.00  0.00    -0.380 OA
ATOM      6  C   LIG    1        0.048   1.088  -0.028  0.00  0.00    +0.210 C 
ATOM      7  C   LIG    1       -0.662   1.540   1.261  0.00  0.00    +0.040 C 
ATOM      8  C   LIG    1       -0.797   3.048   1.177  0.00  0.00    -0.100 C 
ATOM      9  C   LIG    1       -1.615   3.744   2.268  0.00  0.00    +0.230 C 
ENDROOT
BRANCH   8  10
ATOM     10  C   LIG    1        0.549   3.706   1.022  0.00  0.00    +0.560 C 
ATOM     11  N   LIG    1        1.442   3.661   2.031  0.00  0.00    -0.610 N 
ATOM     12  C   LIG    1        1.258   2.951   3.310  0.00  0.00    +0.280 C 
ATOM     13  C   LIG    1        2.697   2.672   3.817  0.00  0.00    +0.050 C 
ATOM     14  C   LIG    1        3.433   3.968   3.384  0.00  0.00    +0.280 C 
ATOM     15  F   LIG    1        3.231   4.988   4.321  0.00  0.00    -0.180 F 
ATOM     16  F   LIG    1        4.798   3.724   3.203  0.00  0.00    -0.180 F 
ATOM     17  C   LIG    1        2.757   4.318   2.042  0.00  0.00    +0.270 C 
ATOM     18  O   LIG    1        0.830   4.277  -0.011  0.00  0.00    -0.510 OA
ENDBRANCH   8  10
BRANCH   1  23
ATOM     19  C   LIG    1       -7.045   6.687   3.510  0.00  0.00    +0.160 C 
ATOM     20  C   LIG    1       -5.725   6.187   2.980  0.00  0.00    +0.070 A 
ATOM     21  C   LIG    1       -5.653   4.952   2.352  0.00  0.00    +0.040 A 
ATOM     22  C   LIG    1       -4.419   4.533   1.880  0.00  0.00    +0.000 A 
ATOM     23  C   LIG    1       -3.326   5.379   2.067  0.00  0.00    +0.240 A 
ATOM     24  N   LIG    1       -3.493   6.539   2.684  0.00  0.00    -0.210 NA
ATOM     25  N   LIG    1       -4.640   6.924   3.114  0.00  0.00    -0.230 NA
ENDBRANCH   1  23
TORSDOF 2
