REMARK  Name = ZINCtV00001bB3hU.0
REMARK                            x       y       z     vdW  Elec       q    Type
REMARK                         _______ _______ _______ _____ _____    ______ ____
ROOT
ATOM      1  C   LIG    1       -0.106   2.232  -2.186  0.00  0.00    +0.070 C 
ATOM      2  C   LIG    1       -0.752   1.591  -1.212  0.00  0.00    +0.010 C 
ATOM      3  C   LIG    1       -2.243   1.349  -1.297  0.00  0.00    +0.100 C 
ATOM      4  C   LIG    1       -2.891   1.838   0.002  0.00  0.00    +0.030 C 
ATOM      5  C   LIG    1       -2.211   1.162   1.194  0.00  0.00    +0.030 C 
ATOM      6  C   LIG    1       -0.738   1.584   1.263  0.00  0.00    +0.070 C 
ATOM      7  C   LIG    1       -0.013   1.086   0.008  0.00  0.00    +0.050 C 
ENDROOT
BRANCH   1   9
ATOM      8  N   LIG    1       -0.158   3.297  -4.210  0.00  0.00    -0.240 NA
ATOM      9  N   LIG    1       -0.783   2.676  -3.268  0.00  0.00    -0.130 NA
BRANCH   8  13
ATOM     10  C   LIG    1       -2.236   4.629  -7.473  0.00  0.00    -0.240 A 
ATOM     11  C   LIG    1       -0.870   4.865  -7.423  0.00  0.00    +0.140 A 
ATOM     12  C   LIG    1       -0.161   4.417  -6.322  0.00  0.00    +0.040 A 
ATOM     13  C   LIG    1       -0.843   3.746  -5.304  0.00  0.00    +0.290 A 
ATOM     14  N   LIG    1       -2.153   3.535  -5.395  0.00  0.00    -0.470 NA
ATOM     15  C   LIG    1       -2.849   3.956  -6.430  0.00  0.00    +0.340 A 
BRANCH  10  17
ATOM     16  F   LIG    1       -3.075   4.096  -9.629  0.00  0.00    -0.170 F 
ATOM     17  C   LIG    1       -3.046   5.099  -8.654  0.00  0.00    +0.520 C 
ATOM     18  F   LIG    1       -2.463   6.252  -9.190  0.00  0.00    -0.170 F 
ATOM     19  F   LIG    1       -4.351   5.385  -8.240  0.00  0.00    -0.170 F 
ENDBRANCH  10  17
ENDBRANCH   8  13
ENDBRANCH   1   9
BRANCH   7  20
ATOM     20  S   LIG    1        1.684   1.717  -0.005  0.00  0.00    +0.050 S 
BRANCH  20  21
ATOM     21  C   LIG    1        2.304   0.898  -1.437  0.00  0.00    +0.070 A 
ATOM     22  N   LIG    1        3.505   1.018  -1.891  0.00  0.00    -0.440 NA
ATOM     23  C   LIG    1        3.831   0.325  -3.000  0.00  0.00    +0.090 A 
ATOM     24  C   LIG    1        5.063   0.285  -3.686  0.00  0.00    +0.080 A 
ATOM     25  C   LIG    1        5.208  -0.488  -4.811  0.00  0.00    +0.030 A 
ATOM     26  C   LIG    1        4.148  -1.242  -5.290  0.00  0.00    +0.050 A 
ATOM     27  C   LIG    1        2.935  -1.219  -4.637  0.00  0.00    +0.060 A 
ATOM     28  C   LIG    1        2.770  -0.440  -3.495  0.00  0.00    -0.170 A 
ATOM     29  S   LIG    1        1.375  -0.203  -2.444  0.00  0.00    +0.070 S 
ENDBRANCH  20  21
ENDBRANCH   7  20
TORSDOF 5
