REMARK  Name = ZINCqH00000515SD.0
REMARK                            x       y       z     vdW  Elec       q    Type
REMARK                         _______ _______ _______ _____ _____    ______ ____
ROOT
ATOM      1  C   LIG    1        1.758   9.222   0.034  0.00  0.00    +0.330 C 
ATOM      2  C   LIG    1        0.953  10.369   0.658  0.00  0.00    +0.020 C 
ATOM      3  C   LIG    1        1.684  11.693   0.425  0.00  0.00    +0.040 C 
ATOM      4  C   LIG    1        1.610  12.065  -1.061  0.00  0.00    +0.110 C 
ATOM      5  C   LIG    1        2.037  10.867  -1.872  0.00  0.00    +0.100 A 
ATOM      6  N   LIG    1        2.410  10.831  -3.162  0.00  0.00    -0.360 N 
ATOM      7  N   LIG    1        2.722   9.501  -3.482  0.00  0.00    -0.300 NA
ATOM      8  C   LIG    1        2.535   8.766  -2.413  0.00  0.00    +0.250 A 
ATOM      9  C   LIG    1        2.103   9.601  -1.385  0.00  0.00    -0.250 A 
ENDROOT
BRANCH   1  12
ATOM     10  O   LIG    1        2.777   6.725   0.011  0.00  0.00    -0.540 OA
ATOM     11  C   LIG    1        1.561   6.794   0.023  0.00  0.00    +0.550 C 
ATOM     12  N   LIG    1        0.954   7.997   0.035  0.00  0.00    -0.720 N 
ATOM     13  H   LIG    1       -0.014   8.052   0.045  0.00  0.00    +0.400 HD
BRANCH  11  14
ATOM     14  C   LIG    1        0.785   5.610   0.024  0.00  0.00    -0.080 C 
ATOM     15  C   LIG    1        1.395   4.399   0.012  0.00  0.00    +0.180 C 
BRANCH  15  16
ATOM     16  C   LIG    1        0.619   3.215   0.013  0.00  0.00    -0.020 A 
ATOM     17  C   LIG    1        1.105   1.924   0.002  0.00  0.00    +0.000 A 
ATOM     18  C   LIG    1       -0.013   1.076   0.008  0.00  0.00    -0.060 A 
ATOM     19  C   LIG    1       -1.111   1.863   0.017  0.00  0.00    +0.190 A 
ATOM     20  O   LIG    1       -0.729   3.147   0.026  0.00  0.00    -0.170 OA
ENDBRANCH  15  16
ENDBRANCH  11  14
ENDBRANCH   1  12
BRANCH   6  21
ATOM     21  C   LIG    1        2.481  11.976  -4.072  0.00  0.00    +0.370 C 
BRANCH  21  22
ATOM     22  C   LIG    1        3.854  12.592  -4.000  0.00  0.00    -0.120 A 
ATOM     23  C   LIG    1        4.112  13.601  -3.090  0.00  0.00    +0.020 A 
ATOM     24  C   LIG    1        5.373  14.162  -3.020  0.00  0.00    +0.010 A 
ATOM     25  C   LIG    1        6.374  13.722  -3.867  0.00  0.00    +0.010 A 
ATOM     26  C   LIG    1        6.114  12.717  -4.780  0.00  0.00    +0.010 A 
ATOM     27  C   LIG    1        4.854  12.153  -4.847  0.00  0.00    +0.030 A 
ENDBRANCH  21  22
ENDBRANCH   6  21
TORSDOF 5
