REMARK  Name = ZINCfA000000JmdR.0
REMARK                            x       y       z     vdW  Elec       q    Type
REMARK                         _______ _______ _______ _____ _____    ______ ____
ROOT
ATOM      1  C   LIG    1       -2.875   3.136   0.128  0.00  0.00    +0.050 C 
ATOM      2  C   LIG    1       -1.420   3.606   0.080  0.00  0.00    -0.080 C 
ATOM      3  C   LIG    1       -0.769   3.123  -1.220  0.00  0.00    +0.040 C 
ATOM      4  C   LIG    1       -0.752   1.592  -1.233  0.00  0.00    +0.050 C 
ATOM      5  C   LIG    1       -0.013   1.086   0.008  0.00  0.00    +0.250 C 
ATOM      6  N   LIG    1       -0.699   1.559   1.217  0.00  0.00    -0.510 N 
ATOM      7  H   LIG    1       -0.241   1.179   2.032  0.00  0.00    +0.430 HD
ATOM      8  H   LIG    1       -1.659   1.251   1.199  0.00  0.00    +0.430 HD
ATOM      9  C   LIG    1       -0.656   3.025   1.272  0.00  0.00    +0.250 C 
ENDROOT
BRANCH   2  10
ATOM     10  C   LIG    1       -1.373   5.134   0.138  0.00  0.00    +0.070 C 
BRANCH  10  11
ATOM     11  C   LIG    1       -2.023   5.615   1.437  0.00  0.00    +0.070 C 
BRANCH  11  12
ATOM     12  C   LIG    1       -1.978   7.120   1.494  0.00  0.00    -0.100 A 
ATOM     13  C   LIG    1       -0.898   7.757   2.076  0.00  0.00    +0.000 A 
ATOM     14  C   LIG    1       -0.854   9.138   2.125  0.00  0.00    +0.000 A 
ATOM     15  C   LIG    1       -1.894   9.882   1.599  0.00  0.00    +0.010 A 
ATOM     16  C   LIG    1       -2.976   9.244   1.022  0.00  0.00    +0.020 A 
ATOM     17  C   LIG    1       -3.018   7.864   0.970  0.00  0.00    +0.000 A 
ENDBRANCH  11  12
ENDBRANCH  10  11
ENDBRANCH   2  10
TORSDOF 3
