REMARK  Name = ZINCyk0000000lac.0
REMARK                            x       y       z     vdW  Elec       q    Type
REMARK                         _______ _______ _______ _____ _____    ______ ____
ROOT
ATOM      1  N   LIG    1       -7.946   0.568   4.512  0.00  0.00    -0.510 N 
ATOM      2  H   LIG    1       -7.309   0.573   5.243  0.00  0.00    +0.440 HD
ATOM      3  C   LIG    1       -9.269   0.549   4.770  0.00  0.00    +0.520 C 
ATOM      4  O   LIG    1      -10.066   0.543   3.856  0.00  0.00    -0.530 OA
ENDROOT
BRANCH   1   7
ATOM      5  O   LIG    1       -5.373   0.607   3.842  0.00  0.00    -0.530 OA
ATOM      6  C   LIG    1       -6.170   0.601   2.928  0.00  0.00    +0.520 C 
ATOM      7  N   LIG    1       -7.492   0.582   3.186  0.00  0.00    -0.530 N 
ATOM      8  H   LIG    1       -8.129   0.577   2.455  0.00  0.00    +0.440 HD
BRANCH   6   9
ATOM      9  C   LIG    1       -5.681   0.616   1.502  0.00  0.00    +0.090 C 
BRANCH   9  10
ATOM     10  C   LIG    1       -4.151   0.636   1.488  0.00  0.00    +0.040 C 
BRANCH  10  11
ATOM     11  C   LIG    1       -3.655   0.651   0.040  0.00  0.00    +0.310 C 
BRANCH  11  12
ATOM     12  N   LIG    1       -2.190   0.671   0.027  0.00  0.00    -0.580 N 
ATOM     13  C   LIG    1       -1.444   1.790   0.031  0.00  0.00    +0.580 C 
ATOM     14  C   LIG    1       -0.017   1.406   0.010  0.00  0.00    -0.140 A 
ATOM     15  C   LIG    1        1.175   2.111   0.002  0.00  0.00    +0.100 A 
ATOM     16  C   LIG    1        2.380   1.424  -0.013  0.00  0.00    +0.060 A 
ATOM     17  C   LIG    1        2.399   0.043  -0.021  0.00  0.00    +0.060 A 
ATOM     18  C   LIG    1        1.213  -0.676  -0.013  0.00  0.00    +0.100 A 
ATOM     19  C   LIG    1        0.002  -0.004   0.002  0.00  0.00    -0.140 A 
ATOM     20  O   LIG    1       -1.871   2.927   0.044  0.00  0.00    -0.460 OA
ATOM     21  C   LIG    1       -1.414  -0.428   0.013  0.00  0.00    +0.580 C 
ATOM     22  O   LIG    1       -1.810  -1.576   0.011  0.00  0.00    -0.460 OA
ENDBRANCH  11  12
ENDBRANCH  10  11
ENDBRANCH   9  10
ENDBRANCH   6   9
ENDBRANCH   1   7
BRANCH   3  23
ATOM     23  C   LIG    1       -9.758   0.534   6.196  0.00  0.00    +0.080 C 
BRANCH  23  24
ATOM     24  C   LIG    1      -11.287   0.514   6.210  0.00  0.00    +0.290 C 
BRANCH  24  25
ATOM     25  N   LIG    1      -11.764   0.499   7.600  0.00  0.00    -0.390 N 
ATOM     26  C   LIG    1      -11.351  -0.753   8.246  0.00  0.00    +0.270 C 
ATOM     27  C   LIG    1      -11.831  -0.760   9.699  0.00  0.00    +0.230 C 
ATOM     28  N   LIG    1      -13.295  -0.633   9.729  0.00  0.00    -0.490 N 
ATOM     29  C   LIG    1      -13.725   0.605   9.064  0.00  0.00    +0.220 C 
ATOM     30  C   LIG    1      -13.229   0.601   7.616  0.00  0.00    +0.280 C 
ATOM     31  H   LIG    1      -11.367   1.282   8.099  0.00  0.00    +0.420 HD
BRANCH  28  32
ATOM     32  C   LIG    1      -13.775  -0.689  11.039  0.00  0.00    +0.080 A 
ATOM     33  C   LIG    1      -14.545   0.351  11.544  0.00  0.00    -0.030 A 
ATOM     34  C   LIG    1      -15.023   0.289  12.838  0.00  0.00    +0.040 A 
ATOM     35  C   LIG    1      -14.726  -0.801  13.635  0.00  0.00    +0.000 A 
ATOM     36  C   LIG    1      -13.956  -1.836  13.138  0.00  0.00    +0.040 A 
ATOM     37  C   LIG    1      -13.479  -1.783  11.843  0.00  0.00    +0.000 A 
ENDBRANCH  28  32
ENDBRANCH  24  25
ENDBRANCH  23  24
ENDBRANCH   3  23
TORSDOF 9
