REMARK  Name = ZINCrH000004nsKr.1
REMARK                            x       y       z     vdW  Elec       q    Type
REMARK                         _______ _______ _______ _____ _____    ______ ____
ROOT
ATOM      1  N   LIG    1        3.484   3.139   0.360  0.00  0.00    -0.700 N 
ATOM      2  H   LIG    1        2.989   3.862  -0.057  0.00  0.00    +0.420 HD
ATOM      3  C   LIG    1        2.847   2.007   0.720  0.00  0.00    +0.590 C 
ATOM      4  O   LIG    1        3.467   1.100   1.242  0.00  0.00    -0.530 OA
ENDROOT
BRANCH   3   5
ATOM      5  C   LIG    1        1.400   1.867   0.481  0.00  0.00    +0.000 A 
ATOM      6  C   LIG    1        0.714   0.754   0.823  0.00  0.00    -0.170 A 
ATOM      7  S   LIG    1       -0.930   0.956   0.395  0.00  0.00    +0.230 S 
ATOM      8  C   LIG    1       -0.588   2.564  -0.233  0.00  0.00    +0.100 A 
ATOM      9  C   LIG    1        1.302  -0.469   1.476  0.00  0.00    +0.180 C 
ATOM     10  N   LIG    1        0.678   2.825  -0.085  0.00  0.00    -0.420 NA
BRANCH   8  11
ATOM     11  C   LIG    1       -1.578   3.469  -0.838  0.00  0.00    +0.050 A 
ATOM     12  C   LIG    1       -2.905   3.207  -1.005  0.00  0.00    -0.010 A 
ATOM     13  C   LIG    1       -3.467   4.342  -1.620  0.00  0.00    -0.050 A 
ATOM     14  C   LIG    1       -2.470   5.232  -1.796  0.00  0.00    +0.200 A 
ATOM     15  O   LIG    1       -1.332   4.704  -1.318  0.00  0.00    -0.150 OA
ENDBRANCH   8  11
ENDBRANCH   3   5
BRANCH   1  16
ATOM     16  C   LIG    1        4.923   3.277   0.597  0.00  0.00    +0.280 C 
BRANCH  16  17
ATOM     17  C   LIG    1        5.392   4.646   0.099  0.00  0.00    +0.210 C 
BRANCH  17  22
ATOM     18  C   LIG    1        9.070   3.807  -0.121  0.00  0.00    +0.130 A 
ATOM     19  C   LIG    1        9.642   4.921   0.475  0.00  0.00    -0.070 A 
ATOM     20  C   LIG    1        8.837   5.941   0.947  0.00  0.00    +0.050 A 
ATOM     21  C   LIG    1        7.463   5.850   0.825  0.00  0.00    -0.020 A 
ATOM     22  C   LIG    1        6.891   4.741   0.230  0.00  0.00    -0.080 A 
ATOM     23  C   LIG    1        7.691   3.717  -0.238  0.00  0.00    -0.010 A 
BRANCH  18  25
ATOM     24  C   LIG    1       11.271   2.961  -0.426  0.00  0.00    +0.250 C 
ATOM     25  O   LIG    1        9.860   2.803  -0.585  0.00  0.00    -0.320 OA
ENDBRANCH  18  25
ENDBRANCH  17  22
BRANCH  17  26
ATOM     26  N   LIG    1        5.013   4.811  -1.310  0.00  0.00    -0.530 NA
ATOM     27  C   LIG    1        5.698   3.827  -2.159  0.00  0.00    +0.190 C 
ATOM     28  C   LIG    1        5.280   6.180  -1.770  0.00  0.00    +0.190 C 
ENDBRANCH  17  26
ENDBRANCH  16  17
ENDBRANCH   1  16
TORSDOF 7
