REMARK  Name = ZINCkj000005ksS2.0
REMARK                            x       y       z     vdW  Elec       q    Type
REMARK                         _______ _______ _______ _____ _____    ______ ____
ROOT
ATOM      1  S   LIG    1       -0.337   3.850   4.912  0.00  0.00    +2.680 S 
ATOM      2  O   LIG    1       -0.321   3.019   6.065  0.00  0.00    -0.930 OA
ATOM      3  O   LIG    1       -1.084   5.056   4.833  0.00  0.00    -0.930 OA
ENDROOT
BRANCH   1   9
ATOM      4  C   LIG    1        4.721   2.580   4.274  0.00  0.00    +0.110 C 
ATOM      5  C   LIG    1        3.651   3.642   4.303  0.00  0.00    -0.050 A 
ATOM      6  C   LIG    1        3.981   4.961   4.072  0.00  0.00    +0.090 A 
ATOM      7  C   LIG    1        2.999   5.936   4.096  0.00  0.00    +0.050 A 
ATOM      8  C   LIG    1        1.682   5.596   4.348  0.00  0.00    +0.140 A 
ATOM      9  C   LIG    1        1.340   4.281   4.586  0.00  0.00    -0.640 A 
ATOM     10  C   LIG    1        2.325   3.291   4.562  0.00  0.00    +0.050 A 
BRANCH  10  11
ATOM     11  C   LIG    1        1.976   1.923   4.803  0.00  0.00    +0.220 C 
ATOM     12  N   LIG    1        1.699   0.838   4.994  0.00  0.00    -0.360 NA
ENDBRANCH  10  11
ENDBRANCH   1   9
BRANCH   1  13
ATOM     13  N   LIG    1       -0.851   2.898   3.658  0.00  0.00    -1.000 NA
ATOM     14  C   LIG    1       -1.469   3.499   2.467  0.00  0.00    +0.330 C 
ATOM     15  C   LIG    1       -0.721   3.009   1.224  0.00  0.00    +0.040 C 
ATOM     16  C   LIG    1       -0.699   1.479   1.216  0.00  0.00    +0.180 C 
ATOM     17  C   LIG    1        0.041   0.972   2.456  0.00  0.00    +0.040 C 
ATOM     18  C   LIG    1       -0.698   1.438   3.714  0.00  0.00    +0.260 C 
ATOM     19  C   LIG    1       -2.078   0.780   3.772  0.00  0.00    +0.050 C 
BRANCH  16  20
ATOM     20  N   LIG    1       -0.012   1.005   0.008  0.00  0.00    -0.640 N 
ATOM     21  H   LIG    1       -0.500   1.339  -0.810  0.00  0.00    +0.440 HD
ATOM     22  H   LIG    1        0.935   1.354   0.000  0.00  0.00    +0.430 HD
ATOM     23  H   LIG    1        0.002  -0.004   0.002  0.00  0.00    +0.440 HD
ENDBRANCH  16  20
ENDBRANCH   1  13
TORSDOF 4
