REMARK  Name = ZINCqH0000051vBV.0
REMARK                            x       y       z     vdW  Elec       q    Type
REMARK                         _______ _______ _______ _____ _____    ______ ____
ROOT
ATOM      1  C   LIG    1       -0.385  -2.085   1.081  0.00  0.00    +0.350 A 
ATOM      2  N   LIG    1        0.027  -2.729   0.003  0.00  0.00    -0.440 NA
ATOM      3  C   LIG    1        0.066  -4.048  -0.045  0.00  0.00    +0.260 A 
ATOM      4  C   LIG    1       -0.337  -4.809   1.034  0.00  0.00    -0.020 A 
ATOM      5  C   LIG    1       -0.782  -4.176   2.186  0.00  0.00    +0.000 A 
ATOM      6  C   LIG    1       -0.807  -2.789   2.210  0.00  0.00    +0.040 A 
ENDROOT
BRANCH   1   9
ATOM      7  O   LIG    1        0.384  -0.600  -0.983  0.00  0.00    -0.470 OA
ATOM      8  C   LIG    1        0.002  -0.004   0.002  0.00  0.00    +0.540 C 
ATOM      9  N   LIG    1       -0.404  -0.690   1.089  0.00  0.00    -0.650 N 
ATOM     10  H   LIG    1       -0.710  -0.213   1.877  0.00  0.00    +0.420 HD
BRANCH   8  11
ATOM     11  C   LIG    1       -0.018   1.503   0.010  0.00  0.00    -0.050 C 
ATOM     12  C   LIG    1        1.329   2.228   0.001  0.00  0.00    +0.080 C 
ATOM     13  C   LIG    1        0.455   2.223  -1.254  0.00  0.00    +0.050 C 
BRANCH  13  14
ATOM     14  C   LIG    1       -0.239   3.508  -1.624  0.00  0.00    -0.060 A 
ATOM     15  C   LIG    1       -0.226   4.578  -0.748  0.00  0.00    +0.000 A 
ATOM     16  C   LIG    1       -0.858   5.758  -1.089  0.00  0.00    +0.000 A 
ATOM     17  C   LIG    1       -1.513   5.867  -2.302  0.00  0.00    +0.000 A 
ATOM     18  C   LIG    1       -1.531   4.795  -3.175  0.00  0.00    +0.000 A 
ATOM     19  C   LIG    1       -0.895   3.616  -2.836  0.00  0.00    +0.010 A 
ENDBRANCH  13  14
ENDBRANCH   8  11
ENDBRANCH   1   9
BRANCH   6  20
ATOM     20  O   LIG    1       -1.235  -2.126   3.317  0.00  0.00    -0.310 OA
BRANCH  20  21
ATOM     21  C   LIG    1       -1.650  -2.920   4.429  0.00  0.00    +0.260 C 
BRANCH  21  22
ATOM     22  C   LIG    1       -2.088  -2.019   5.555  0.00  0.00    -0.050 A 
ATOM     23  C   LIG    1       -1.182  -1.587   6.512  0.00  0.00    -0.010 A 
ATOM     24  C   LIG    1       -1.619  -0.757   7.527  0.00  0.00    +0.260 A 
ATOM     25  N   LIG    1       -2.882  -0.385   7.597  0.00  0.00    -0.480 NA
ATOM     26  C   LIG    1       -3.772  -0.780   6.708  0.00  0.00    +0.260 A 
ATOM     27  C   LIG    1       -3.407  -1.607   5.662  0.00  0.00    -0.010 A 
ENDBRANCH  21  22
ENDBRANCH  20  21
ENDBRANCH   6  20
TORSDOF 6
