REMARK  Name = ZINCnE00000rho5P.0
REMARK                            x       y       z     vdW  Elec       q    Type
REMARK                         _______ _______ _______ _____ _____    ______ ____
ROOT
ATOM      1  N   LIG    1        2.319   3.914   0.000  0.00  0.00    -0.120 NA
ATOM      2  N   LIG    1        2.286   5.204   0.007  0.00  0.00    -0.260 NA
ENDROOT
BRANCH   2   3
ATOM      3  C   LIG    1        3.438   5.909  -0.001  0.00  0.00    +0.040 A 
ATOM      4  C   LIG    1        4.676   5.258  -0.016  0.00  0.00    +0.150 A 
ATOM      5  C   LIG    1        5.860   5.994  -0.024  0.00  0.00    -0.020 A 
ATOM      6  C   LIG    1        5.858   7.353  -0.016  0.00  0.00    +0.050 A 
ATOM      7  C   LIG    1        4.650   8.073  -0.002  0.00  0.00    -0.070 A 
ATOM      8  C   LIG    1        4.639   9.478   0.006  0.00  0.00    +0.030 A 
ATOM      9  C   LIG    1        3.450  10.143   0.002  0.00  0.00    -0.010 A 
ATOM     10  C   LIG    1        2.242   9.451   0.010  0.00  0.00    +0.000 A 
ATOM     11  C   LIG    1        2.217   8.087   0.009  0.00  0.00    +0.040 A 
ATOM     12  C   LIG    1        3.419   7.373   0.001  0.00  0.00    +0.000 A 
BRANCH   4  13
ATOM     13  O   LIG    1        4.724   3.902  -0.024  0.00  0.00    -0.430 OA
ATOM     14  H   LIG    1        4.730   3.514  -0.909  0.00  0.00    +0.400 HD
ENDBRANCH   4  13
ENDBRANCH   2   3
BRANCH   1  21
ATOM     15  C   LIG    1        1.187   1.790   0.000  0.00  0.00    -0.060 A 
ATOM     16  C   LIG    1       -0.013   1.076   0.008  0.00  0.00    +0.060 A 
ATOM     17  C   LIG    1       -1.216   1.749   0.017  0.00  0.00    +0.030 A 
ATOM     18  C   LIG    1       -1.247   3.136   0.030  0.00  0.00    -0.050 A 
ATOM     19  C   LIG    1       -0.072   3.863   0.023  0.00  0.00    +0.030 A 
ATOM     20 CL   LIG    1       -2.773   3.964   0.049  0.00  0.00    -0.090 Cl
ATOM     21  C   LIG    1        1.156   3.202   0.008  0.00  0.00    +0.070 A 
BRANCH  15  23
ATOM     22  O   LIG    1        2.495  -0.146  -0.021  0.00  0.00    -0.690 OA
ATOM     23  C   LIG    1        2.474   1.077  -0.015  0.00  0.00    +0.510 C 
ATOM     24  O   LIG    1        3.523   1.707  -0.021  0.00  0.00    -0.630 OA
ENDBRANCH  15  23
ENDBRANCH   1  21
TORSDOF 4
