REMARK  Name = ZINCkj000005ksSc.0
REMARK                            x       y       z     vdW  Elec       q    Type
REMARK                         _______ _______ _______ _____ _____    ______ ____
ROOT
ATOM      1  S   LIG    1        3.920   2.283  -0.024  0.00  0.00    +2.680 S 
ATOM      2  O   LIG    1        4.953   1.308  -0.073  0.00  0.00    -0.940 OA
ATOM      3  O   LIG    1        3.822   3.260   1.004  0.00  0.00    -0.930 OA
ENDROOT
BRANCH   1   9
ATOM      4  C   LIG    1       -1.331   2.112   0.020  0.00  0.00    +0.120 C 
ATOM      5  C   LIG    1       -0.017   1.375   0.010  0.00  0.00    -0.050 A 
ATOM      6  C   LIG    1        0.002  -0.004   0.002  0.00  0.00    +0.090 A 
ATOM      7  C   LIG    1        1.208  -0.683  -0.013  0.00  0.00    +0.050 A 
ATOM      8  C   LIG    1        2.402   0.016  -0.021  0.00  0.00    +0.140 A 
ATOM      9  C   LIG    1        2.398   1.395  -0.014  0.00  0.00    -0.640 A 
ATOM     10  C   LIG    1        1.185   2.087   0.002  0.00  0.00    +0.060 A 
BRANCH  10  11
ATOM     11  C   LIG    1        1.173   3.518   0.009  0.00  0.00    +0.220 C 
ATOM     12  N   LIG    1        1.164   4.654   0.015  0.00  0.00    -0.360 NA
ENDBRANCH  10  11
ENDBRANCH   1   9
BRANCH   1  13
ATOM     13  N   LIG    1        3.993   3.115  -1.454  0.00  0.00    -1.000 NA
ATOM     14  C   LIG    1        4.604   2.506  -2.643  0.00  0.00    +0.330 C 
ATOM     15  C   LIG    1        5.677   3.447  -3.189  0.00  0.00    +0.060 C 
ATOM     16  C   LIG    1        5.064   4.828  -3.433  0.00  0.00    +0.170 C 
ATOM     17  C   LIG    1        4.545   5.399  -2.112  0.00  0.00    +0.060 C 
ATOM     18  C   LIG    1        3.454   4.478  -1.556  0.00  0.00    +0.270 C 
ATOM     19  C   LIG    1        2.249   4.483  -2.497  0.00  0.00    +0.030 C 
BRANCH  16  20
ATOM     20  N   LIG    1        6.087   5.726  -3.986  0.00  0.00    -0.640 N 
ATOM     21  H   LIG    1        5.682   6.636  -4.149  0.00  0.00    +0.440 HD
ATOM     22  H   LIG    1        6.429   5.349  -4.858  0.00  0.00    +0.440 HD
ATOM     23  H   LIG    1        6.850   5.809  -3.333  0.00  0.00    +0.430 HD
ENDBRANCH  16  20
ENDBRANCH   1  13
TORSDOF 4
