REMARK  Name = ZINCpe000000Z2gq.0
REMARK                            x       y       z     vdW  Elec       q    Type
REMARK                         _______ _______ _______ _____ _____    ______ ____
ROOT
ATOM      1  C   LIG    1        1.248   1.716  -0.001  0.00  0.00    +0.330 C 
ENDROOT
BRANCH   1   2
ATOM      2  C   LIG    1        2.406   0.752  -0.017  0.00  0.00    +0.530 C 
ATOM      3  N   LIG    1        3.671   1.218  -0.026  0.00  0.00    -0.610 N 
ATOM      4  C   LIG    1        4.062   2.640  -0.029  0.00  0.00    +0.290 C 
ATOM      5  C   LIG    1        5.491   2.656   0.575  0.00  0.00    +0.050 C 
ATOM      6  C   LIG    1        6.094   1.357  -0.022  0.00  0.00    +0.080 C 
ATOM      7  C   LIG    1        4.888   0.394  -0.043  0.00  0.00    +0.330 C 
ATOM      8  O   LIG    1        2.201  -0.443  -0.021  0.00  0.00    -0.530 OA
BRANCH   6   9
ATOM      9  C   LIG    1        7.206   0.814   0.876  0.00  0.00    +0.440 C 
ATOM     10  F   LIG    1        6.722   0.668   2.181  0.00  0.00    -0.170 F 
ATOM     11  F   LIG    1        8.284   1.705   0.875  0.00  0.00    -0.180 F 
ATOM     12  F   LIG    1        7.629  -0.430   0.395  0.00  0.00    -0.170 F 
ENDBRANCH   6   9
BRANCH   6  13
ATOM     13  O   LIG    1        6.581   1.584  -1.346  0.00  0.00    -0.520 OA
ATOM     14  H   LIG    1        7.340   2.183  -1.389  0.00  0.00    +0.390 HD
ENDBRANCH   6  13
ENDBRANCH   1   2
BRANCH   1  17
ATOM     15  O   LIG    1       -1.204   2.839   0.023  0.00  0.00    -0.520 OA
ATOM     16  C   LIG    1       -1.187   1.624   0.017  0.00  0.00    +0.570 C 
ATOM     17  N   LIG    1       -0.011   0.966   0.007  0.00  0.00    -0.710 N 
ATOM     18  H   LIG    1        0.002  -0.004   0.002  0.00  0.00    +0.410 HD
BRANCH  16  19
ATOM     19  C   LIG    1       -2.458   0.867   0.018  0.00  0.00    -0.130 A 
ATOM     20  C   LIG    1       -2.442  -0.528   0.011  0.00  0.00    +0.110 A 
ATOM     21  C   LIG    1       -3.631  -1.228   0.013  0.00  0.00    +0.040 A 
ATOM     22  C   LIG    1       -4.837  -0.550   0.022  0.00  0.00    +0.130 A 
ATOM     23  C   LIG    1       -4.859   0.834   0.030  0.00  0.00    -0.050 A 
ATOM     24  C   LIG    1       -3.678   1.546   0.034  0.00  0.00    +0.170 A 
BRANCH  23  25
ATOM     25  N   LIG    1       -6.154   1.551   0.041  0.00  0.00    +0.030 N 
ATOM     26  O   LIG    1       -6.175   2.769   0.048  0.00  0.00    -0.150 OA
ATOM     27  O   LIG    1       -7.197   0.924   0.042  0.00  0.00    -0.150 OA
ENDBRANCH  23  25
ENDBRANCH  16  19
ENDBRANCH   1  17
TORSDOF 6
