REMARK  Name = ZINCvU0000000HZA.0
REMARK                            x       y       z     vdW  Elec       q    Type
REMARK                         _______ _______ _______ _____ _____    ______ ____
ROOT
ATOM      1  C   LIG    1       -0.013   1.086   0.008  0.00  0.00    +0.180 C 
ENDROOT
BRANCH   1   2
ATOM      2  O   LIG    1       -0.682   1.547   1.184  0.00  0.00    -0.540 OA
ATOM      3  H   LIG    1       -0.732   2.510   1.256  0.00  0.00    +0.380 HD
ENDBRANCH   1   2
BRANCH   1   4
ATOM      4  C   LIG    1       -0.753   1.593  -1.232  0.00  0.00    +0.270 C 
BRANCH   4   5
ATOM      5  N   LIG    1       -2.127   1.086  -1.221  0.00  0.00    -0.990 NA
ATOM      6  C   LIG    1       -2.421  -0.244  -1.762  0.00  0.00    +0.300 C 
BRANCH   5   7
ATOM      7  S   LIG    1       -3.348   2.015  -0.598  0.00  0.00    +2.700 S 
ATOM      8  O   LIG    1       -2.737   2.926   0.305  0.00  0.00    -0.950 OA
ATOM      9  O   LIG    1       -4.381   1.117  -0.217  0.00  0.00    -0.950 OA
BRANCH   7  14
ATOM     10  C   LIG    1       -5.558   5.331  -5.128  0.00  0.00    +0.090 C 
ATOM     11  C   LIG    1       -5.006   4.503  -3.997  0.00  0.00    -0.030 A 
ATOM     12  C   LIG    1       -5.540   3.257  -3.728  0.00  0.00    -0.010 A 
ATOM     13  C   LIG    1       -5.034   2.497  -2.691  0.00  0.00    +0.120 A 
ATOM     14  C   LIG    1       -3.993   2.983  -1.921  0.00  0.00    -0.690 A 
ATOM     15  C   LIG    1       -3.463   4.232  -2.187  0.00  0.00    +0.120 A 
ATOM     16  C   LIG    1       -3.965   4.989  -3.228  0.00  0.00    -0.010 A 
ENDBRANCH   7  14
ENDBRANCH   5   7
ENDBRANCH   4   5
ENDBRANCH   1   4
BRANCH   1  17
ATOM     17  C   LIG    1        1.423   1.615  -0.003  0.00  0.00    +0.280 C 
BRANCH  17  18
ATOM     18  N   LIG    1        2.166   1.035   1.118  0.00  0.00    -0.490 N 
ATOM     19  C   LIG    1        2.256   1.594   2.381  0.00  0.00    +0.160 A 
ATOM     20  C   LIG    1        3.044   0.753   3.181  0.00  0.00    -0.100 A 
ATOM     21  C   LIG    1        3.454  -0.375   2.325  0.00  0.00    -0.090 A 
ATOM     22  C   LIG    1        4.234  -1.509   2.544  0.00  0.00    +0.090 A 
ATOM     23  C   LIG    1        4.441  -2.406   1.517  0.00  0.00    -0.070 A 
ATOM     24 CL   LIG    1        5.412  -3.819   1.785  0.00  0.00    -0.070 Cl
ATOM     25  C   LIG    1        3.876  -2.182   0.270  0.00  0.00    +0.070 A 
ATOM     26  C   LIG    1        3.103  -1.064   0.041  0.00  0.00    +0.000 A 
ATOM     27  C   LIG    1        3.291   1.085   4.511  0.00  0.00    +0.090 A 
ATOM     28  C   LIG    1        2.753   2.240   5.040  0.00  0.00    -0.060 A 
ATOM     29  C   LIG    1        1.968   3.069   4.251  0.00  0.00    +0.070 A 
ATOM     30 CL   LIG    1        3.058   2.657   6.697  0.00  0.00    -0.070 Cl
ATOM     31  C   LIG    1        1.717   2.752   2.934  0.00  0.00    +0.010 A 
ATOM     32  C   LIG    1        2.883  -0.147   1.065  0.00  0.00    +0.150 A 
ENDBRANCH  17  18
ENDBRANCH   1  17
TORSDOF 7
