REMARK  Name = ZINCbu00000003OB.0
REMARK                            x       y       z     vdW  Elec       q    Type
REMARK                         _______ _______ _______ _____ _____    ______ ____
ROOT
ATOM      1  C   LIG    1       -1.405  -0.526   0.137  0.00  0.00    -0.150 A 
ATOM      2  C   LIG    1       -2.055  -1.052  -0.964  0.00  0.00    +0.060 A 
ATOM      3  C   LIG    1       -3.347  -1.531  -0.841  0.00  0.00    +0.040 A 
ATOM      4  C   LIG    1       -3.988  -1.484   0.383  0.00  0.00    +0.080 A 
ATOM      5  C   LIG    1       -3.338  -0.959   1.484  0.00  0.00    +0.050 A 
ATOM      6  C   LIG    1       -2.044  -0.485   1.363  0.00  0.00    -0.030 A 
ATOM      7 CL   LIG    1       -1.225   0.168   2.748  0.00  0.00    -0.060 Cl
ENDROOT
BRANCH   1   8
ATOM      8  C   LIG    1        0.002  -0.004   0.002  0.00  0.00    +0.320 C 
BRANCH   8  10
ATOM      9  C   LIG    1        1.360   1.973  -0.000  0.00  0.00    +0.330 C 
ATOM     10  N   LIG    1       -0.018   1.465   0.010  0.00  0.00    -0.390 N 
ATOM     11  C   LIG    1       -0.728   1.951  -1.180  0.00  0.00    +0.330 C 
ATOM     12  H   LIG    1       -0.490   1.790   0.840  0.00  0.00    +0.420 HD
ENDBRANCH   8  10
ENDBRANCH   1   8
TORSDOF 2
