REMARK  Name = ZINCpk00000y6vrf.0
REMARK                            x       y       z     vdW  Elec       q    Type
REMARK                         _______ _______ _______ _____ _____    ______ ____
ROOT
ATOM      1  N   LIG    1       -0.033   0.917   0.058  0.00  0.00    -0.720 N 
ATOM      2  H   LIG    1       -0.042  -0.053   0.077  0.00  0.00    +0.400 HD
ATOM      3  C   LIG    1        1.141   1.579   0.053  0.00  0.00    +0.560 C 
ATOM      4  O   LIG    1        1.153   2.794   0.030  0.00  0.00    -0.520 OA
ENDROOT
BRANCH   1   9
ATOM      5  C   LIG    1       -0.180   1.374  -3.781  0.00  0.00    +0.100 C 
ATOM      6  C   LIG    1       -1.279   0.466  -3.292  0.00  0.00    +0.510 C 
ATOM      7  N   LIG    1       -1.925   0.748  -2.143  0.00  0.00    -0.610 N 
ATOM      8  C   LIG    1       -1.656   1.998  -1.420  0.00  0.00    +0.290 C 
ATOM      9  C   LIG    1       -1.294   1.661   0.030  0.00  0.00    +0.240 C 
ATOM     10  C   LIG    1       -2.405   0.807   0.643  0.00  0.00    +0.060 C 
ATOM     11  C   LIG    1       -2.536  -0.502  -0.139  0.00  0.00    +0.040 C 
ATOM     12  C   LIG    1       -2.912  -0.190  -1.590  0.00  0.00    +0.220 C 
ATOM     13  O   LIG    1       -1.582  -0.518  -3.933  0.00  0.00    -0.520 OA
BRANCH  12  14
ATOM     14  C   LIG    1       -2.908  -1.481  -2.410  0.00  0.00    +0.470 C 
ATOM     15  F   LIG    1       -1.600  -1.969  -2.506  0.00  0.00    -0.170 F 
ATOM     16  F   LIG    1       -3.403  -1.221  -3.693  0.00  0.00    -0.160 F 
ATOM     17  F   LIG    1       -3.717  -2.435  -1.783  0.00  0.00    -0.190 F 
ENDBRANCH  12  14
ENDBRANCH   1   9
BRANCH   3  18
ATOM     18  C   LIG    1        2.414   0.828   0.076  0.00  0.00    -0.150 A 
ATOM     19  C   LIG    1        2.402  -0.569   0.103  0.00  0.00    +0.070 A 
ATOM     20  C   LIG    1        3.591  -1.272   0.125  0.00  0.00    +0.010 A 
ATOM     21  C   LIG    1        4.797  -0.602   0.118  0.00  0.00    +0.070 A 
ATOM     22  C   LIG    1        4.824   0.795   0.091  0.00  0.00    -0.140 A 
ATOM     23  C   LIG    1        3.629   1.510   0.065  0.00  0.00    +0.150 A 
BRANCH  22  24
ATOM     24  C   LIG    1        6.117   1.512   0.085  0.00  0.00    +0.560 C 
ATOM     25  O   LIG    1        6.138   2.727   0.061  0.00  0.00    -0.530 OA
ATOM     26  N   LIG    1        7.272   0.818   0.106  0.00  0.00    -0.850 N 
ATOM     27  H   LIG    1        8.120   1.288   0.102  0.00  0.00    +0.410 HD
ATOM     28  H   LIG    1        7.255  -0.152   0.125  0.00  0.00    +0.400 HD
ENDBRANCH  22  24
ENDBRANCH   3  18
TORSDOF 4
