REMARK  Name = ZINCpe000000YeHt.0
REMARK                            x       y       z     vdW  Elec       q    Type
REMARK                         _______ _______ _______ _____ _____    ______ ____
ROOT
ATOM      1  C   LIG    1       -5.387  -3.650   1.092  0.00  0.00    +0.340 C 
ATOM      2  N   LIG    1       -4.361  -4.654   0.799  0.00  0.00    -0.510 N 
ATOM      3  C   LIG    1       -4.707  -5.947   0.653  0.00  0.00    +0.710 A 
ATOM      4  N   LIG    1       -3.793  -6.895   0.384  0.00  0.00    -0.650 N 
ATOM      5  H   LIG    1       -4.076  -7.817   0.285  0.00  0.00    +0.440 HD
ATOM      6  C   LIG    1       -2.487  -6.583   0.249  0.00  0.00    +0.600 A 
ATOM      7  C   LIG    1       -2.081  -5.245   0.393  0.00  0.00    -0.160 A 
ATOM      8  N   LIG    1       -0.861  -4.586   0.322  0.00  0.00    -0.410 N 
ATOM      9  C   LIG    1        0.445  -5.192   0.048  0.00  0.00    +0.350 C 
ATOM     10  C   LIG    1       -1.112  -3.271   0.554  0.00  0.00    +0.470 A 
ATOM     11  N   LIG    1       -2.401  -3.102   0.764  0.00  0.00    -0.520 NA
ATOM     12  O   LIG    1       -1.669  -7.452   0.004  0.00  0.00    -0.520 OA
ATOM     13  O   LIG    1       -5.875  -6.265   0.767  0.00  0.00    -0.530 OA
ATOM     14  C   LIG    1       -3.035  -4.272   0.672  0.00  0.00    +0.340 A 
ENDROOT
BRANCH  10  15
ATOM     15  N   LIG    1       -0.166  -2.272   0.572  0.00  0.00    -0.450 N 
ATOM     16  C   LIG    1        0.548  -2.190  -0.730  0.00  0.00    +0.220 C 
ATOM     17  C   LIG    1        0.286  -0.778  -1.284  0.00  0.00    +0.010 C 
ATOM     18  C   LIG    1        1.452  -0.126  -1.969  0.00  0.00    +0.030 C 
ATOM     19  C   LIG    1        1.063   1.296  -2.312  0.00  0.00    -0.000 C 
ATOM     20  C   LIG    1        1.795   2.345  -1.482  0.00  0.00    +0.020 C 
ATOM     21  C   LIG    1        1.445   1.977  -0.001  0.00  0.00    +0.000 C 
ATOM     22  C   LIG    1       -0.018   1.461   0.010  0.00  0.00    +0.090 C 
ATOM     23  C   LIG    1        0.002  -0.004   0.002  0.00  0.00    +0.040 C 
ATOM     24  C   LIG    1       -0.792  -0.945   0.858  0.00  0.00    +0.290 C 
BRANCH  23  25
ATOM     25  C   LIG    1        1.318  -0.233   0.621  0.00  0.00    +0.210 C 
ATOM     26  N   LIG    1        2.333  -0.409   1.099  0.00  0.00    -0.450 NA
ENDBRANCH  23  25
ENDBRANCH  10  15
TORSDOF 2
