REMARK  Name = ZINCvU00000008Ew.0
REMARK                            x       y       z     vdW  Elec       q    Type
REMARK                         _______ _______ _______ _____ _____    ______ ____
ROOT
ATOM      1  C   LIG    1        5.811   4.333   1.117  0.00  0.00    +0.190 C 
ATOM      2  C   LIG    1        4.409   4.386   0.568  0.00  0.00    +0.130 A 
ATOM      3  N   LIG    1        3.409   3.650   0.963  0.00  0.00    -0.230 NA
ATOM      4  N   LIG    1        2.263   3.975   0.228  0.00  0.00    -0.330 N 
ATOM      5  C   LIG    1        2.594   4.963  -0.667  0.00  0.00    +0.330 A 
ATOM      6  N   LIG    1        1.908   5.621  -1.588  0.00  0.00    -0.470 NA
ATOM      7  C   LIG    1        2.469   6.554  -2.345  0.00  0.00    +0.270 A 
ATOM      8  C   LIG    1        3.821   6.890  -2.205  0.00  0.00    +0.010 A 
ATOM      9  C   LIG    1        4.588   6.237  -1.248  0.00  0.00    +0.020 A 
ATOM     10  C   LIG    1        3.961   5.243  -0.460  0.00  0.00    -0.180 A 
ENDROOT
BRANCH   4  11
ATOM     11  C   LIG    1        0.999   3.390   0.376  0.00  0.00    +0.160 A 
ATOM     12  C   LIG    1        0.888   2.043   0.694  0.00  0.00    +0.020 A 
ATOM     13  C   LIG    1       -0.360   1.469   0.839  0.00  0.00    +0.030 A 
ATOM     14  C   LIG    1       -1.499   2.234   0.663  0.00  0.00    +0.010 A 
ATOM     15  C   LIG    1       -1.392   3.577   0.353  0.00  0.00    +0.030 A 
ATOM     16  C   LIG    1       -0.147   4.157   0.206  0.00  0.00    +0.020 A 
ENDBRANCH   4  11
BRANCH   7  17
ATOM     17  C   LIG    1        1.651   7.253  -3.355  0.00  0.00    -0.170 A 
ATOM     18  C   LIG    1        0.343   7.022  -3.594  0.00  0.00    +0.080 A 
ATOM     19  C   LIG    1       -0.208   7.804  -4.586  0.00  0.00    +0.010 A 
ATOM     20  C   LIG    1        0.637   8.663  -5.166  0.00  0.00    -0.020 A 
ATOM     21  S   LIG    1        2.231   8.510  -4.439  0.00  0.00    +0.150 S 
ENDBRANCH   7  17
BRANCH   9  22
ATOM     22  C   LIG    1        6.019   6.559  -1.069  0.00  0.00    +0.510 C 
ATOM     23  O   LIG    1        6.817   5.672  -0.839  0.00  0.00    -0.480 OA
BRANCH  22  24
ATOM     24  O   LIG    1        6.439   7.836  -1.162  0.00  0.00    -0.330 OA
BRANCH  24  25
ATOM     25  C   LIG    1        7.859   8.078  -0.975  0.00  0.00    +0.160 C 
ATOM     26  C   LIG    1        8.284   9.300  -1.796  0.00  0.00    +0.060 C 
ATOM     27  C   LIG    1        9.744   9.636  -1.487  0.00  0.00    +0.040 C 
ATOM     28  C   LIG    1        9.885  10.033  -0.017  0.00  0.00    +0.030 C 
ATOM     29  C   LIG    1        9.520   8.839   0.871  0.00  0.00    +0.030 C 
ATOM     30  C   LIG    1        8.139   8.358   0.485  0.00  0.00    +0.350 C 
ATOM     31  O   LIG    1        7.281   8.201   1.321  0.00  0.00    -0.430 OA
ENDBRANCH  24  25
ENDBRANCH  22  24
ENDBRANCH   9  22
TORSDOF 5
