REMARK  Name = ZINCqH0000007f1N.0
REMARK                            x       y       z     vdW  Elec       q    Type
REMARK                         _______ _______ _______ _____ _____    ______ ____
ROOT
ATOM      1  C   LIG    1        1.574   3.079   0.003  0.00  0.00    +0.490 A 
ATOM      2  C   LIG    1        0.531   3.985   0.018  0.00  0.00    -0.150 A 
ATOM      3  C   LIG    1       -0.778   3.508   0.028  0.00  0.00    +0.280 A 
ATOM      4  N   LIG    1       -1.016   2.213   0.029  0.00  0.00    -0.500 NA
ATOM      5  C   LIG    1       -0.016   1.324   0.009  0.00  0.00    +0.500 A 
ATOM      6  N   LIG    1        0.002  -0.004   0.002  0.00  0.00    -0.500 NA
ATOM      7  C   LIG    1        1.257  -0.435  -0.012  0.00  0.00    +0.200 A 
ATOM      8  N   LIG    1        2.075   0.589  -0.015  0.00  0.00    -0.290 NA
ATOM      9  C   LIG    1       -1.929   4.481   0.043  0.00  0.00    +0.170 C 
ATOM     10  N   LIG    1        1.284   1.745  -0.001  0.00  0.00    -0.350 N 
ENDROOT
BRANCH   7  11
ATOM     11  C   LIG    1        1.678  -1.882  -0.023  0.00  0.00    +0.580 C 
ATOM     12  F   LIG    1        2.148  -2.241   1.245  0.00  0.00    -0.160 F 
ATOM     13  F   LIG    1        2.695  -2.065  -0.966  0.00  0.00    -0.160 F 
ATOM     14  F   LIG    1        0.582  -2.684  -0.358  0.00  0.00    -0.150 F 
ENDBRANCH   7  11
BRANCH   1  15
ATOM     15  N   LIG    1        2.881   3.514  -0.007  0.00  0.00    -0.580 N 
ATOM     16  C   LIG    1        3.976   2.541  -0.023  0.00  0.00    +0.320 C 
BRANCH  15  17
ATOM     17  C   LIG    1        3.175   4.949  -0.003  0.00  0.00    +0.380 C 
BRANCH  17  24
ATOM     18  C   LIG    1        4.463   5.226   2.131  0.00  0.00    +0.150 A 
ATOM     19  C   LIG    1        4.567   5.673   3.439  0.00  0.00    -0.060 A 
ATOM     20  C   LIG    1        3.502   6.324   4.032  0.00  0.00    +0.080 A 
ATOM     21  C   LIG    1        2.333   6.530   3.321  0.00  0.00    -0.070 A 
ATOM     22  C   LIG    1        2.230   6.090   2.013  0.00  0.00    +0.090 A 
ATOM     23 CL   LIG    1        0.997   7.349   4.069  0.00  0.00    -0.060 Cl
ATOM     24  C   LIG    1        3.291   5.434   1.419  0.00  0.00    -0.140 A 
BRANCH  18  26
ATOM     25  C   LIG    1        6.686   4.406   2.337  0.00  0.00    +0.250 C 
ATOM     26  O   LIG    1        5.510   4.585   1.546  0.00  0.00    -0.310 OA
ENDBRANCH  18  26
ENDBRANCH  17  24
ENDBRANCH  15  17
ENDBRANCH   1  15
TORSDOF 5
