REMARK  Name = ZINCqH00000036Ce.0
REMARK                            x       y       z     vdW  Elec       q    Type
REMARK                         _______ _______ _______ _____ _____    ______ ____
ROOT
ATOM      1  N   LIG    1       -3.153   0.151   2.115  0.00  0.00    -0.600 N 
ATOM      2  C   LIG    1       -2.631  -0.999   2.586  0.00  0.00    +0.560 C 
ATOM      3  O   LIG    1       -1.774  -1.582   1.951  0.00  0.00    -0.500 OA
ENDROOT
BRANCH   2   4
ATOM      4  C   LIG    1       -3.099  -1.550   3.875  0.00  0.00    +0.010 A 
ATOM      5  C   LIG    1       -3.681  -2.835   3.951  0.00  0.00    -0.190 A 
ATOM      6  C   LIG    1       -3.961  -3.840   3.001  0.00  0.00    +0.120 A 
ATOM      7  N   LIG    1       -4.513  -4.848   3.613  0.00  0.00    -0.240 NA
ATOM      8  N   LIG    1       -4.627  -4.567   4.980  0.00  0.00    -0.390 N 
ATOM      9  C   LIG    1       -5.197  -5.456   5.995  0.00  0.00    +0.360 C 
ATOM     10  C   LIG    1       -3.668  -3.761   1.524  0.00  0.00    +0.180 C 
ATOM     11  C   LIG    1       -4.112  -3.316   5.204  0.00  0.00    +0.320 A 
ATOM     12  N   LIG    1       -3.971  -2.570   6.289  0.00  0.00    -0.490 NA
ATOM     13  C   LIG    1       -3.434  -1.371   6.245  0.00  0.00    +0.200 A 
ATOM     14  C   LIG    1       -3.304  -0.576   7.519  0.00  0.00    +0.140 C 
ATOM     15  C   LIG    1       -2.977  -0.822   5.057  0.00  0.00    -0.040 A 
ENDBRANCH   2   4
BRANCH   1  17
ATOM     16  C   LIG    1       -5.540   0.478   2.532  0.00  0.00    +0.020 C 
ATOM     17  C   LIG    1       -4.122   0.899   2.920  0.00  0.00    +0.260 C 
ENDBRANCH   1  17
BRANCH   1  18
ATOM     18  C   LIG    1       -2.751   0.653   0.798  0.00  0.00    +0.360 C 
BRANCH  18  19
ATOM     19  C   LIG    1       -1.667   1.686   0.964  0.00  0.00    -0.130 A 
ATOM     20  C   LIG    1       -1.985   3.030   0.960  0.00  0.00    +0.080 A 
ATOM     21  C   LIG    1       -0.989   3.978   1.106  0.00  0.00    -0.110 A 
ATOM     22  C   LIG    1        0.328   3.583   1.261  0.00  0.00    +0.070 A 
ATOM     23  C   LIG    1        0.650   2.240   1.271  0.00  0.00    -0.010 A 
ATOM     24 BR   LIG    1       -1.428   5.818   1.093  0.00  0.00    -0.050 Br
ATOM     25  C   LIG    1       -0.347   1.287   1.125  0.00  0.00    +0.150 A 
BRANCH  25  26
ATOM     26  O   LIG    1       -0.032  -0.035   1.135  0.00  0.00    -0.480 OA
ATOM     27  H   LIG    1        0.045  -0.414   2.021  0.00  0.00    +0.390 HD
ENDBRANCH  25  26
ENDBRANCH  18  19
ENDBRANCH   1  18
TORSDOF 5
