REMARK  Name = ZINCrD00000hQ70M.2
REMARK                            x       y       z     vdW  Elec       q    Type
REMARK                         _______ _______ _______ _____ _____    ______ ____
ROOT
ATOM      1  O   LIG    1       -2.829   3.715  -1.694  0.00  0.00    -0.590 OA
ATOM      2  C   LIG    1       -1.737   4.227  -1.542  0.00  0.00    +0.710 C 
ATOM      3  N   LIG    1       -0.648   3.453  -1.366  0.00  0.00    -0.630 N 
ATOM      4  C   LIG    1        0.699   4.040  -1.289  0.00  0.00    +0.280 C 
ATOM      5  C   LIG    1        1.367   3.525  -0.012  0.00  0.00    +0.170 C 
ATOM      6  N   LIG    1        1.351   2.052   0.004  0.00  0.00    -0.520 NA
ATOM      7  C   LIG    1        2.119   1.577   1.166  0.00  0.00    +0.160 C 
ATOM      8  C   LIG    1        2.204   0.052   1.156  0.00  0.00    +0.020 C 
ATOM      9  C   LIG    1        0.784  -0.521   1.212  0.00  0.00    +0.010 C 
ATOM     10  C   LIG    1        0.001  -0.004   0.005  0.00  0.00    +0.030 C 
ATOM     11  C   LIG    1       -0.020   1.529   0.013  0.00  0.00    +0.120 C 
ATOM     12  C   LIG    1       -0.766   1.994  -1.245  0.00  0.00    +0.310 C 
ATOM     13  N   LIG    1       -1.615   5.569  -1.549  0.00  0.00    -0.740 N 
ATOM     14  H   LIG    1       -0.736   5.977  -1.502  0.00  0.00    +0.390 HD
ENDROOT
BRANCH  13  15
ATOM     15  C   LIG    1       -2.810   6.413  -1.629  0.00  0.00    +0.250 C 
ATOM     16  C   LIG    1       -3.214   6.588  -3.095  0.00  0.00    +0.030 C 
ATOM     17  C   LIG    1       -4.462   7.470  -3.178  0.00  0.00    +0.010 C 
ATOM     18  C   LIG    1       -4.161   8.838  -2.564  0.00  0.00    +0.180 C 
ATOM     19  C   LIG    1       -3.758   8.663  -1.099  0.00  0.00    +0.050 C 
ATOM     20  C   LIG    1       -2.510   7.782  -1.016  0.00  0.00    +0.030 C 
BRANCH  18  21
ATOM     21  O   LIG    1       -5.327   9.661  -2.642  0.00  0.00    -0.290 OA
BRANCH  21  22
ATOM     22  C   LIG    1       -5.471  10.422  -3.757  0.00  0.00    +0.340 A 
ATOM     23  N   LIG    1       -4.548  10.379  -4.703  0.00  0.00    -0.530 NA
ATOM     24  C   LIG    1       -4.651  11.098  -5.805  0.00  0.00    +0.310 A 
ATOM     25  C   LIG    1       -5.730  11.935  -6.005  0.00  0.00    -0.050 A 
ATOM     26  C   LIG    1       -6.718  12.014  -5.033  0.00  0.00    +0.120 A 
ATOM     27  C   LIG    1       -6.584  11.244  -3.891  0.00  0.00    -0.110 A 
ATOM     28 CL   LIG    1       -7.790  11.302  -2.643  0.00  0.00    -0.040 Cl
ENDBRANCH  21  22
ENDBRANCH  18  21
ENDBRANCH  13  15
TORSDOF 3
