REMARK  Name = ZINCrD000000CWKI.0
REMARK                            x       y       z     vdW  Elec       q    Type
REMARK                         _______ _______ _______ _____ _____    ______ ____
ROOT
ATOM      1  N   LIG    1       -1.217   2.068   0.030  0.00  0.00    -0.500 N 
ATOM      2  C   LIG    1       -1.203   3.419   0.032  0.00  0.00    +0.520 A 
ATOM      3  C   LIG    1        0.085   4.121   0.023  0.00  0.00    +0.020 A 
ATOM      4  N   LIG    1        1.200   3.447   0.009  0.00  0.00    -0.330 NA
ATOM      5  C   LIG    1        1.197   2.101   0.002  0.00  0.00    +0.030 A 
ATOM      6  C   LIG    1        2.409   1.395  -0.013  0.00  0.00    +0.160 A 
ATOM      7  C   LIG    1        2.404   0.030  -0.021  0.00  0.00    +0.060 A 
ATOM      8  C   LIG    1        1.207  -0.673  -0.013  0.00  0.00    -0.100 A 
ATOM      9  C   LIG    1        0.002  -0.004   0.002  0.00  0.00    +0.050 A 
ATOM     10  O   LIG    1       -2.246   4.047   0.046  0.00  0.00    -0.480 OA
ATOM     11  C   LIG    1       -0.017   1.387   0.010  0.00  0.00    +0.170 A 
ENDROOT
BRANCH   8  12
ATOM     12  C   LIG    1        1.225  -2.180  -0.022  0.00  0.00    +0.510 C 
ATOM     13  F   LIG    1        0.094  -2.664   0.645  0.00  0.00    -0.170 F 
ATOM     14  F   LIG    1        2.379  -2.636   0.624  0.00  0.00    -0.170 F 
ATOM     15  F   LIG    1        1.218  -2.639  -1.343  0.00  0.00    -0.170 F 
ENDBRANCH   8  12
BRANCH   3  16
ATOM     16  C   LIG    1        0.119   5.628   0.032  0.00  0.00    +0.540 C 
ATOM     17  F   LIG    1       -0.519   6.103   1.183  0.00  0.00    -0.160 F 
ATOM     18  F   LIG    1       -0.540   6.115  -1.102  0.00  0.00    -0.160 F 
ATOM     19  F   LIG    1        1.449   6.064   0.021  0.00  0.00    -0.150 F 
ENDBRANCH   3  16
BRANCH   1  20
ATOM     20  C   LIG    1       -2.487   1.338   0.044  0.00  0.00    +0.310 C 
BRANCH  20  21
ATOM     21  C   LIG    1       -2.909   1.075   1.491  0.00  0.00    +0.060 C 
BRANCH  21  27
ATOM     22  O   LIG    1       -3.705  -1.353  -0.168  0.00  0.00    -0.450 OA
ATOM     23  C   LIG    1       -4.044  -1.087   0.961  0.00  0.00    +0.480 C 
ATOM     24  O   LIG    1       -4.308  -1.986   1.923  0.00  0.00    -0.340 OA
ATOM     25  C   LIG    1       -5.137  -1.379   2.957  0.00  0.00    +0.260 C 
ATOM     26  C   LIG    1       -4.725   0.111   2.957  0.00  0.00    +0.040 C 
ATOM     27  C   LIG    1       -4.235   0.312   1.505  0.00  0.00    -0.020 C 
ENDBRANCH  21  27
ENDBRANCH  20  21
ENDBRANCH   1  20
TORSDOF 5
