REMARK  Name = ZINCpk00000l8ujc.0
REMARK                            x       y       z     vdW  Elec       q    Type
REMARK                         _______ _______ _______ _____ _____    ______ ____
ROOT
ATOM      1  N   LIG    1       -2.954   4.259  -1.310  0.00  0.00    -0.530 NA
ATOM      2  C   LIG    1       -2.021   5.299  -1.766  0.00  0.00    +0.230 C 
ATOM      3  C   LIG    1       -2.365   5.695  -3.204  0.00  0.00    +0.260 C 
ATOM      4  N   LIG    1       -3.746   6.194  -3.256  0.00  0.00    -0.380 N 
ATOM      5  C   LIG    1       -4.668   5.137  -2.822  0.00  0.00    +0.260 C 
ATOM      6  H   LIG    1       -3.838   6.992  -2.646  0.00  0.00    +0.420 HD
ATOM      7  C   LIG    1       -4.342   4.736  -1.381  0.00  0.00    +0.210 C 
ENDROOT
BRANCH   1   8
ATOM      8  C   LIG    1       -2.620   3.811   0.048  0.00  0.00    +0.260 C 
BRANCH   8  15
ATOM      9  C   LIG    1        2.243   5.279   0.007  0.00  0.00    -0.030 A 
ATOM     10  C   LIG    1        2.337   3.916   0.000  0.00  0.00    +0.090 A 
ATOM     11  C   LIG    1        1.145   3.167   0.008  0.00  0.00    -0.100 A 
ATOM     12  C   LIG    1        1.163   1.764   0.000  0.00  0.00    +0.040 A 
ATOM     13  C   LIG    1       -0.013   1.076   0.008  0.00  0.00    +0.010 A 
ATOM     14  C   LIG    1       -1.234   1.747   0.017  0.00  0.00    +0.060 A 
ATOM     15  C   LIG    1       -1.288   3.107   0.032  0.00  0.00    -0.070 A 
ATOM     16  C   LIG    1       -0.096   3.852   0.024  0.00  0.00    +0.130 A 
ATOM     17  N   LIG    1       -0.118   5.189   0.030  0.00  0.00    -0.490 NA
ATOM     18  C   LIG    1        0.990   5.889   0.022  0.00  0.00    +0.300 A 
ENDBRANCH   8  15
ENDBRANCH   1   8
BRANCH   4  19
ATOM     19  C   LIG    1       -4.070   6.591  -4.633  0.00  0.00    +0.250 C 
BRANCH  19  20
ATOM     20  C   LIG    1       -3.034   7.602  -5.130  0.00  0.00    +0.030 C 
BRANCH  20  21
ATOM     21  C   LIG    1       -3.372   8.015  -6.564  0.00  0.00    +0.170 C 
BRANCH  21  22
ATOM     22  C   LIG    1       -2.352   9.011  -7.053  0.00  0.00    +0.030 A 
ATOM     23  N   LIG    1       -2.420  10.330  -6.944  0.00  0.00    -0.380 NA
ATOM     24  N   LIG    1       -1.356  10.820  -7.481  0.00  0.00    -0.190 NA
ATOM     25  N   LIG    1       -0.630   9.856  -7.930  0.00  0.00    -0.190 NA
ATOM     26  N   LIG    1       -1.218   8.736  -7.681  0.00  0.00    -0.380 NA
ENDBRANCH  21  22
ENDBRANCH  20  21
ENDBRANCH  19  20
ENDBRANCH   4  19
TORSDOF 6
