REMARK  Name = ZINCpk00000l8ujc.1
REMARK                            x       y       z     vdW  Elec       q    Type
REMARK                         _______ _______ _______ _____ _____    ______ ____
ROOT
ATOM      1  N   LIG    1        1.049  -2.667  -1.386  0.00  0.00    -0.380 N 
ATOM      2  C   LIG    1       -0.317  -2.318  -1.800  0.00  0.00    +0.280 C 
ATOM      3  C   LIG    1       -0.559  -2.812  -3.228  0.00  0.00    +0.190 C 
ATOM      4  N   LIG    1       -0.371  -4.268  -3.277  0.00  0.00    -0.540 NA
ATOM      5  C   LIG    1        0.984  -4.635  -2.842  0.00  0.00    +0.210 C 
ATOM      6  C   LIG    1        1.214  -4.126  -1.417  0.00  0.00    +0.270 C 
ATOM      7  H   LIG    1        1.710  -2.240  -2.017  0.00  0.00    +0.410 HD
ENDROOT
BRANCH   1   8
ATOM      8  C   LIG    1        1.287  -2.177  -0.022  0.00  0.00    +0.330 C 
BRANCH   8  15
ATOM      9  C   LIG    1       -2.395   1.322   0.033  0.00  0.00    -0.020 A 
ATOM     10  C   LIG    1       -1.257   2.079   0.031  0.00  0.00    +0.110 A 
ATOM     11  C   LIG    1       -0.017   1.413   0.010  0.00  0.00    -0.110 A 
ATOM     12  C   LIG    1        1.194   2.123   0.002  0.00  0.00    +0.090 A 
ATOM     13  C   LIG    1        2.373   1.443  -0.014  0.00  0.00    +0.010 A 
ATOM     14  C   LIG    1        2.394   0.050  -0.021  0.00  0.00    +0.090 A 
ATOM     15  C   LIG    1        1.240  -0.670  -0.014  0.00  0.00    -0.150 A 
ATOM     16  C   LIG    1        0.002  -0.004   0.002  0.00  0.00    +0.140 A 
ATOM     17  N   LIG    1       -1.148  -0.685   0.010  0.00  0.00    -0.500 NA
ATOM     18  C   LIG    1       -2.305  -0.068   0.025  0.00  0.00    +0.330 A 
ENDBRANCH   8  15
ENDBRANCH   1   8
BRANCH   4  19
ATOM     19  C   LIG    1       -0.651  -4.789  -4.622  0.00  0.00    +0.190 C 
BRANCH  19  20
ATOM     20  C   LIG    1       -2.137  -4.609  -4.940  0.00  0.00    +0.030 C 
BRANCH  20  21
ATOM     21  C   LIG    1       -2.429  -5.151  -6.341  0.00  0.00    +0.130 C 
BRANCH  21  22
ATOM     22  C   LIG    1       -3.892  -4.973  -6.654  0.00  0.00    +0.050 A 
ATOM     23  N   LIG    1       -4.864  -5.840  -6.409  0.00  0.00    -0.390 NA
ATOM     24  N   LIG    1       -5.967  -5.316  -6.822  0.00  0.00    -0.190 NA
ATOM     25  N   LIG    1       -5.718  -4.156  -7.322  0.00  0.00    -0.200 NA
ATOM     26  N   LIG    1       -4.454  -3.921  -7.232  0.00  0.00    -0.390 NA
ENDBRANCH  21  22
ENDBRANCH  20  21
ENDBRANCH  19  20
ENDBRANCH   4  19
TORSDOF 6
