REMARK  Name = ZINCvU0000000B3W.0
REMARK                            x       y       z     vdW  Elec       q    Type
REMARK                         _______ _______ _______ _____ _____    ______ ____
ROOT
ATOM      1  N   LIG    1       -0.020   1.094   2.454  0.00  0.00    -0.480 N 
ATOM      2  C   LIG    1        1.005   1.739   3.115  0.00  0.00    +0.060 A 
ATOM      3  C   LIG    1        1.669   2.944   2.929  0.00  0.00    +0.010 A 
ATOM      4  C   LIG    1        2.679   3.308   3.794  0.00  0.00    +0.040 A 
ATOM      5  C   LIG    1        3.035   2.479   4.848  0.00  0.00    +0.000 A 
ATOM      6  C   LIG    1        2.393   1.290   5.047  0.00  0.00    +0.070 A 
ATOM      7  C   LIG    1        1.366   0.900   4.184  0.00  0.00    +0.040 A 
ATOM      8  N   LIG    1        0.559  -0.190   4.120  0.00  0.00    -0.470 NA
ATOM      9  C   LIG    1       -0.255  -0.074   3.111  0.00  0.00    +0.260 A 
ENDROOT
BRANCH   1  10
ATOM     10  C   LIG    1       -0.729   1.579   1.267  0.00  0.00    +0.310 C 
BRANCH  10  11
ATOM     11  C   LIG    1       -0.013   1.086   0.008  0.00  0.00    +0.020 C 
BRANCH  11  12
ATOM     12  C   LIG    1       -0.753   1.593  -1.232  0.00  0.00    +0.040 C 
BRANCH  12  13
ATOM     13  C   LIG    1       -0.037   1.099  -2.490  0.00  0.00    +0.180 C 
BRANCH  13  14
ATOM     14  O   LIG    1       -0.728   1.573  -3.648  0.00  0.00    -0.310 OA
BRANCH  14  20
ATOM     15  C   LIG    1       -0.992   1.748  -8.518  0.00  0.00    +0.090 C 
ATOM     16  C   LIG    1       -0.318   1.287  -7.252  0.00  0.00    -0.050 A 
ATOM     17  C   LIG    1        0.820   0.505  -7.320  0.00  0.00    -0.030 A 
ATOM     18  C   LIG    1        1.440   0.080  -6.160  0.00  0.00    +0.040 A 
ATOM     19  C   LIG    1        0.927   0.441  -4.929  0.00  0.00    -0.090 A 
ATOM     20  C   LIG    1       -0.218   1.221  -4.858  0.00  0.00    +0.130 A 
ATOM     21  C   LIG    1       -0.839   1.646  -6.023  0.00  0.00    -0.120 A 
ATOM     22  C   LIG    1       -2.079   2.498  -5.949  0.00  0.00    +0.100 C 
ENDBRANCH  14  20
ENDBRANCH  13  14
ENDBRANCH  12  13
ENDBRANCH  11  12
ENDBRANCH  10  11
ENDBRANCH   1  10
BRANCH   9  23
ATOM     23  C   LIG    1       -1.302  -1.087   2.726  0.00  0.00    +0.400 C 
BRANCH  23  24
ATOM     24  N   LIG    1       -0.723  -2.055   1.791  0.00  0.00    -0.720 N 
ATOM     25  H   LIG    1        0.204  -1.973   1.520  0.00  0.00    +0.410 HD
ATOM     26  C   LIG    1       -1.480  -3.060   1.308  0.00  0.00    +0.610 C 
ATOM     27  O   LIG    1       -2.644  -3.163   1.648  0.00  0.00    -0.510 OA
BRANCH  26  28
ATOM     28  C   LIG    1       -0.901  -4.029   0.372  0.00  0.00    -0.090 A 
ATOM     29  C   LIG    1       -1.552  -5.093  -0.186  0.00  0.00    +0.050 A 
ATOM     30  C   LIG    1       -0.624  -5.743  -1.015  0.00  0.00    -0.060 A 
ATOM     31  C   LIG    1        0.540  -5.063  -0.920  0.00  0.00    +0.210 A 
ATOM     32  O   LIG    1        0.369  -4.031  -0.083  0.00  0.00    -0.170 OA
ENDBRANCH  26  28
ENDBRANCH  23  24
ENDBRANCH   9  23
TORSDOF 9
