REMARK  Name = ZINCqH0000031SLd.0
REMARK                            x       y       z     vdW  Elec       q    Type
REMARK                         _______ _______ _______ _____ _____    ______ ____
ROOT
ATOM      1  C   LIG    1        4.757   5.503   1.353  0.00  0.00    +0.260 C 
ATOM      2  C   LIG    1        3.359   6.115   1.454  0.00  0.00    +0.030 C 
ATOM      3  C   LIG    1        2.541   5.716   0.222  0.00  0.00    +0.290 C 
ATOM      4  N   LIG    1        2.551   4.251   0.102  0.00  0.00    -0.610 N 
ATOM      5  C   LIG    1        3.843   3.552   0.094  0.00  0.00    +0.270 C 
ATOM      6  C   LIG    1        1.396   3.562   0.008  0.00  0.00    +0.530 C 
ATOM      7  O   LIG    1        0.341   4.155  -0.075  0.00  0.00    -0.540 OA
ATOM      8  C   LIG    1        4.646   3.976   1.322  0.00  0.00    +0.000 C 
ENDROOT
BRANCH   6   9
ATOM      9  C   LIG    1        1.416   2.055   0.006  0.00  0.00    -0.070 C 
ATOM     10  C   LIG    1       -0.018   1.526  -0.068  0.00  0.00    +0.050 C 
ATOM     11  C   LIG    1        0.003  -0.004  -0.070  0.00  0.00    -0.020 C 
ATOM     12  C   LIG    1        0.793  -0.501  -1.282  0.00  0.00    +0.010 C 
ATOM     13  C   LIG    1        2.227   0.028  -1.208  0.00  0.00    +0.000 C 
ATOM     14  C   LIG    1        2.890  -0.475   0.075  0.00  0.00    +0.020 C 
ATOM     15  C   LIG    1        2.100   0.022   1.287  0.00  0.00    -0.010 C 
ATOM     16  C   LIG    1        0.667  -0.506   1.214  0.00  0.00    +0.010 C 
ATOM     17  C   LIG    1        2.206   1.557  -1.206  0.00  0.00    +0.030 C 
ATOM     18  C   LIG    1        2.080   1.552   1.289  0.00  0.00    +0.040 C 
ENDBRANCH   6   9
BRANCH   1  20
ATOM     19  C   LIG    1        6.898   5.941   2.432  0.00  0.00    +0.650 C 
ATOM     20  N   LIG    1        5.553   5.910   2.514  0.00  0.00    -0.710 N 
ATOM     21  H   LIG    1        5.112   6.157   3.342  0.00  0.00    +0.410 HD
ATOM     22  O   LIG    1        7.450   5.632   1.395  0.00  0.00    -0.570 OA
BRANCH  19  23
ATOM     23  O   LIG    1        7.629   6.315   3.499  0.00  0.00    -0.370 OA
BRANCH  23  25
ATOM     24  C   LIG    1        9.453   7.296   2.217  0.00  0.00    +0.040 C 
ATOM     25  C   LIG    1        9.072   6.326   3.338  0.00  0.00    +0.140 C 
ATOM     26  C   LIG    1        9.556   4.919   2.981  0.00  0.00    +0.040 C 
ATOM     27  C   LIG    1        9.728   6.774   4.645  0.00  0.00    +0.080 C 
ENDBRANCH  23  25
ENDBRANCH  19  23
ENDBRANCH   1  20
TORSDOF 4
