REMARK  Name = ZINCrD0000072BwF.0
REMARK                            x       y       z     vdW  Elec       q    Type
REMARK                         _______ _______ _______ _____ _____    ______ ____
ROOT
ATOM      1  C   LIG    1        2.044   3.032  -0.074  0.00  0.00    +0.380 C 
ENDROOT
BRANCH   1   2
ATOM      2  C   LIG    1        2.614   3.607  -1.345  0.00  0.00    -0.090 A 
ATOM      3  C   LIG    1        3.982   3.626  -1.543  0.00  0.00    +0.060 A 
ATOM      4  C   LIG    1        4.505   4.149  -2.710  0.00  0.00    +0.030 A 
ATOM      5  C   LIG    1        3.659   4.663  -3.677  0.00  0.00    -0.020 A 
ATOM      6  C   LIG    1        2.290   4.649  -3.477  0.00  0.00    +0.030 A 
ATOM      7 CL   LIG    1        4.316   5.327  -5.141  0.00  0.00    -0.070 Cl
ATOM      8  C   LIG    1        1.768   4.122  -2.311  0.00  0.00    +0.050 A 
ENDBRANCH   1   2
BRANCH   1  14
ATOM      9  C   LIG    1       -0.575   1.378  -0.140  0.00  0.00    +0.320 C 
ATOM     10  N   LIG    1        0.781   0.830  -0.231  0.00  0.00    -0.450 N 
ATOM     11  C   LIG    1        1.116  -0.490  -0.362  0.00  0.00    +0.130 A 
ATOM     12  C   LIG    1        2.461  -0.547  -0.414  0.00  0.00    +0.160 A 
ATOM     13  N   LIG    1        2.933   0.704  -0.316  0.00  0.00    -0.460 NA
ATOM     14  C   LIG    1        1.933   1.535  -0.206  0.00  0.00    +0.200 A 
ENDBRANCH   1  14
BRANCH   1  15
ATOM     15  N   LIG    1        2.926   3.359   1.048  0.00  0.00    -0.990 NA
ATOM     16  C   LIG    1        3.621   2.289   1.770  0.00  0.00    +0.330 C 
BRANCH  15  17
ATOM     17  S   LIG    1        3.139   4.937   1.502  0.00  0.00    +2.680 S 
ATOM     18  O   LIG    1        2.637   5.732   0.437  0.00  0.00    -0.930 OA
ATOM     19  O   LIG    1        4.471   5.039   1.987  0.00  0.00    -0.930 OA
BRANCH  17  20
ATOM     20  C   LIG    1        2.084   5.230   2.882  0.00  0.00    -0.640 A 
ATOM     21  C   LIG    1        2.623   5.413   4.138  0.00  0.00    +0.140 A 
ATOM     22  C   LIG    1        1.796   5.643   5.223  0.00  0.00    +0.040 A 
ATOM     23  C   LIG    1        0.423   5.691   5.056  0.00  0.00    +0.090 A 
ATOM     24  C   LIG    1       -0.130   5.509   3.806  0.00  0.00    +0.060 A 
ATOM     25  C   LIG    1        0.699   5.283   2.706  0.00  0.00    +0.070 A 
BRANCH  25  26
ATOM     26  C   LIG    1        0.133   5.099   1.403  0.00  0.00    +0.220 C 
ATOM     27  N   LIG    1       -0.317   4.954   0.370  0.00  0.00    -0.360 NA
ENDBRANCH  25  26
ENDBRANCH  17  20
ENDBRANCH  15  17
ENDBRANCH   1  15
TORSDOF 6
