REMARK  Name = ZINCpe00000bl8EC.0
REMARK                            x       y       z     vdW  Elec       q    Type
REMARK                         _______ _______ _______ _____ _____    ______ ____
ROOT
ATOM      1  C   LIG    1       -0.382   0.989  -1.260  0.00  0.00    +0.230 C 
ATOM      2  C   LIG    1       -1.650   0.132  -1.284  0.00  0.00    +0.000 C 
ATOM      3  C   LIG    1       -2.649   0.676  -0.258  0.00  0.00    +0.300 C 
ATOM      4  N   LIG    1       -1.991   0.741   1.054  0.00  0.00    -0.590 N 
ATOM      5  C   LIG    1       -0.717   1.465   1.170  0.00  0.00    +0.230 C 
ATOM      6  C   LIG    1       -0.138   1.264   2.572  0.00  0.00    +0.060 C 
ATOM      7  C   LIG    1       -2.545   0.149   2.130  0.00  0.00    +0.590 C 
ATOM      8  O   LIG    1       -1.907   0.040   3.159  0.00  0.00    -0.490 OA
ATOM      9  C   LIG    1        0.260   0.912   0.127  0.00  0.00    +0.030 C 
ENDROOT
BRANCH   7  10
ATOM     10  C   LIG    1       -3.933  -0.370   2.060  0.00  0.00    +0.270 A 
ATOM     11  N   LIG    1       -4.671  -0.096   0.994  0.00  0.00    -0.460 NA
ATOM     12  C   LIG    1       -5.909  -0.546   0.895  0.00  0.00    +0.310 A 
ATOM     13  C   LIG    1       -6.438  -1.306   1.932  0.00  0.00    +0.020 A 
ATOM     14  C   LIG    1       -5.636  -1.568   3.038  0.00  0.00    +0.320 A 
ATOM     15  F   LIG    1       -7.702  -1.777   1.868  0.00  0.00    -0.110 F 
ATOM     16  N   LIG    1       -4.405  -1.091   3.066  0.00  0.00    -0.440 NA
ENDBRANCH   7  10
BRANCH   1  18
ATOM     17  C   LIG    1        0.463   0.902  -3.543  0.00  0.00    +0.520 C 
ATOM     18  N   LIG    1        0.562   0.491  -2.263  0.00  0.00    -0.720 N 
ATOM     19  H   LIG    1        1.258  -0.133  -2.006  0.00  0.00    +0.400 HD
ATOM     20  O   LIG    1       -0.407   1.683  -3.864  0.00  0.00    -0.510 OA
BRANCH  17  25
ATOM     21  C   LIG    1        4.882   1.341  -5.998  0.00  0.00    +0.180 C 
ATOM     22  C   LIG    1        3.427   1.154  -5.652  0.00  0.00    +0.090 C 
ATOM     23  N   LIG    1        2.451   1.210  -6.473  0.00  0.00    -0.290 NA
ATOM     24  O   LIG    1        1.195   1.002  -5.860  0.00  0.00    -0.170 OA
ATOM     25  C   LIG    1        1.435   0.390  -4.575  0.00  0.00    +0.130 C 
ATOM     26  C   LIG    1        2.874   0.869  -4.268  0.00  0.00    +0.080 C 
ENDBRANCH  17  25
ENDBRANCH   1  18
TORSDOF 3
