REMARK  Name = ZINCrH000004qZdR.0
REMARK                            x       y       z     vdW  Elec       q    Type
REMARK                         _______ _______ _______ _____ _____    ______ ____
ROOT
ATOM      1  C   LIG    1        4.250  -0.789  -7.052  0.00  0.00    +0.320 A 
ATOM      2  N   LIG    1        4.378   0.026  -6.043  0.00  0.00    -0.270 NA
ATOM      3  N   LIG    1        5.697  -0.064  -5.578  0.00  0.00    -0.380 N 
ATOM      4  C   LIG    1        6.342  -0.958  -6.355  0.00  0.00    +0.470 A 
ATOM      5  S   LIG    1        7.982  -1.427  -6.209  0.00  0.00    -0.560 S 
ATOM      6  N   LIG    1        5.461  -1.418  -7.265  0.00  0.00    -0.490 N 
ATOM      7  C   LIG    1        5.741  -2.411  -8.306  0.00  0.00    +0.380 C 
ENDROOT
BRANCH   1  12
ATOM      8  C   LIG    1       -0.557  -1.629 -10.104  0.00  0.00    +0.100 C 
ATOM      9  C   LIG    1        0.701  -1.409  -9.305  0.00  0.00    -0.050 A 
ATOM     10  C   LIG    1        0.635  -0.780  -8.075  0.00  0.00    +0.020 A 
ATOM     11  C   LIG    1        1.784  -0.576  -7.338  0.00  0.00    +0.080 A 
ATOM     12  C   LIG    1        3.014  -1.005  -7.837  0.00  0.00    -0.050 A 
ATOM     13  C   LIG    1        3.075  -1.633  -9.081  0.00  0.00    +0.040 A 
ATOM     14  C   LIG    1        1.918  -1.837  -9.805  0.00  0.00    +0.020 A 
ENDBRANCH   1  12
BRANCH   3  15
ATOM     15  C   LIG    1        6.273   0.683  -4.457  0.00  0.00    +0.530 C 
BRANCH  15  16
ATOM     16  N   LIG    1        5.790   0.116  -3.191  0.00  0.00    -0.550 NA
ATOM     17  C   LIG    1        5.827   1.118  -2.117  0.00  0.00    +0.200 C 
ATOM     18  C   LIG    1        5.393   0.468  -0.801  0.00  0.00    +0.200 C 
ATOM     19  N   LIG    1        4.040  -0.085  -0.954  0.00  0.00    -0.530 NA
ATOM     20  C   LIG    1        4.002  -1.087  -2.029  0.00  0.00    +0.180 C 
ATOM     21  C   LIG    1        4.437  -0.437  -3.344  0.00  0.00    +0.190 C 
BRANCH  19  22
ATOM     22  C   LIG    1        3.556  -0.652   0.312  0.00  0.00    +0.250 C 
BRANCH  22  23
ATOM     23  C   LIG    1        2.091  -0.984   0.186  0.00  0.00    -0.090 A 
ATOM     24  C   LIG    1        1.659  -2.173  -0.235  0.00  0.00    -0.050 A 
ATOM     25  S   LIG    1       -0.100  -2.189  -0.250  0.00  0.00    +0.100 S 
ATOM     26  C   LIG    1       -0.150  -0.530   0.334  0.00  0.00    -0.050 A 
ATOM     27  C   LIG    1        1.093  -0.077   0.500  0.00  0.00    +0.020 A 
ENDBRANCH  22  23
ENDBRANCH  19  22
ENDBRANCH  15  16
ENDBRANCH   3  15
TORSDOF 5
