REMARK  Name = ZINCrD00000hQ4Kl.0
REMARK                            x       y       z     vdW  Elec       q    Type
REMARK                         _______ _______ _______ _____ _____    ______ ____
ROOT
ATOM      1  C   LIG    1       -1.069   1.663  -6.146  0.00  0.00    +0.340 C 
ATOM      2  C   LIG    1        0.106   2.470  -6.723  0.00  0.00    +0.240 C 
ATOM      3  O   LIG    1        1.226   1.601  -6.905  0.00  0.00    -0.360 OA
ATOM      4  C   LIG    1        1.726   1.028  -5.694  0.00  0.00    +0.220 C 
ATOM      5  C   LIG    1        0.638   0.152  -5.063  0.00  0.00    +0.270 C 
ATOM      6  N   LIG    1       -0.593   0.952  -4.949  0.00  0.00    -0.620 N 
ATOM      7  C   LIG    1       -1.267   1.025  -3.784  0.00  0.00    +0.520 C 
ATOM      8  O   LIG    1       -2.232   1.754  -3.687  0.00  0.00    -0.520 OA
ENDROOT
BRANCH   1  13
ATOM      9  C   LIG    1       -5.545   3.854  -5.656  0.00  0.00    +0.200 C 
ATOM     10  C   LIG    1       -4.076   3.532  -5.554  0.00  0.00    +0.170 A 
ATOM     11  N   LIG    1       -3.181   4.219  -4.909  0.00  0.00    -0.380 NA
ATOM     12  O   LIG    1       -2.092   3.698  -5.020  0.00  0.00    +0.090 OA
ATOM     13  C   LIG    1       -2.191   2.596  -5.769  0.00  0.00    +0.200 A 
ATOM     14  N   LIG    1       -3.450   2.484  -6.118  0.00  0.00    -0.480 NA
ENDBRANCH   1  13
BRANCH   7  15
ATOM     15  C   LIG    1       -0.822   0.201  -2.603  0.00  0.00    +0.070 C 
BRANCH  15  16
ATOM     16  C   LIG    1       -1.751   0.468  -1.417  0.00  0.00    +0.040 C 
BRANCH  16  17
ATOM     17  C   LIG    1       -1.299  -0.368  -0.217  0.00  0.00    +0.080 C 
BRANCH  17  18
ATOM     18  C   LIG    1       -2.214  -0.105   0.951  0.00  0.00    -0.080 A 
ATOM     19  C   LIG    1       -3.345  -0.878   1.131  0.00  0.00    +0.050 A 
ATOM     20  C   LIG    1       -4.183  -0.637   2.204  0.00  0.00    +0.020 A 
ATOM     21  C   LIG    1       -3.891   0.378   3.095  0.00  0.00    +0.060 A 
ATOM     22  C   LIG    1       -2.760   1.151   2.915  0.00  0.00    -0.180 A 
ATOM     23  C   LIG    1       -1.918   0.907   1.846  0.00  0.00    +0.060 A 
BRANCH  22  24
ATOM     24  C   LIG    1       -2.441   2.258   3.887  0.00  0.00    +0.510 C 
ATOM     25  F   LIG    1       -2.401   3.479   3.207  0.00  0.00    -0.180 F 
ATOM     26  F   LIG    1       -1.197   2.014   4.480  0.00  0.00    -0.180 F 
ATOM     27  F   LIG    1       -3.427   2.307   4.878  0.00  0.00    -0.180 F 
ENDBRANCH  22  24
ENDBRANCH  17  18
ENDBRANCH  16  17
ENDBRANCH  15  16
ENDBRANCH   7  15
TORSDOF 6
