REMARK  Name = ZINCpe000000UaAR.0
REMARK                            x       y       z     vdW  Elec       q    Type
REMARK                         _______ _______ _______ _____ _____    ______ ____
ROOT
ATOM      1  C   LIG    1       -3.871   5.290   2.516  0.00  0.00    +0.520 C 
ATOM      2  N   LIG    1       -4.945   6.102   2.583  0.00  0.00    -0.640 N 
ATOM      3  H   LIG    1       -4.824   7.064   2.618  0.00  0.00    +0.430 HD
ATOM      4  O   LIG    1       -4.023   4.094   2.371  0.00  0.00    -0.480 OA
ENDROOT
BRANCH   1  10
ATOM      5  C   LIG    1       -0.741   3.312   0.877  0.00  0.00    +0.140 C 
ATOM      6  C   LIG    1       -1.579   3.640   2.119  0.00  0.00    +0.260 C 
ATOM      7  N   LIG    1       -1.421   5.071   2.420  0.00  0.00    -0.570 N 
ATOM      8  C   LIG    1       -0.056   5.615   2.500  0.00  0.00    +0.210 C 
ATOM      9  C   LIG    1        0.708   5.191   1.240  0.00  0.00    +0.220 C 
ATOM     10  C   LIG    1       -2.495   5.861   2.619  0.00  0.00    +0.510 C 
ATOM     11  O   LIG    1       -2.344   7.036   2.881  0.00  0.00    -0.510 OA
ATOM     12  O   LIG    1        0.597   3.775   1.077  0.00  0.00    -0.370 OA
BRANCH   5  14
ATOM     13  C   LIG    1        0.006   1.481  -0.650  0.00  0.00    +0.020 C 
ATOM     14  C   LIG    1       -0.730   1.798   0.654  0.00  0.00    +0.040 C 
ENDBRANCH   5  14
BRANCH   8  15
ATOM     15  C   LIG    1        0.648   5.061   3.740  0.00  0.00    +0.020 C 
ATOM     16  C   LIG    1       -0.044   5.589   4.998  0.00  0.00    +0.020 C 
ENDBRANCH   8  15
ENDBRANCH   1  10
BRANCH   2  17
ATOM     17  C   LIG    1       -6.232   5.558   2.603  0.00  0.00    +0.140 A 
ATOM     18  C   LIG    1       -6.454   4.287   3.127  0.00  0.00    +0.060 A 
ATOM     19  C   LIG    1       -7.748   3.792   3.126  0.00  0.00    +0.100 A 
ATOM     20  C   LIG    1       -8.768   4.568   2.609  0.00  0.00    -0.450 A 
ATOM     21  N   LIG    1       -8.525   5.769   2.120  0.00  0.00    -0.370 NA
ATOM     22  C   LIG    1       -7.310   6.280   2.107  0.00  0.00    +0.240 A 
BRANCH  20  23
ATOM     23  S   LIG    1      -10.416   3.946   2.603  0.00  0.00    +2.510 S 
ATOM     24  O   LIG    1      -10.257   2.534   2.584  0.00  0.00    -0.930 OA
ATOM     25  O   LIG    1      -11.044   4.627   1.526  0.00  0.00    -0.910 OA
ATOM     26  C   LIG    1      -11.110   4.487   4.189  0.00  0.00    -0.240 C 
ENDBRANCH  20  23
ENDBRANCH   2  17
TORSDOF 5
