REMARK  Name = ZINCrH000004tLAk.0
REMARK                            x       y       z     vdW  Elec       q    Type
REMARK                         _______ _______ _______ _____ _____    ______ ____
ROOT
ATOM      1  N   LIG    1        1.391   2.391   0.096  0.00  0.00    -0.520 NA
ATOM      2  C   LIG    1        2.219   1.652  -0.866  0.00  0.00    +0.180 C 
ATOM      3  C   LIG    1        3.675   2.106  -0.743  0.00  0.00    +0.040 C 
ATOM      4  C   LIG    1        3.761   3.610  -1.017  0.00  0.00    -0.010 C 
ATOM      5  C   LIG    1        2.853   4.353  -0.033  0.00  0.00    +0.070 C 
ATOM      6  C   LIG    1        1.420   3.834  -0.176  0.00  0.00    +0.170 C 
ENDROOT
BRANCH   4   7
ATOM      7  C   LIG    1        5.183   4.075  -0.838  0.00  0.00    +0.520 C 
ATOM      8  N   LIG    1        6.163   3.554  -1.604  0.00  0.00    -0.680 N 
ATOM      9  H   LIG    1        5.944   2.934  -2.316  0.00  0.00    +0.410 HD
ATOM     10  O   LIG    1        5.446   4.917  -0.006  0.00  0.00    -0.510 OA
BRANCH   8  11
ATOM     11  C   LIG    1        7.496   3.909  -1.370  0.00  0.00    +0.150 A 
ATOM     12  C   LIG    1        8.393   3.980  -2.428  0.00  0.00    -0.030 A 
ATOM     13  C   LIG    1        9.707   4.336  -2.195  0.00  0.00    +0.030 A 
ATOM     14  C   LIG    1       10.133   4.610  -0.908  0.00  0.00    -0.020 A 
ATOM     15  C   LIG    1        9.244   4.535   0.148  0.00  0.00    +0.030 A 
ATOM     16  C   LIG    1        7.927   4.185  -0.079  0.00  0.00    +0.010 A 
ENDBRANCH   8  11
ENDBRANCH   4   7
BRANCH   1  17
ATOM     17  C   LIG    1        0.013   1.884   0.103  0.00  0.00    +0.180 C 
BRANCH  17  19
ATOM     18  O   LIG    1       -0.153   3.181   2.069  0.00  0.00    -0.440 OA
ATOM     19  C   LIG    1       -0.737   2.483   1.265  0.00  0.00    +0.420 C 
BRANCH  19  20
ATOM     20  C   LIG    1       -2.123   2.231   1.420  0.00  0.00    -0.270 A 
ATOM     21  C   LIG    1       -2.923   1.470   0.595  0.00  0.00    +0.310 A 
ATOM     22  N   LIG    1       -4.184   1.463   1.069  0.00  0.00    -0.570 N 
ATOM     23  H   LIG    1       -4.925   0.992   0.657  0.00  0.00    +0.420 HD
ATOM     24  C   LIG    1       -4.278   2.221   2.218  0.00  0.00    +0.070 A 
ATOM     25  C   LIG    1       -5.334   2.529   3.069  0.00  0.00    +0.000 A 
ATOM     26  C   LIG    1       -5.121   3.333   4.168  0.00  0.00    +0.030 A 
ATOM     27  C   LIG    1       -3.859   3.841   4.438  0.00  0.00    +0.000 A 
ATOM     28  C   LIG    1       -2.800   3.547   3.606  0.00  0.00    +0.060 A 
ATOM     29  C   LIG    1       -3.001   2.737   2.493  0.00  0.00    -0.060 A 
ENDBRANCH  19  20
ENDBRANCH  17  19
ENDBRANCH   1  17
TORSDOF 5
