REMARK  Name = ZINCrg00000J2YcG.0
REMARK                            x       y       z     vdW  Elec       q    Type
REMARK                         _______ _______ _______ _____ _____    ______ ____
ROOT
ATOM      1  N   LIG    1        2.494  -3.987  -0.046  0.00  0.00    -0.680 N 
ATOM      2  H   LIG    1        3.359  -4.417  -0.135  0.00  0.00    +0.410 HD
ATOM      3  C   LIG    1        1.378  -4.735   0.066  0.00  0.00    +0.710 C 
ATOM      4  N   LIG    1        1.472  -6.076   0.160  0.00  0.00    -0.630 N 
ATOM      5  C   LIG    1        0.267  -6.918   0.175  0.00  0.00    +0.320 C 
ATOM      6  C   LIG    1        0.432  -8.017  -0.886  0.00  0.00    +0.200 C 
ATOM      7  N   LIG    1        1.692  -8.734  -0.649  0.00  0.00    -0.470 N 
ATOM      8  C   LIG    1        2.850  -7.842  -0.804  0.00  0.00    +0.210 C 
ATOM      9  C   LIG    1        2.783  -6.736   0.255  0.00  0.00    +0.290 C 
ATOM     10  O   LIG    1        0.287  -4.199   0.082  0.00  0.00    -0.570 OA
ENDROOT
BRANCH   7  11
ATOM     11  C   LIG    1        1.801  -9.841  -1.484  0.00  0.00    +0.300 A 
ATOM     12  C   LIG    1        0.802 -10.809  -1.478  0.00  0.00    +0.000 A 
ATOM     13  C   LIG    1        0.919 -11.903  -2.317  0.00  0.00    +0.070 A 
ATOM     14  C   LIG    1        2.043 -11.998  -3.130  0.00  0.00    +0.020 A 
ATOM     15  C   LIG    1        3.000 -11.001  -3.079  0.00  0.00    +0.270 A 
ATOM     16  F   LIG    1        2.199 -13.052  -3.960  0.00  0.00    -0.130 F 
ATOM     17  N   LIG    1        2.857  -9.967  -2.272  0.00  0.00    -0.490 NA
ENDBRANCH   7  11
BRANCH   1  21
ATOM     18  C   LIG    1        2.312   0.145  -0.072  0.00  0.00    +0.360 A 
ATOM     19  N   LIG    1        3.223  -0.505  -0.775  0.00  0.00    -0.520 NA
ATOM     20  C   LIG    1        3.297  -1.821  -0.772  0.00  0.00    +0.320 A 
ATOM     21  C   LIG    1        2.405  -2.588  -0.033  0.00  0.00    +0.070 A 
ATOM     22  C   LIG    1        1.424  -1.954   0.719  0.00  0.00    +0.150 A 
ATOM     23  C   LIG    1        1.374  -0.556   0.701  0.00  0.00    -0.190 A 
BRANCH  23  24
ATOM     24  C   LIG    1        0.353   0.169   1.482  0.00  0.00    +0.570 C 
ATOM     25  O   LIG    1        0.320   1.384   1.459  0.00  0.00    -0.520 OA
ATOM     26  N   LIG    1       -0.542  -0.517   2.220  0.00  0.00    -0.850 N 
ATOM     27  H   LIG    1       -1.213  -0.040   2.734  0.00  0.00    +0.410 HD
ATOM     28  H   LIG    1       -0.515  -1.486   2.239  0.00  0.00    +0.400 HD
ENDBRANCH  23  24
BRANCH  18  30
ATOM     29  C   LIG    1        3.261   2.154  -0.908  0.00  0.00    +0.250 C 
ATOM     30  O   LIG    1        2.280   1.499  -0.102  0.00  0.00    -0.270 OA
ENDBRANCH  18  30
ENDBRANCH   1  21
TORSDOF 4
