REMARK  Name = ZINCtV000002PR1f.0
REMARK                            x       y       z     vdW  Elec       q    Type
REMARK                         _______ _______ _______ _____ _____    ______ ____
ROOT
ATOM      1  C   LIG    1        2.246  -2.862  -0.729  0.00  0.00    +0.060 A 
ATOM      2  N   LIG    1        2.236  -4.191  -0.712  0.00  0.00    -0.160 NA
ATOM      3  N   LIG    1        1.329  -4.828  -0.058  0.00  0.00    -0.290 NA
ATOM      4  C   LIG    1        0.379  -4.190   0.616  0.00  0.00    +0.220 A 
ATOM      5  N   LIG    1        0.333  -2.864   0.645  0.00  0.00    -0.450 NA
ATOM      6  C   LIG    1        1.248  -2.163  -0.021  0.00  0.00    +0.230 A 
ENDROOT
BRANCH   1  10
ATOM      7  C   LIG    1        5.240  -0.753  -2.886  0.00  0.00    +0.030 A 
ATOM      8  C   LIG    1        5.555  -1.944  -2.256  0.00  0.00    +0.000 A 
ATOM      9  C   LIG    1        4.587  -2.633  -1.554  0.00  0.00    +0.060 A 
ATOM     10  C   LIG    1        3.290  -2.127  -1.481  0.00  0.00    -0.060 A 
ATOM     11  C   LIG    1        2.977  -0.929  -2.123  0.00  0.00    +0.050 A 
ATOM     12  C   LIG    1        3.954  -0.246  -2.817  0.00  0.00    +0.010 A 
ENDBRANCH   1  10
BRANCH   6  13
ATOM     13  C   LIG    1        1.221  -0.682  -0.013  0.00  0.00    -0.080 A 
ATOM     14  C   LIG    1        0.002  -0.004   0.002  0.00  0.00    +0.070 A 
ATOM     15  C   LIG    1       -0.017   1.376   0.010  0.00  0.00    +0.000 A 
ATOM     16  C   LIG    1        1.170   2.086   0.002  0.00  0.00    +0.040 A 
ATOM     17  C   LIG    1        2.382   1.419  -0.013  0.00  0.00    +0.000 A 
ATOM     18  C   LIG    1        2.414   0.040  -0.021  0.00  0.00    +0.070 A 
ENDBRANCH   6  13
BRANCH   4  19
ATOM     19  S   LIG    1       -0.836  -5.119   1.491  0.00  0.00    +0.080 S 
BRANCH  19  20
ATOM     20  C   LIG    1       -0.283  -6.799   1.109  0.00  0.00    +0.210 C 
BRANCH  20  21
ATOM     21  C   LIG    1       -1.200  -7.794   1.772  0.00  0.00    +0.090 A 
ATOM     22  N   LIG    1       -2.256  -8.271   1.230  0.00  0.00    -0.440 NA
ATOM     23  C   LIG    1       -2.982  -9.157   1.940  0.00  0.00    +0.080 A 
ATOM     24  C   LIG    1       -4.168  -9.833   1.591  0.00  0.00    +0.080 A 
ATOM     25  C   LIG    1       -4.753 -10.696   2.468  0.00  0.00    +0.030 A 
ATOM     26  C   LIG    1       -4.195 -10.926   3.717  0.00  0.00    +0.050 A 
ATOM     27  C   LIG    1       -3.036 -10.280   4.085  0.00  0.00    +0.060 A 
ATOM     28  C   LIG    1       -2.424  -9.394   3.201  0.00  0.00    -0.180 A 
ATOM     29  S   LIG    1       -0.965  -8.418   3.342  0.00  0.00    +0.130 S 
ENDBRANCH  20  21
ENDBRANCH  19  20
ENDBRANCH   4  19
TORSDOF 5
