REMARK  Name = ZINCpe000000T9dR.0
REMARK                            x       y       z     vdW  Elec       q    Type
REMARK                         _______ _______ _______ _____ _____    ______ ____
ROOT
ATOM      1  N   LIG    1        5.107  -0.483  -3.394  0.00  0.00    -0.750 N 
ATOM      2  H   LIG    1        4.665  -0.988  -4.095  0.00  0.00    +0.390 HD
ATOM      3  C   LIG    1        6.428  -0.231  -3.477  0.00  0.00    +0.710 C 
ATOM      4  N   LIG    1        7.155  -0.764  -4.479  0.00  0.00    -0.630 N 
ATOM      5  C   LIG    1        6.504  -1.533  -5.549  0.00  0.00    +0.260 C 
ATOM      6  C   LIG    1        6.918  -0.934  -6.902  0.00  0.00    +0.020 C 
ATOM      7  C   LIG    1        8.445  -0.901  -6.992  0.00  0.00    +0.040 C 
ATOM      8  C   LIG    1        9.005  -0.010  -5.881  0.00  0.00    -0.020 C 
ATOM      9  C   LIG    1        8.614  -0.594  -4.519  0.00  0.00    +0.300 C 
ATOM     10  O   LIG    1        6.965   0.477  -2.647  0.00  0.00    -0.580 OA
ENDROOT
BRANCH   1  11
ATOM     11  C   LIG    1        4.338   0.005  -2.247  0.00  0.00    +0.290 C 
BRANCH  11  12
ATOM     12  C   LIG    1        2.875  -0.414  -2.398  0.00  0.00    +0.170 C 
BRANCH  12  20
ATOM     13  C   LIG    1        0.851  -2.030  -1.203  0.00  0.00    +0.060 C 
ATOM     14  C   LIG    1        0.753  -0.503  -1.233  0.00  0.00    +0.070 C 
ATOM     15  C   LIG    1        0.007  -0.015   0.011  0.00  0.00    +0.230 C 
ATOM     16  O   LIG    1       -0.017   1.415   0.016  0.00  0.00    -0.380 OA
ATOM     17  C   LIG    1        1.282   2.013   0.003  0.00  0.00    +0.220 C 
ATOM     18  C   LIG    1        2.042   1.544  -1.241  0.00  0.00    +0.150 C 
ATOM     19  C   LIG    1       -0.004  -0.064  -2.488  0.00  0.00    +0.020 C 
ATOM     20  N   LIG    1        2.104   0.076  -1.247  0.00  0.00    -0.520 NA
ENDBRANCH  12  20
ENDBRANCH  11  12
ENDBRANCH   1  11
BRANCH   8  21
ATOM     21  C   LIG    1       10.529   0.049  -5.992  0.00  0.00    +0.340 C 
BRANCH  21  22
ATOM     22  N   LIG    1       11.055   0.991  -5.002  0.00  0.00    -0.290 N 
ATOM     23  C   LIG    1       11.991   0.716  -4.063  0.00  0.00    +0.140 A 
ATOM     24  C   LIG    1       12.179   1.863  -3.370  0.00  0.00    +0.140 A 
ATOM     25  N   LIG    1       11.355   2.770  -3.906  0.00  0.00    -0.270 NA
ATOM     26  N   LIG    1       10.703   2.223  -4.870  0.00  0.00    -0.080 NA
ENDBRANCH  21  22
ENDBRANCH   8  21
TORSDOF 5
