REMARK  Name = ZINCpk00000xLks2.0
REMARK                            x       y       z     vdW  Elec       q    Type
REMARK                         _______ _______ _______ _____ _____    ______ ____
ROOT
ATOM      1  C   LIG    1       -6.301  -3.725   1.379  0.00  0.00    +0.200 C 
ENDROOT
BRANCH   1   2
ATOM      2  C   LIG    1       -5.635  -4.954   0.757  0.00  0.00    +0.130 C 
ATOM      3  C   LIG    1       -6.684  -6.051   0.476  0.00  0.00    +0.050 C 
ATOM      4  C   LIG    1       -5.970  -7.380   0.794  0.00  0.00    +0.170 C 
ATOM      5  C   LIG    1       -4.549  -6.975   1.241  0.00  0.00    +0.180 C 
ATOM      6  F   LIG    1       -6.633  -8.053   1.826  0.00  0.00    -0.200 F 
ATOM      7  N   LIG    1       -4.690  -5.575   1.720  0.00  0.00    -0.500 NA
BRANCH   7   8
ATOM      8  C   LIG    1       -3.396  -4.880   1.710  0.00  0.00    +0.260 C 
BRANCH   8   9
ATOM      9  C   LIG    1       -2.612  -5.260   2.941  0.00  0.00    +0.090 A 
ATOM     10  C   LIG    1       -1.683  -6.241   3.023  0.00  0.00    -0.130 A 
ATOM     11  C   LIG    1       -1.197  -6.263   4.335  0.00  0.00    +0.230 A 
ATOM     12  N   LIG    1       -1.812  -5.330   5.015  0.00  0.00    -0.290 NA
ATOM     13  N   LIG    1       -2.707  -4.679   4.155  0.00  0.00    -0.360 N 
ATOM     14  C   LIG    1       -3.591  -3.567   4.512  0.00  0.00    +0.350 C 
ENDBRANCH   8   9
ENDBRANCH   7   8
ENDBRANCH   1   2
BRANCH   1  16
ATOM     15  C   LIG    1       -6.477  -2.455  -0.675  0.00  0.00    +0.200 C 
ATOM     16  N   LIG    1       -7.219  -3.120   0.405  0.00  0.00    -0.540 NA
BRANCH  16  17
ATOM     17  C   LIG    1       -8.142  -2.185   1.062  0.00  0.00    +0.320 C 
BRANCH  17  18
ATOM     18  C   LIG    1       -9.217  -1.773   0.090  0.00  0.00    +0.190 A 
ATOM     19  N   LIG    1       -9.139  -0.810  -0.788  0.00  0.00    -0.280 NA
ATOM     20  N   LIG    1      -10.237  -0.742  -1.454  0.00  0.00    -0.280 NA
ATOM     21  C   LIG    1      -11.068  -1.651  -1.025  0.00  0.00    +0.210 A 
ATOM     22  N   LIG    1      -10.444  -2.335  -0.036  0.00  0.00    -0.570 N 
ATOM     23  H   LIG    1      -10.802  -3.075   0.478  0.00  0.00    +0.430 HD
BRANCH  21  24
ATOM     24  C   LIG    1      -12.463  -1.900  -1.540  0.00  0.00    +0.060 C 
ATOM     25  C   LIG    1      -12.638  -2.975  -2.615  0.00  0.00    +0.060 C 
ATOM     26  C   LIG    1      -13.119  -3.237  -1.186  0.00  0.00    +0.030 C 
ENDBRANCH  21  24
ENDBRANCH  17  18
ENDBRANCH  16  17
ENDBRANCH   1  16
TORSDOF 7
