REMARK  Name = ZINCpk00000xLks2.1
REMARK                            x       y       z     vdW  Elec       q    Type
REMARK                         _______ _______ _______ _____ _____    ______ ____
ROOT
ATOM      1  C   LIG    1        3.229   1.012   0.339  0.00  0.00    +0.210 C 
ENDROOT
BRANCH   1   2
ATOM      2  C   LIG    1        1.732   0.867   0.621  0.00  0.00    +0.130 C 
ATOM      3  C   LIG    1        1.241  -0.555   0.252  0.00  0.00    +0.040 C 
ATOM      4  C   LIG    1       -0.268  -0.343  -0.008  0.00  0.00    +0.170 C 
ATOM      5  C   LIG    1       -0.415   1.156  -0.327  0.00  0.00    +0.160 C 
ATOM      6  F   LIG    1       -0.689  -1.115  -1.096  0.00  0.00    -0.200 F 
ATOM      7  N   LIG    1        0.941   1.744  -0.280  0.00  0.00    -0.490 NA
BRANCH   7   8
ATOM      8  C   LIG    1        0.900   3.122   0.230  0.00  0.00    +0.280 C 
BRANCH   8   9
ATOM      9  C   LIG    1        0.041   3.966  -0.675  0.00  0.00    +0.100 A 
ATOM     10  C   LIG    1       -1.269   4.254  -0.493  0.00  0.00    -0.140 A 
ATOM     11  C   LIG    1       -1.684   5.063  -1.555  0.00  0.00    +0.220 A 
ATOM     12  N   LIG    1       -0.660   5.255  -2.347  0.00  0.00    -0.300 NA
ATOM     13  N   LIG    1        0.442   4.577  -1.810  0.00  0.00    -0.350 N 
ATOM     14  C   LIG    1        1.790   4.535  -2.381  0.00  0.00    +0.360 C 
ENDBRANCH   8   9
ENDBRANCH   7   8
ENDBRANCH   1   2
BRANCH   1  16
ATOM     15  C   LIG    1        3.757   2.607   2.083  0.00  0.00    +0.190 C 
ATOM     16  N   LIG    1        3.652   2.388   0.634  0.00  0.00    -0.530 NA
BRANCH  16  17
ATOM     17  C   LIG    1        4.918   2.705  -0.040  0.00  0.00    +0.320 C 
BRANCH  17  18
ATOM     18  C   LIG    1        5.195   4.182   0.081  0.00  0.00    +0.240 A 
ATOM     19  N   LIG    1        5.861   4.753   1.049  0.00  0.00    -0.310 NA
ATOM     20  N   LIG    1        5.882   6.129   0.770  0.00  0.00    -0.480 N 
ATOM     21  H   LIG    1        6.301   6.824   1.302  0.00  0.00    +0.440 HD
ATOM     22  C   LIG    1        5.207   6.293  -0.381  0.00  0.00    +0.320 A 
ATOM     23  N   LIG    1        4.804   5.116  -0.786  0.00  0.00    -0.520 NA
BRANCH  22  24
ATOM     24  C   LIG    1        4.962   7.603  -1.085  0.00  0.00    +0.050 C 
ATOM     25  C   LIG    1        5.179   8.887  -0.283  0.00  0.00    +0.030 C 
ATOM     26  C   LIG    1        3.760   8.434  -0.632  0.00  0.00    +0.060 C 
ENDBRANCH  22  24
ENDBRANCH  17  18
ENDBRANCH  16  17
ENDBRANCH   1  16
TORSDOF 7
