REMARK  Name = ZINCrg00000BlAq8.0
REMARK                            x       y       z     vdW  Elec       q    Type
REMARK                         _______ _______ _______ _____ _____    ______ ____
ROOT
ATOM      1  O   LIG    1        3.921  -0.607  -2.373  0.00  0.00    -0.530 OA
ATOM      2  C   LIG    1        4.439  -1.218  -1.463  0.00  0.00    +0.510 C 
ATOM      3  N   LIG    1        5.165  -2.324  -1.721  0.00  0.00    -0.600 N 
ATOM      4  C   LIG    1        5.784  -3.045  -0.591  0.00  0.00    +0.250 C 
ATOM      5  C   LIG    1        7.221  -3.497  -0.908  0.00  0.00    +0.020 C 
ATOM      6  C   LIG    1        7.950  -2.414  -1.663  0.00  0.00    +0.030 C 
ATOM      7  C   LIG    1        7.782  -2.642  -3.163  0.00  0.00    -0.020 C 
ATOM      8  C   LIG    1        6.547  -2.076  -3.727  0.00  0.00    +0.010 C 
ATOM      9  C   LIG    1        5.302  -2.758  -3.094  0.00  0.00    +0.290 C 
ENDROOT
BRANCH   7  10
ATOM     10  C   LIG    1        8.977  -2.017  -3.886  0.00  0.00    +0.260 C 
BRANCH  10  11
ATOM     11  N   LIG    1        8.898  -2.327  -5.316  0.00  0.00    -0.730 N 
ATOM     12  H   LIG    1        8.161  -2.855  -5.658  0.00  0.00    +0.400 HD
ATOM     13  C   LIG    1        9.851  -1.877  -6.156  0.00  0.00    +0.530 C 
ATOM     14  O   LIG    1       10.774  -1.216  -5.728  0.00  0.00    -0.520 OA
BRANCH  13  15
ATOM     15  C   LIG    1        9.770  -2.195  -7.627  0.00  0.00    +0.010 C 
ATOM     16  C   LIG    1       11.059  -2.628  -8.328  0.00  0.00    +0.060 C 
ATOM     17  C   LIG    1       10.472  -1.241  -8.596  0.00  0.00    +0.100 C 
BRANCH  15  18
ATOM     18  O   LIG    1        8.549  -2.796  -8.061  0.00  0.00    -0.520 OA
ATOM     19  H   LIG    1        8.150  -3.390  -7.411  0.00  0.00    +0.380 HD
ENDBRANCH  15  18
ENDBRANCH  13  15
ENDBRANCH  10  11
ENDBRANCH   7  10
BRANCH   2  20
ATOM     20  C   LIG    1        4.272  -0.742  -0.043  0.00  0.00    +0.120 C 
BRANCH  20  21
ATOM     21  C   LIG    1        3.423   0.503  -0.028  0.00  0.00    -0.020 A 
ATOM     22  C   LIG    1        4.005   1.728  -0.026  0.00  0.00    +0.060 A 
ATOM     23  C   LIG    1        3.250   2.908  -0.013  0.00  0.00    +0.070 A 
ATOM     24  C   LIG    1        1.894   2.891  -0.001  0.00  0.00    +0.080 A 
ATOM     25  C   LIG    1        1.218   1.656  -0.001  0.00  0.00    +0.020 A 
ATOM     26  N   LIG    1       -0.014   1.210   0.009  0.00  0.00    -0.340 NA
ATOM     27  O   LIG    1        0.002  -0.004   0.002  0.00  0.00    +0.380 OA
ATOM     28  N   LIG    1        1.098  -0.527  -0.011  0.00  0.00    -0.340 NA
ATOM     29  C   LIG    1        2.018   0.406  -0.015  0.00  0.00    +0.030 A 
ENDBRANCH  20  21
ENDBRANCH   2  20
TORSDOF 6
