REMARK  Name = ZINCrD000000f3I9.0
REMARK                            x       y       z     vdW  Elec       q    Type
REMARK                         _______ _______ _______ _____ _____    ______ ____
ROOT
ATOM      1  C   LIG    1        3.695  -0.685  -0.042  0.00  0.00    +0.550 C 
ATOM      2  N   LIG    1        4.851   0.008  -0.045  0.00  0.00    -0.660 N 
ATOM      3  H   LIG    1        4.837   0.976  -0.109  0.00  0.00    +0.410 HD
ATOM      4  O   LIG    1        3.715  -1.900  -0.045  0.00  0.00    -0.500 OA
ENDROOT
BRANCH   2   5
ATOM      5  C   LIG    1        6.069  -0.666   0.045  0.00  0.00    +0.150 A 
ATOM      6  C   LIG    1        6.226  -1.900  -0.549  0.00  0.00    +0.030 A 
ATOM      7  C   LIG    1        7.438  -2.580  -0.469  0.00  0.00    -0.060 A 
ATOM      8  C   LIG    1        8.497  -2.051   0.204  0.00  0.00    +0.010 A 
ATOM      9  C   LIG    1        8.378  -0.797   0.827  0.00  0.00    -0.030 A 
ATOM     10  C   LIG    1        9.454  -0.227   1.528  0.00  0.00    +0.030 A 
ATOM     11  C   LIG    1        9.303   0.989   2.122  0.00  0.00    +0.020 A 
ATOM     12  C   LIG    1        8.096   1.679   2.044  0.00  0.00    +0.010 A 
ATOM     13  C   LIG    1        7.032   1.157   1.373  0.00  0.00    +0.010 A 
ATOM     14  C   LIG    1        7.579  -3.925  -1.133  0.00  0.00    +0.090 C 
ATOM     15  C   LIG    1        7.151  -0.094   0.749  0.00  0.00    -0.060 A 
ENDBRANCH   2   5
BRANCH   1  19
ATOM     16  C   LIG    1       -0.017   1.378  -0.024  0.00  0.00    -0.660 A 
ATOM     17  C   LIG    1        1.168   2.093  -0.027  0.00  0.00    +0.120 A 
ATOM     18  C   LIG    1        2.377   1.429  -0.033  0.00  0.00    +0.030 A 
ATOM     19  C   LIG    1        2.403   0.033  -0.035  0.00  0.00    -0.080 A 
ATOM     20  C   LIG    1        1.204  -0.681  -0.033  0.00  0.00    +0.070 A 
ATOM     21  C   LIG    1        0.002  -0.005  -0.027  0.00  0.00    +0.130 A 
BRANCH  16  22
ATOM     22  S   LIG    1       -1.558   2.234  -0.025  0.00  0.00    +2.700 S 
ATOM     23  O   LIG    1       -2.515   1.337  -0.572  0.00  0.00    -0.950 OA
ATOM     24  O   LIG    1       -1.301   3.522  -0.566  0.00  0.00    -0.950 OA
BRANCH  22  25
ATOM     25  N   LIG    1       -1.988   2.469   1.557  0.00  0.00    -1.110 NA
ATOM     26  H   LIG    1       -2.780   2.037   1.914  0.00  0.00    +0.420 HD
BRANCH  25  27
ATOM     27  C   LIG    1       -1.172   3.329   2.418  0.00  0.00    +0.430 C 
BRANCH  27  29
ATOM     28  C   LIG    1       -2.535   3.935   4.604  0.00  0.00    +0.060 C 
ATOM     29  C   LIG    1       -1.930   3.666   3.634  0.00  0.00    -0.210 C 
ENDBRANCH  27  29
ENDBRANCH  25  27
ENDBRANCH  22  25
ENDBRANCH  16  22
ENDBRANCH   1  19
TORSDOF 6
