REMARK  Name = ZINCrH000004siEq.0
REMARK                            x       y       z     vdW  Elec       q    Type
REMARK                         _______ _______ _______ _____ _____    ______ ____
ROOT
ATOM      1  C   LIG    1        2.011   5.917   0.129  0.00  0.00    +0.520 C 
ATOM      2  N   LIG    1        0.747   5.461   0.025  0.00  0.00    -0.540 N 
ATOM      3  O   LIG    1        2.940   5.138   0.117  0.00  0.00    -0.510 OA
ENDROOT
BRANCH   2   4
ATOM      4  C   LIG    1        0.498   4.082   0.012  0.00  0.00    +0.170 A 
ATOM      5  C   LIG    1       -0.807   3.612   0.055  0.00  0.00    +0.000 A 
ATOM      6  C   LIG    1       -1.054   2.252   0.037  0.00  0.00    +0.060 A 
ATOM      7  C   LIG    1        0.001   1.355  -0.015  0.00  0.00    +0.010 A 
ATOM      8  O   LIG    1        0.026  -0.011  -0.040  0.00  0.00    -0.310 OA
ATOM      9  C   LIG    1        1.373  -0.377   0.314  0.00  0.00    +0.420 C 
ATOM     10  O   LIG    1        2.157   0.754  -0.111  0.00  0.00    -0.310 OA
ATOM     11  C   LIG    1        1.312   1.824  -0.059  0.00  0.00    +0.060 A 
ATOM     12  C   LIG    1        1.558   3.187  -0.046  0.00  0.00    +0.040 A 
ENDBRANCH   2   4
BRANCH   2  13
ATOM     13  C   LIG    1       -0.367   6.407  -0.074  0.00  0.00    +0.230 C 
ATOM     14  C   LIG    1       -1.249   6.289   1.171  0.00  0.00    +0.000 C 
ATOM     15  C   LIG    1       -2.413   7.277   1.068  0.00  0.00    +0.020 C 
ATOM     16  C   LIG    1       -3.243   6.958  -0.177  0.00  0.00    +0.010 C 
ATOM     17  C   LIG    1       -2.362   7.077  -1.422  0.00  0.00    +0.020 C 
ATOM     18  C   LIG    1       -1.198   6.089  -1.319  0.00  0.00    +0.010 C 
ENDBRANCH   2  13
BRANCH   1  19
ATOM     19  C   LIG    1        2.270   7.396   0.260  0.00  0.00    +0.060 C 
BRANCH  19  20
ATOM     20  C   LIG    1        3.764   7.634   0.486  0.00  0.00    +0.330 C 
BRANCH  20  27
ATOM     21  C   LIG    1        4.381   9.254  -1.860  0.00  0.00    +0.160 C 
ATOM     22  C   LIG    1        4.306   9.841  -0.474  0.00  0.00    +0.100 A 
ATOM     23  C   LIG    1        4.513  11.131  -0.253  0.00  0.00    -0.040 A 
ATOM     24  S   LIG    1        4.327  11.342   1.497  0.00  0.00    +0.010 S 
ATOM     25  C   LIG    1        3.977   9.685   1.807  0.00  0.00    +0.480 A 
ATOM     26  O   LIG    1        3.741   9.174   2.888  0.00  0.00    -0.470 OA
ATOM     27  N   LIG    1        4.016   9.072   0.614  0.00  0.00    -0.530 N 
ENDBRANCH  20  27
ENDBRANCH  19  20
ENDBRANCH   1  19
TORSDOF 5
