REMARK  Name = ZINCpe00000VVH09.0
REMARK                            x       y       z     vdW  Elec       q    Type
REMARK                         _______ _______ _______ _____ _____    ______ ____
ROOT
ATOM      1  O   LIG    1       -1.736   2.268  -1.088  0.00  0.00    -0.490 OA
ATOM      2  C   LIG    1       -0.742   1.585  -1.213  0.00  0.00    +0.510 C 
ATOM      3  N   LIG    1       -0.288   1.272  -2.443  0.00  0.00    -0.640 N 
ATOM      4  H   LIG    1        0.507   0.726  -2.543  0.00  0.00    +0.410 HD
ENDROOT
BRANCH   3   5
ATOM      5  C   LIG    1       -0.963   1.734  -3.573  0.00  0.00    +0.300 A 
ATOM      6  C   LIG    1       -2.085   2.505  -3.581  0.00  0.00    -0.100 A 
ATOM      7  C   LIG    1       -2.431   2.743  -4.914  0.00  0.00    +0.250 A 
ATOM      8  N   LIG    1       -1.557   2.141  -5.679  0.00  0.00    -0.280 NA
ATOM      9  N   LIG    1       -0.618   1.502  -4.860  0.00  0.00    -0.380 N 
BRANCH   9  10
ATOM     10  C   LIG    1        0.533   0.719  -5.317  0.00  0.00    +0.250 C 
ATOM     11  C   LIG    1        1.432   1.582  -6.225  0.00  0.00    +0.030 C 
ATOM     12  C   LIG    1        1.929   0.598  -7.313  0.00  0.00    +0.020 C 
ATOM     13  C   LIG    1        0.683  -0.287  -7.568  0.00  0.00    +0.020 C 
ATOM     14  C   LIG    1        0.056  -0.469  -6.170  0.00  0.00    +0.030 C 
ENDBRANCH   9  10
ENDBRANCH   3   5
BRANCH   2  15
ATOM     15  C   LIG    1       -0.013   1.086   0.008  0.00  0.00    +0.390 C 
BRANCH  15  16
ATOM     16  N   LIG    1       -0.698   1.558   1.213  0.00  0.00    -0.560 N 
ATOM     17  C   LIG    1       -0.440   2.714   1.862  0.00  0.00    +0.510 C 
ATOM     18  C   LIG    1       -1.395   2.745   3.018  0.00  0.00    +0.510 C 
ATOM     19  N   LIG    1       -2.105   1.600   2.928  0.00  0.00    -0.540 N 
ATOM     20  O   LIG    1       -1.502   3.613   3.859  0.00  0.00    -0.400 OA
ATOM     21  O   LIG    1        0.388   3.552   1.570  0.00  0.00    -0.400 OA
ATOM     22  C   LIG    1       -1.682   0.910   1.857  0.00  0.00    +0.720 C 
ATOM     23  O   LIG    1       -2.133  -0.165   1.514  0.00  0.00    -0.480 OA
BRANCH  19  24
ATOM     24  C   LIG    1       -3.165   1.180   3.849  0.00  0.00    +0.220 C 
ATOM     25  C   LIG    1       -3.641   2.197   4.888  0.00  0.00    +0.060 C 
ATOM     26  C   LIG    1       -2.791   1.000   5.321  0.00  0.00    +0.040 C 
ENDBRANCH  19  24
ENDBRANCH  15  16
ENDBRANCH   2  15
TORSDOF 5
