REMARK  Name = ZINCrD0000073ly7.0
REMARK                            x       y       z     vdW  Elec       q    Type
REMARK                         _______ _______ _______ _____ _____    ______ ____
ROOT
ATOM      1  N   LIG    1        8.764   4.989   2.606  0.00  0.00    -0.620 N 
ATOM      2  H   LIG    1        9.293   5.242   1.833  0.00  0.00    +0.430 HD
ATOM      3  C   LIG    1        7.550   4.430   2.438  0.00  0.00    +0.520 C 
ATOM      4  O   LIG    1        6.888   4.115   3.404  0.00  0.00    -0.480 OA
ENDROOT
BRANCH   1   8
ATOM      5  C   LIG    1       10.716   5.863   5.449  0.00  0.00    +0.140 A 
ATOM      6  C   LIG    1        9.783   5.423   6.312  0.00  0.00    -0.110 A 
ATOM      7  S   LIG    1        8.421   4.803   5.382  0.00  0.00    +0.210 S 
ATOM      8  C   LIG    1        9.259   5.205   3.886  0.00  0.00    +0.270 A 
ATOM      9  N   LIG    1       10.412   5.729   4.166  0.00  0.00    -0.500 NA
BRANCH   5  13
ATOM     10  C   LIG    1       14.398   7.551   6.747  0.00  0.00    +0.140 A 
ATOM     11  C   LIG    1       14.128   7.440   5.391  0.00  0.00    -0.020 A 
ATOM     12  C   LIG    1       12.934   6.893   4.966  0.00  0.00    +0.090 A 
ATOM     13  C   LIG    1       12.000   6.452   5.902  0.00  0.00    -0.060 A 
ATOM     14  C   LIG    1       12.273   6.570   7.264  0.00  0.00    +0.070 A 
ATOM     15  C   LIG    1       13.470   7.112   7.681  0.00  0.00    -0.080 A 
BRANCH  10  17
ATOM     16  C   LIG    1       15.789   8.174   8.573  0.00  0.00    +0.250 C 
ATOM     17  O   LIG    1       15.575   8.090   7.162  0.00  0.00    -0.320 OA
ENDBRANCH  10  17
ENDBRANCH   5  13
ENDBRANCH   1   8
BRANCH   3  18
ATOM     18  C   LIG    1        7.014   4.196   1.049  0.00  0.00    +0.300 C 
BRANCH  18  19
ATOM     19  O   LIG    1        5.698   3.587   1.134  0.00  0.00    -0.330 OA
BRANCH  19  20
ATOM     20  C   LIG    1        5.075   3.311  -0.029  0.00  0.00    +0.520 C 
ATOM     21  O   LIG    1        5.617   3.572  -1.085  0.00  0.00    -0.500 OA
BRANCH  20  22
ATOM     22  C   LIG    1        3.737   2.693  -0.019  0.00  0.00    -0.140 A 
ATOM     23  C   LIG    1        3.089   2.406  -1.224  0.00  0.00    +0.110 A 
ATOM     24  C   LIG    1        1.839   1.829  -1.211  0.00  0.00    -0.020 A 
ATOM     25  C   LIG    1        1.221   1.532  -0.001  0.00  0.00    +0.150 A 
ATOM     26  C   LIG    1        1.859   1.821   1.199  0.00  0.00    -0.020 A 
ATOM     27  C   LIG    1        3.112   2.393   1.195  0.00  0.00    +0.110 A 
BRANCH  25  28
ATOM     28  O   LIG    1       -0.011   0.963   0.007  0.00  0.00    -0.500 OA
ATOM     29  H   LIG    1        0.002  -0.004   0.002  0.00  0.00    +0.400 HD
ENDBRANCH  25  28
ENDBRANCH  20  22
ENDBRANCH  19  20
ENDBRANCH  18  19
ENDBRANCH   3  18
TORSDOF 8
