REMARK  Name = ZINCqH00000070ft.0
REMARK                            x       y       z     vdW  Elec       q    Type
REMARK                         _______ _______ _______ _____ _____    ______ ____
ROOT
ATOM      1  N   LIG    1        2.471   3.612  -0.002  0.00  0.00    -0.440 N 
ATOM      2  C   LIG    1        1.152   3.198   0.008  0.00  0.00    +0.050 A 
ATOM      3  C   LIG    1       -0.067   3.861   0.023  0.00  0.00    +0.010 A 
ATOM      4  C   LIG    1       -1.241   3.137   0.030  0.00  0.00    +0.030 A 
ATOM      5  C   LIG    1       -1.212   1.750   0.017  0.00  0.00    +0.000 A 
ATOM      6  C   LIG    1       -0.013   1.076   0.008  0.00  0.00    +0.070 A 
ATOM      7  C   LIG    1        1.186   1.793   0.000  0.00  0.00    +0.050 A 
ATOM      8  N   LIG    1        2.494   1.429  -0.013  0.00  0.00    -0.470 NA
ATOM      9  C   LIG    1        3.245   2.492  -0.015  0.00  0.00    +0.290 A 
ENDROOT
BRANCH   1  13
ATOM     10  C   LIG    1        3.826   7.557   0.007  0.00  0.00    +0.140 A 
ATOM     11  C   LIG    1        3.111   7.072  -1.079  0.00  0.00    +0.000 A 
ATOM     12  C   LIG    1        2.662   5.766  -1.082  0.00  0.00    +0.070 A 
ATOM     13  C   LIG    1        2.926   4.939   0.001  0.00  0.00    +0.080 A 
ATOM     14  C   LIG    1        3.637   5.426   1.089  0.00  0.00    +0.060 A 
ATOM     15  C   LIG    1        4.090   6.731   1.089  0.00  0.00    -0.050 A 
BRANCH  10  17
ATOM     16  C   LIG    1        4.998   9.275   1.159  0.00  0.00    +0.250 C 
ATOM     17  O   LIG    1        4.268   8.843   0.009  0.00  0.00    -0.310 OA
ENDBRANCH  10  17
ENDBRANCH   1  13
BRANCH   9  18
ATOM     18  C   LIG    1        4.752   2.484  -0.028  0.00  0.00    +0.310 C 
BRANCH  18  19
ATOM     19  N   LIG    1        5.230   2.489  -1.417  0.00  0.00    -0.530 NA
ATOM     20  C   LIG    1        4.502   3.479  -2.220  0.00  0.00    +0.170 C 
ATOM     21  C   LIG    1        4.921   3.356  -3.687  0.00  0.00    +0.050 C 
ATOM     22  C   LIG    1        6.431   3.587  -3.803  0.00  0.00    +0.120 C 
ATOM     23  C   LIG    1        7.163   2.574  -2.919  0.00  0.00    +0.060 C 
ATOM     24  C   LIG    1        6.679   2.720  -1.474  0.00  0.00    +0.190 C 
BRANCH  22  25
ATOM     25  C   LIG    1        6.850   3.413  -5.203  0.00  0.00    +0.210 C 
ATOM     26  N   LIG    1        7.174   3.279  -6.283  0.00  0.00    -0.430 NA
ENDBRANCH  22  25
ENDBRANCH  18  19
ENDBRANCH   9  18
TORSDOF 5
