REMARK  Name = ZINCpk000000o4Vq.0
REMARK                            x       y       z     vdW  Elec       q    Type
REMARK                         _______ _______ _______ _____ _____    ______ ____
ROOT
ATOM      1  C   LIG    1       -0.417   3.820   2.205  0.00  0.00    +0.570 C 
ATOM      2  N   LIG    1       -0.548   3.080   1.086  0.00  0.00    -0.610 N 
ATOM      3  C   LIG    1       -0.065   1.694   1.044  0.00  0.00    +0.260 C 
ATOM      4  C   LIG    1        0.874   1.534  -0.157  0.00  0.00    +0.020 C 
ATOM      5  C   LIG    1        0.151   1.987  -1.427  0.00  0.00    +0.030 C 
ATOM      6  C   LIG    1       -0.227   3.465  -1.302  0.00  0.00    +0.230 C 
ATOM      7  C   LIG    1       -1.178   3.646  -0.115  0.00  0.00    +0.280 C 
ATOM      8  O   LIG    1       -0.723   4.996   2.196  0.00  0.00    -0.530 OA
ENDROOT
BRANCH   1  12
ATOM      9  C   LIG    1        1.067   2.039   5.763  0.00  0.00    +0.260 A 
ATOM     10  C   LIG    1        1.487   3.316   5.398  0.00  0.00    -0.030 A 
ATOM     11  C   LIG    1        1.008   3.896   4.245  0.00  0.00    +0.110 A 
ATOM     12  C   LIG    1        0.099   3.201   3.441  0.00  0.00    -0.180 A 
ATOM     13  C   LIG    1       -0.324   1.922   3.813  0.00  0.00    +0.090 A 
ATOM     14  C   LIG    1        0.163   1.345   4.964  0.00  0.00    -0.060 A 
BRANCH   9  18
ATOM     15  C   LIG    1        3.711   1.711   9.911  0.00  0.00    +0.160 C 
ATOM     16  C   LIG    1        2.759   1.318   8.812  0.00  0.00    +0.080 C 
ATOM     17  N   LIG    1        2.463   2.038   7.809  0.00  0.00    -0.240 NA
ATOM     18  N   LIG    1        1.553   1.457   6.928  0.00  0.00    -0.480 N 
ATOM     19  C   LIG    1        1.196   0.120   7.432  0.00  0.00    +0.240 C 
ATOM     20  C   LIG    1        2.017   0.002   8.732  0.00  0.00    +0.060 C 
ENDBRANCH   9  18
ENDBRANCH   1  12
BRANCH   6  21
ATOM     21  N   LIG    1       -0.890   3.906  -2.532  0.00  0.00    -1.110 NA
ATOM     22  H   LIG    1       -1.466   3.296  -3.018  0.00  0.00    +0.420 HD
BRANCH  21  23
ATOM     23  S   LIG    1       -0.656   5.447  -3.093  0.00  0.00    +2.610 S 
ATOM     24  O   LIG    1       -0.923   6.273  -1.968  0.00  0.00    -0.950 OA
ATOM     25  O   LIG    1       -1.459   5.519  -4.263  0.00  0.00    -0.960 OA
ATOM     26  C   LIG    1        1.105   5.508  -3.524  0.00  0.00    -0.280 C 
ENDBRANCH  21  23
ENDBRANCH   6  21
TORSDOF 4
