REMARK  Name = ZINCpe00000VVGUS.0
REMARK                            x       y       z     vdW  Elec       q    Type
REMARK                         _______ _______ _______ _____ _____    ______ ____
ROOT
ATOM      1  O   LIG    1        4.733  -0.059  -0.150  0.00  0.00    -0.520 OA
ATOM      2  C   LIG    1        3.701  -0.691  -0.036  0.00  0.00    +0.560 C 
ATOM      3  N   LIG    1        3.741  -2.034   0.058  0.00  0.00    -0.600 N 
ATOM      4  C   LIG    1        2.500  -2.821   0.073  0.00  0.00    +0.280 C 
ATOM      5  C   LIG    1        2.586  -3.891  -1.026  0.00  0.00    +0.020 C 
ATOM      6  C   LIG    1        3.857  -4.719  -0.825  0.00  0.00    +0.280 C 
ATOM      7  C   LIG    1        5.083  -3.811  -0.941  0.00  0.00    +0.020 C 
ATOM      8  C   LIG    1        5.026  -2.741   0.154  0.00  0.00    +0.300 C 
ENDROOT
BRANCH   6   9
ATOM      9  N   LIG    1        3.925  -5.764  -1.850  0.00  0.00    -0.630 N 
ATOM     10  C   LIG    1        3.968  -7.211  -1.590  0.00  0.00    +0.250 C 
ATOM     11  C   LIG    1        4.030  -7.837  -2.996  0.00  0.00    +0.250 C 
ATOM     12  N   LIG    1        4.025  -6.676  -3.899  0.00  0.00    -0.740 N 
ATOM     13  H   LIG    1        4.060  -6.718  -4.868  0.00  0.00    +0.430 HD
ATOM     14  C   LIG    1        3.965  -5.553  -3.172  0.00  0.00    +0.700 C 
ATOM     15  O   LIG    1        3.947  -4.443  -3.667  0.00  0.00    -0.580 OA
ENDBRANCH   6   9
BRANCH   2  16
ATOM     16  C   LIG    1        2.400   0.016  -0.002  0.00  0.00    -0.050 A 
ATOM     17  C   LIG    1        1.388  -0.384   0.877  0.00  0.00    -0.010 A 
ATOM     18  C   LIG    1        0.189   0.301   0.878  0.00  0.00    +0.320 A 
ATOM     19  N   LIG    1       -0.011   1.320   0.067  0.00  0.00    -0.480 NA
ATOM     20  C   LIG    1        0.916   1.734  -0.780  0.00  0.00    +0.350 A 
ATOM     21  C   LIG    1        2.151   1.101  -0.846  0.00  0.00    +0.020 A 
BRANCH  20  22
ATOM     22  N   LIG    1        0.652   2.821  -1.619  0.00  0.00    -0.410 N 
ATOM     23  C   LIG    1       -0.476   3.603  -1.610  0.00  0.00    +0.150 A 
ATOM     24  C   LIG    1       -0.315   4.529  -2.572  0.00  0.00    +0.150 A 
ATOM     25  N   LIG    1        0.871   4.320  -3.163  0.00  0.00    -0.470 NA
ATOM     26  C   LIG    1        1.460   3.300  -2.601  0.00  0.00    +0.410 A 
ENDBRANCH  20  22
ENDBRANCH   2  16
TORSDOF 3
