REMARK  Name = ZINCvU0000000GFR.0
REMARK                            x       y       z     vdW  Elec       q    Type
REMARK                         _______ _______ _______ _____ _____    ______ ____
ROOT
ATOM      1  C   LIG    1       -8.561 -11.534  -1.084  0.00  0.00    +0.660 C 
ATOM      2  N   LIG    1       -7.639 -11.044  -0.232  0.00  0.00    -0.600 N 
ATOM      3  C   LIG    1       -6.697 -11.936   0.462  0.00  0.00    +0.320 C 
ATOM      4  C   LIG    1       -5.277 -11.621  -0.014  0.00  0.00    +0.100 C 
ATOM      5  C   LIG    1       -5.071 -10.115  -0.003  0.00  0.00    -0.030 A 
ATOM      6  C   LIG    1       -6.072  -9.225   0.013  0.00  0.00    -0.280 A 
ATOM      7  S   LIG    1       -5.450  -7.584   0.015  0.00  0.00    +0.350 S 
ATOM      8  C   LIG    1       -3.832  -8.111  -0.003  0.00  0.00    +0.060 A 
ATOM      9  C   LIG    1       -3.768  -9.475  -0.017  0.00  0.00    -0.110 A 
ATOM     10  C   LIG    1       -7.543  -9.600   0.033  0.00  0.00    +0.390 C 
ATOM     11  O   LIG    1       -8.624 -12.730  -1.288  0.00  0.00    -0.560 OA
ENDROOT
BRANCH   8  12
ATOM     12  N   LIG    1       -2.728  -7.269  -0.010  0.00  0.00    -0.630 N 
ATOM     13  H   LIG    1       -1.833  -7.643  -0.021  0.00  0.00    +0.420 HD
ATOM     14  C   LIG    1       -2.900  -5.932  -0.001  0.00  0.00    +0.510 C 
ATOM     15  O   LIG    1       -4.019  -5.465   0.013  0.00  0.00    -0.490 OA
BRANCH  14  16
ATOM     16  C   LIG    1       -1.702  -5.019  -0.008  0.00  0.00    +0.090 C 
BRANCH  16  17
ATOM     17  C   LIG    1       -2.171  -3.562   0.004  0.00  0.00    +0.090 C 
BRANCH  17  18
ATOM     18  C   LIG    1       -0.954  -2.634  -0.003  0.00  0.00    +0.070 C 
BRANCH  18  19
ATOM     19  S   LIG    1       -1.510  -0.908   0.012  0.00  0.00    -0.110 S 
BRANCH  19  20
ATOM     20  C   LIG    1        0.002  -0.004   0.002  0.00  0.00    -0.090 A 
ATOM     21  C   LIG    1       -0.017   1.385   0.010  0.00  0.00    +0.030 A 
ATOM     22  C   LIG    1        1.171   2.091   0.002  0.00  0.00    +0.030 A 
ATOM     23  C   LIG    1        2.377   1.415  -0.013  0.00  0.00    +0.010 A 
ATOM     24  C   LIG    1        2.400   0.033  -0.021  0.00  0.00    +0.030 A 
ATOM     25  C   LIG    1        1.217  -0.679  -0.013  0.00  0.00    -0.020 A 
ENDBRANCH  19  20
ENDBRANCH  18  19
ENDBRANCH  17  18
ENDBRANCH  16  17
ENDBRANCH  14  16
ENDBRANCH   8  12
BRANCH   9  26
ATOM     26  C   LIG    1       -2.535 -10.203  -0.038  0.00  0.00    +0.270 C 
ATOM     27  N   LIG    1       -1.557 -10.781  -0.055  0.00  0.00    -0.420 NA
ENDBRANCH   9  26
BRANCH   1  28
ATOM     28  O   LIG    1       -9.413 -10.699  -1.708  0.00  0.00    -0.360 OA
BRANCH  28  30
ATOM     29  C   LIG    1      -11.261 -12.279  -1.838  0.00  0.00    +0.040 C 
ATOM     30  C   LIG    1      -10.380 -11.297  -2.611  0.00  0.00    +0.140 C 
ATOM     31  C   LIG    1       -9.643 -12.041  -3.727  0.00  0.00    +0.040 C 
ATOM     32  C   LIG    1      -11.254 -10.199  -3.222  0.00  0.00    +0.080 C 
ENDBRANCH  28  30
ENDBRANCH   1  28
TORSDOF 9
