REMARK  Name = ZINCrH000004pVuW.0
REMARK                            x       y       z     vdW  Elec       q    Type
REMARK                         _______ _______ _______ _____ _____    ______ ____
ROOT
ATOM      1  C   LIG    1       -1.476   5.735  -1.794  0.00  0.00    +0.500 C 
ATOM      2  N   LIG    1       -2.474   6.415  -2.392  0.00  0.00    -0.610 N 
ATOM      3  C   LIG    1       -3.288   7.355  -1.617  0.00  0.00    +0.290 C 
ATOM      4  O   LIG    1       -0.736   5.039  -2.454  0.00  0.00    -0.500 OA
ENDROOT
BRANCH   1  15
ATOM      5  C   LIG    1       -3.510   4.760   0.074  0.00  0.00    +0.080 C 
ATOM      6  C   LIG    1       -2.017   4.691   0.398  0.00  0.00    +0.170 C 
ATOM      7  O   LIG    1       -1.476   3.455  -0.081  0.00  0.00    -0.300 OA
ATOM      8  C   LIG    1       -0.119   3.362  -0.137  0.00  0.00    +0.070 A 
ATOM      9  C   LIG    1        0.474   2.113  -0.242  0.00  0.00    +0.010 A 
ATOM     10  C   LIG    1        1.851   2.003  -0.298  0.00  0.00    +0.020 A 
ATOM     11  C   LIG    1        2.640   3.138  -0.260  0.00  0.00    +0.010 A 
ATOM     12  C   LIG    1        2.054   4.386  -0.160  0.00  0.00    +0.020 A 
ATOM     13  C   LIG    1        0.674   4.503  -0.097  0.00  0.00    +0.060 A 
ATOM     14  O   LIG    1        0.112   5.738   0.009  0.00  0.00    -0.280 OA
ATOM     15  C   LIG    1       -1.281   5.841  -0.303  0.00  0.00    +0.180 C 
ENDBRANCH   1  15
BRANCH   2  16
ATOM     16  C   LIG    1       -2.745   6.214  -3.818  0.00  0.00    +0.350 C 
BRANCH  16  17
ATOM     17  C   LIG    1       -3.744   5.098  -3.987  0.00  0.00    -0.110 A 
ATOM     18  C   LIG    1       -3.312   3.831  -4.329  0.00  0.00    +0.080 A 
ATOM     19  C   LIG    1       -4.228   2.806  -4.484  0.00  0.00    +0.000 A 
ATOM     20  C   LIG    1       -5.576   3.047  -4.298  0.00  0.00    +0.060 A 
ATOM     21  C   LIG    1       -6.013   4.313  -3.957  0.00  0.00    -0.060 A 
ATOM     22  C   LIG    1       -5.096   5.341  -3.795  0.00  0.00    +0.110 A 
BRANCH  22  23
ATOM     23  O   LIG    1       -5.522   6.585  -3.453  0.00  0.00    -0.310 OA
BRANCH  23  24
ATOM     24  C   LIG    1       -6.928   6.762  -3.271  0.00  0.00    +0.600 C 
ATOM     25  F   LIG    1       -7.596   6.449  -4.460  0.00  0.00    -0.160 F 
ATOM     26  F   LIG    1       -7.190   8.092  -2.925  0.00  0.00    -0.130 F 
ATOM     27  F   LIG    1       -7.376   5.918  -2.249  0.00  0.00    -0.160 F 
ENDBRANCH  23  24
ENDBRANCH  22  23
ENDBRANCH  16  17
ENDBRANCH   2  16
TORSDOF 5
