REMARK  Name = ZINCvU000000068g.0
REMARK                            x       y       z     vdW  Elec       q    Type
REMARK                         _______ _______ _______ _____ _____    ______ ____
ROOT
ATOM      1  O   LIG    1       -2.204   9.429  -1.376  0.00  0.00    -0.510 OA
ATOM      2  C   LIG    1       -2.249   8.421  -0.697  0.00  0.00    +0.600 C 
ATOM      3  N   LIG    1       -3.326   8.176   0.075  0.00  0.00    -0.650 N 
ATOM      4  H   LIG    1       -3.397   7.337   0.557  0.00  0.00    +0.420 HD
ENDROOT
BRANCH   3   5
ATOM      5  C   LIG    1       -4.340   9.131   0.182  0.00  0.00    +0.160 A 
ATOM      6  C   LIG    1       -4.048  10.478  -0.001  0.00  0.00    +0.020 A 
ATOM      7  C   LIG    1       -5.047  11.421   0.099  0.00  0.00    +0.040 A 
ATOM      8  C   LIG    1       -6.352  11.025   0.394  0.00  0.00    -0.030 A 
ATOM      9  C   LIG    1       -6.642   9.672   0.582  0.00  0.00    +0.090 A 
ATOM     10  C   LIG    1       -5.640   8.733   0.476  0.00  0.00    +0.000 A 
BRANCH   8  11
ATOM     11  C   LIG    1       -7.426  12.035   0.507  0.00  0.00    +0.220 A 
ATOM     12  N   LIG    1       -8.722  11.816   0.428  0.00  0.00    -0.280 NA
ATOM     13  N   LIG    1       -9.360  12.924   0.580  0.00  0.00    -0.290 NA
ATOM     14  C   LIG    1       -8.517  13.902   0.757  0.00  0.00    +0.190 A 
ATOM     15  C   LIG    1       -8.844  15.355   0.988  0.00  0.00    +0.150 C 
ATOM     16  C   LIG    1       -7.958  16.216   0.083  0.00  0.00    +0.030 C 
ATOM     17  C   LIG    1       -6.646  16.527   0.795  0.00  0.00    +0.020 C 
ATOM     18  C   LIG    1       -6.229  15.359   1.687  0.00  0.00    +0.030 C 
ATOM     19  C   LIG    1       -6.005  14.110   0.830  0.00  0.00    +0.290 C 
ATOM     20  N   LIG    1       -7.264  13.376   0.706  0.00  0.00    -0.470 N 
ENDBRANCH   8  11
ENDBRANCH   3   5
BRANCH   2  21
ATOM     21  C   LIG    1       -1.128   7.466  -0.720  0.00  0.00    +0.010 A 
ATOM     22  C   LIG    1       -0.024   7.662  -1.476  0.00  0.00    -0.010 A 
ATOM     23  S   LIG    1        1.053   6.354  -1.245  0.00  0.00    +0.210 S 
ATOM     24  C   LIG    1       -0.072   5.604  -0.118  0.00  0.00    +0.100 A 
ATOM     25  N   LIG    1       -1.129   6.350  -0.004  0.00  0.00    -0.440 NA
BRANCH  24  26
ATOM     26  C   LIG    1        0.149   4.322   0.584  0.00  0.00    -0.040 A 
ATOM     27  C   LIG    1        1.327   3.604   0.376  0.00  0.00    +0.070 A 
ATOM     28  C   LIG    1        1.529   2.408   1.034  0.00  0.00    +0.000 A 
ATOM     29  C   LIG    1        0.563   1.919   1.899  0.00  0.00    +0.120 A 
ATOM     30  C   LIG    1       -0.612   2.625   2.104  0.00  0.00    +0.000 A 
ATOM     31  F   LIG    1        0.764   0.747   2.540  0.00  0.00    -0.130 F 
ATOM     32  C   LIG    1       -0.820   3.825   1.457  0.00  0.00    +0.110 A 
ENDBRANCH  24  26
ENDBRANCH   2  21
TORSDOF 4
