REMARK  Name = ZINCpk000000n26h.0
REMARK                            x       y       z     vdW  Elec       q    Type
REMARK                         _______ _______ _______ _____ _____    ______ ____
ROOT
ATOM      1  C   LIG    1       -7.287   1.038   0.043  0.00  0.00    +0.200 C 
ENDROOT
BRANCH   1   2
ATOM      2  O   LIG    1       -7.319   0.303  -1.182  0.00  0.00    -0.540 OA
ATOM      3  H   LIG    1       -7.389   0.857  -1.972  0.00  0.00    +0.380 HD
ENDBRANCH   1   2
BRANCH   1   4
ATOM      4  C   LIG    1       -6.081   1.979   0.042  0.00  0.00    +0.180 C 
BRANCH   4   5
ATOM      5  O   LIG    1       -4.877   1.210   0.032  0.00  0.00    -0.300 OA
BRANCH   5  10
ATOM      6  C   LIG    1       -1.299   1.927   0.019  0.00  0.00    -0.130 A 
ATOM      7  C   LIG    1       -1.321   3.325   0.026  0.00  0.00    +0.030 A 
ATOM      8  C   LIG    1       -2.528   3.994   0.036  0.00  0.00    +0.040 A 
ATOM      9  C   LIG    1       -3.716   3.287   0.038  0.00  0.00    -0.050 A 
ATOM     10  C   LIG    1       -3.705   1.898   0.030  0.00  0.00    +0.120 A 
ATOM     11  C   LIG    1       -2.502   1.214   0.015  0.00  0.00    +0.050 A 
BRANCH   6  13
ATOM     12  C   LIG    1        1.280   1.980   0.001  0.00  0.00    +0.090 C 
ATOM     13  C   LIG    1       -0.014   1.208   0.009  0.00  0.00    +0.390 C 
ATOM     14  O   LIG    1        0.002  -0.004   0.002  0.00  0.00    -0.450 OA
ENDBRANCH   6  13
ENDBRANCH   5  10
ENDBRANCH   4   5
ENDBRANCH   1   4
BRANCH   1  15
ATOM     15  C   LIG    1       -8.573   1.857   0.179  0.00  0.00    +0.310 C 
BRANCH  15  16
ATOM     16  N   LIG    1       -9.718   0.951   0.299  0.00  0.00    -0.570 N 
ATOM     17  C   LIG    1      -10.194   0.482   1.473  0.00  0.00    +0.530 C 
ATOM     18  C   LIG    1      -11.405  -0.351   1.117  0.00  0.00    +0.220 C 
ATOM     19  C   LIG    1      -11.244  -1.788   1.621  0.00  0.00    +0.040 C 
ATOM     20  C   LIG    1      -12.278  -2.672   0.903  0.00  0.00    +0.030 C 
ATOM     21  C   LIG    1      -12.044  -2.687  -0.607  0.00  0.00    +0.020 C 
ATOM     22  C   LIG    1      -12.206  -1.266  -1.170  0.00  0.00    +0.330 C 
ATOM     23  N   LIG    1      -11.369  -0.377  -0.361  0.00  0.00    -0.620 N 
ATOM     24  O   LIG    1       -9.743   0.685   2.580  0.00  0.00    -0.460 OA
ATOM     25  C   LIG    1      -10.428   0.490  -0.742  0.00  0.00    +0.710 C 
ATOM     26  O   LIG    1      -10.235   0.821  -1.895  0.00  0.00    -0.540 OA
ENDBRANCH  15  16
ENDBRANCH   1  15
TORSDOF 7
