REMARK  Name = ZINCqH0000031uUu.0
REMARK                            x       y       z     vdW  Elec       q    Type
REMARK                         _______ _______ _______ _____ _____    ______ ____
ROOT
ATOM      1  C   LIG    1        0.117   4.439  -1.380  0.00  0.00    +0.510 C 
ATOM      2  N   LIG    1        1.104   5.325  -1.620  0.00  0.00    -0.610 N 
ATOM      3  C   LIG    1        1.894   6.029  -0.594  0.00  0.00    +0.240 C 
ATOM      4  C   LIG    1        2.406   7.310  -1.294  0.00  0.00    +0.040 C 
ATOM      5  C   LIG    1        2.686   6.793  -2.730  0.00  0.00    +0.050 C 
ATOM      6  C   LIG    1        1.566   5.754  -2.948  0.00  0.00    +0.260 C 
ATOM      7  O   LIG    1       -0.473   3.922  -2.306  0.00  0.00    -0.510 OA
ENDROOT
BRANCH   6   8
ATOM      8  C   LIG    1        2.104   4.571  -3.710  0.00  0.00    -0.080 A 
ATOM      9  C   LIG    1        2.865   3.618  -3.060  0.00  0.00    +0.000 A 
ATOM     10  C   LIG    1        3.359   2.532  -3.759  0.00  0.00    +0.000 A 
ATOM     11  C   LIG    1        3.093   2.401  -5.109  0.00  0.00    +0.000 A 
ATOM     12  C   LIG    1        2.332   3.354  -5.760  0.00  0.00    -0.080 A 
ATOM     13  C   LIG    1        2.042   3.211  -7.232  0.00  0.00    +0.090 C 
ATOM     14  C   LIG    1        1.833   4.437  -5.059  0.00  0.00    +0.010 A 
ENDBRANCH   6   8
BRANCH   1  15
ATOM     15  C   LIG    1       -0.254   4.090   0.038  0.00  0.00    +0.350 C 
BRANCH  15  26
ATOM     16  C   LIG    1       -0.013   1.076   0.008  0.00  0.00    +0.050 C 
ATOM     17  C   LIG    1       -1.179   1.728   0.017  0.00  0.00    +0.140 C 
ATOM     18  C   LIG    1       -2.520   1.112   0.021  0.00  0.00    -0.040 A 
ATOM     19  C   LIG    1       -2.979  -0.199   0.016  0.00  0.00    +0.040 A 
ATOM     20  C   LIG    1       -4.337  -0.450   0.022  0.00  0.00    +0.050 A 
ATOM     21  C   LIG    1       -5.245   0.596   0.033  0.00  0.00    +0.020 A 
ATOM     22  C   LIG    1       -4.808   1.905   0.038  0.00  0.00    +0.100 A 
ATOM     23  C   LIG    1       -3.442   2.178   0.031  0.00  0.00    -0.160 A 
ATOM     24  C   LIG    1       -2.655   3.421   0.034  0.00  0.00    +0.570 C 
ATOM     25  O   LIG    1       -3.115   4.547   0.043  0.00  0.00    -0.500 OA
ATOM     26  N   LIG    1       -1.346   3.113   0.031  0.00  0.00    -0.540 N 
ENDBRANCH  15  26
ENDBRANCH   1  15
TORSDOF 3
