REMARK  Name = ZINCrH000004oTai.0
REMARK                            x       y       z     vdW  Elec       q    Type
REMARK                         _______ _______ _______ _____ _____    ______ ____
ROOT
ATOM      1  C   LIG    1       -1.950   6.572  -1.596  0.00  0.00    +0.050 C 
ENDROOT
BRANCH   1   2
ATOM      2  C   LIG    1       -3.171   7.201  -0.978  0.00  0.00    +0.540 C 
ATOM      3  N   LIG    1       -4.246   7.481  -1.742  0.00  0.00    -0.610 N 
ATOM      4  C   LIG    1       -4.322   7.326  -3.206  0.00  0.00    +0.250 C 
ATOM      5  C   LIG    1       -5.835   7.160  -3.506  0.00  0.00    +0.040 C 
ATOM      6  C   LIG    1       -6.463   8.137  -2.477  0.00  0.00    +0.030 C 
ATOM      7  C   LIG    1       -5.533   7.996  -1.254  0.00  0.00    +0.220 C 
ATOM      8  O   LIG    1       -3.187   7.456   0.208  0.00  0.00    -0.530 OA
BRANCH   7   9
ATOM      9  C   LIG    1       -5.330   9.361  -0.594  0.00  0.00    -0.010 C 
ATOM     10  C   LIG    1       -6.683   9.914  -0.140  0.00  0.00    +0.010 C 
ATOM     11  C   LIG    1       -6.480  11.280   0.520  0.00  0.00    +0.000 C 
ATOM     12  C   LIG    1       -5.847  12.243  -0.485  0.00  0.00    +0.000 C 
ATOM     13  C   LIG    1       -4.495  11.690  -0.939  0.00  0.00    +0.000 C 
ATOM     14  C   LIG    1       -4.697  10.325  -1.599  0.00  0.00    +0.010 C 
ENDBRANCH   7   9
ENDBRANCH   1   2
BRANCH   1  15
ATOM     15  C   LIG    1       -0.883   6.361  -0.519  0.00  0.00    +0.330 C 
BRANCH  15  25
ATOM     16  C   LIG    1        2.205   5.659  -3.762  0.00  0.00    +0.060 C 
ATOM     17  C   LIG    1        2.489   5.874  -2.274  0.00  0.00    +0.230 C 
ATOM     18  O   LIG    1        2.750   4.613  -1.652  0.00  0.00    -0.300 OA
ATOM     19  C   LIG    1        1.681   3.796  -1.453  0.00  0.00    +0.080 A 
ATOM     20  C   LIG    1        1.822   2.421  -1.516  0.00  0.00    +0.030 A 
ATOM     21  C   LIG    1        0.723   1.606  -1.312  0.00  0.00    +0.030 A 
ATOM     22  C   LIG    1       -0.517   2.160  -1.051  0.00  0.00    +0.020 A 
ATOM     23  C   LIG    1       -0.664   3.534  -0.980  0.00  0.00    +0.000 A 
ATOM     24  C   LIG    1        0.432   4.355  -1.183  0.00  0.00    +0.100 A 
ATOM     25  N   LIG    1        0.304   5.750  -1.121  0.00  0.00    -0.550 N 
ATOM     26  C   LIG    1        1.293   6.521  -1.624  0.00  0.00    +0.490 C 
ATOM     27  O   LIG    1        1.218   7.729  -1.554  0.00  0.00    -0.500 OA
ENDBRANCH  15  25
ENDBRANCH   1  15
TORSDOF 4
