REMARK  Name = ZINCnE000001JQ1y.0
REMARK                            x       y       z     vdW  Elec       q    Type
REMARK                         _______ _______ _______ _____ _____    ______ ____
ROOT
ATOM      1  N   LIG    1        2.239  -3.011   0.173  0.00  0.00    -0.730 N 
ATOM      2  H   LIG    1        3.011  -2.425   0.188  0.00  0.00    +0.400 HD
ATOM      3  C   LIG    1        0.999  -2.495   0.281  0.00  0.00    +0.570 C 
ATOM      4  O   LIG    1        0.030  -3.229   0.262  0.00  0.00    -0.550 OA
ENDROOT
BRANCH   3   5
ATOM      5  C   LIG    1        0.816  -1.037   0.422  0.00  0.00    -0.170 A 
ATOM      6  C   LIG    1        1.930  -0.192   0.444  0.00  0.00    +0.040 A 
ATOM      7  C   LIG    1        1.761   1.168   0.576  0.00  0.00    +0.020 A 
ATOM      8  C   LIG    1        0.484   1.702   0.687  0.00  0.00    +0.080 A 
ATOM      9  N   LIG    1        0.005   3.000   0.828  0.00  0.00    -0.550 NA
ATOM     10  C   LIG    1       -1.339   2.934   0.888  0.00  0.00    +0.400 A 
ATOM     11  O   LIG    1       -1.730   1.653   0.786  0.00  0.00    -0.230 OA
ATOM     12  S   LIG    1       -2.388   4.277   1.061  0.00  0.00    -0.680 S 
ATOM     13  C   LIG    1       -0.634   0.864   0.666  0.00  0.00    -0.030 A 
ATOM     14  C   LIG    1       -0.469  -0.501   0.533  0.00  0.00    +0.130 A 
ENDBRANCH   3   5
BRANCH   1  15
ATOM     15  C   LIG    1        2.420  -4.458   0.033  0.00  0.00    +0.270 C 
BRANCH  15  16
ATOM     16  C   LIG    1        3.902  -4.768  -0.187  0.00  0.00    -0.070 C 
ATOM     17  C   LIG    1        4.415  -4.033  -1.443  0.00  0.00    +0.020 C 
ATOM     18  C   LIG    1        5.405  -5.034  -2.089  0.00  0.00    +0.020 C 
ATOM     19  C   LIG    1        4.715  -6.401  -1.854  0.00  0.00    +0.010 C 
ATOM     20  C   LIG    1        4.093  -6.272  -0.448  0.00  0.00    +0.020 C 
BRANCH  16  21
ATOM     21  C   LIG    1        4.713  -4.341   1.038  0.00  0.00    +0.040 C 
BRANCH  21  22
ATOM     22  C   LIG    1        4.174  -5.053   2.280  0.00  0.00    +0.160 C 
BRANCH  22  24
ATOM     23  C   LIG    1        4.590  -5.371   4.619  0.00  0.00    +0.200 C 
ATOM     24  O   LIG    1        5.008  -4.752   3.401  0.00  0.00    -0.390 OA
ENDBRANCH  22  24
ENDBRANCH  21  22
ENDBRANCH  16  21
ENDBRANCH  15  16
ENDBRANCH   1  15
TORSDOF 6
