REMARK  Name = ZINCvU0000000IzM.0
REMARK                            x       y       z     vdW  Elec       q    Type
REMARK                         _______ _______ _______ _____ _____    ______ ____
ROOT
ATOM      1  N   LIG    1       -4.801   2.830   0.506  0.00  0.00    -0.570 N 
ATOM      2  C   LIG    1       -3.761   2.397   1.244  0.00  0.00    +0.600 C 
ATOM      3  O   LIG    1       -2.934   3.189   1.655  0.00  0.00    -0.510 OA
ENDROOT
BRANCH   2   4
ATOM      4  C   LIG    1       -3.625   0.966   1.555  0.00  0.00    -0.240 A 
ATOM      5  C   LIG    1       -3.378   0.473   2.773  0.00  0.00    +0.010 A 
ATOM      6  C   LIG    1       -3.292  -0.924   2.852  0.00  0.00    -0.190 A 
ATOM      7  C   LIG    1       -3.050  -1.758   3.968  0.00  0.00    +0.260 A 
ATOM      8  N   LIG    1       -3.012  -3.062   3.795  0.00  0.00    -0.520 NA
ATOM      9  C   LIG    1       -3.196  -3.606   2.605  0.00  0.00    +0.380 A 
ATOM     10  N   LIG    1       -3.425  -2.881   1.534  0.00  0.00    -0.490 NA
ATOM     11  C   LIG    1       -2.838  -1.161   5.335  0.00  0.00    +0.150 C 
ATOM     12  C   LIG    1       -3.481  -1.549   1.609  0.00  0.00    +0.100 A 
ATOM     13  C   LIG    1       -3.209   1.359   3.980  0.00  0.00    +0.140 C 
ATOM     14  S   LIG    1       -3.763  -0.327   0.376  0.00  0.00    +0.200 S 
BRANCH   9  15
ATOM     15  C   LIG    1       -3.142  -5.107   2.472  0.00  0.00    +0.020 C 
ATOM     16  C   LIG    1       -3.154  -5.691   1.058  0.00  0.00    +0.060 C 
ATOM     17  C   LIG    1       -4.393  -5.815   1.948  0.00  0.00    +0.060 C 
ENDBRANCH   9  15
ENDBRANCH   2   4
BRANCH   1  18
ATOM     18  C   LIG    1       -4.869   4.233   0.088  0.00  0.00    +0.210 C 
ATOM     19  C   LIG    1       -3.554   5.013   0.017  0.00  0.00    +0.020 C 
ATOM     20  C   LIG    1       -4.553   5.299   1.139  0.00  0.00    +0.010 C 
ENDBRANCH   1  18
BRANCH   1  21
ATOM     21  C   LIG    1       -5.864   1.899   0.120  0.00  0.00    +0.350 C 
BRANCH  21  26
ATOM     22  C   LIG    1       -7.402   0.099   3.065  0.00  0.00    +0.090 A 
ATOM     23  C   LIG    1       -8.310   1.041   3.524  0.00  0.00    -0.030 A 
ATOM     24  C   LIG    1       -8.425   2.259   2.881  0.00  0.00    -0.040 A 
ATOM     25  C   LIG    1       -7.630   2.540   1.781  0.00  0.00    +0.120 A 
ATOM     26  C   LIG    1       -6.725   1.596   1.319  0.00  0.00    -0.110 A 
ATOM     27  C   LIG    1       -6.609   0.379   1.962  0.00  0.00    +0.030 A 
BRANCH  22  29
ATOM     28  C   LIG    1       -8.135  -1.320   4.828  0.00  0.00    +0.240 C 
ATOM     29  O   LIG    1       -7.288  -1.099   3.698  0.00  0.00    -0.320 OA
ENDBRANCH  22  29
BRANCH  25  30
ATOM     30  O   LIG    1       -7.740   3.741   1.151  0.00  0.00    -0.310 OA
ATOM     31  C   LIG    1       -8.692   4.666   1.680  0.00  0.00    +0.230 C 
ENDBRANCH  25  30
ENDBRANCH  21  26
ENDBRANCH   1  21
TORSDOF 7
