REMARK  Name = ZINCrH000004pG8I.0
REMARK                            x       y       z     vdW  Elec       q    Type
REMARK                         _______ _______ _______ _____ _____    ______ ____
ROOT
ATOM      1  C   LIG    1        0.329   0.224   2.507  0.00  0.00    +0.360 A 
ATOM      2  N   LIG    1       -0.005   0.644   3.703  0.00  0.00    -0.510 NA
ATOM      3  C   LIG    1        0.368   1.860   4.154  0.00  0.00    +0.090 A 
ATOM      4  C   LIG    1        1.123   2.693   3.340  0.00  0.00    -0.230 A 
ATOM      5  C   LIG    1        1.440   3.967   3.975  0.00  0.00    -0.030 A 
ATOM      6  C   LIG    1        0.949   4.092   5.208  0.00  0.00    -0.200 A 
ATOM      7  C   LIG    1        1.134   5.318   6.085  0.00  0.00    +0.120 C 
ATOM      8  C   LIG    1        2.277   6.163   5.516  0.00  0.00    +0.020 C 
ATOM      9  C   LIG    1        2.041   6.376   4.018  0.00  0.00    +0.020 C 
ATOM     10  C   LIG    1        2.257   5.051   3.284  0.00  0.00    +0.110 C 
ATOM     11  C   LIG    1        1.485   2.219   2.042  0.00  0.00    +0.560 A 
ATOM     12  O   LIG    1        2.152   2.911   1.292  0.00  0.00    -0.510 OA
ATOM     13  S   LIG    1        0.060   2.656   5.689  0.00  0.00    +0.190 S 
ATOM     14  N   LIG    1        1.071   0.995   1.660  0.00  0.00    -0.520 N 
ATOM     15  C   LIG    1        1.424   0.488   0.331  0.00  0.00    +0.340 C 
ENDROOT
BRANCH   1  16
ATOM     16  S   LIG    1       -0.192  -1.375   1.980  0.00  0.00    +0.070 S 
BRANCH  16  17
ATOM     17  C   LIG    1       -1.100  -1.910   3.451  0.00  0.00    +0.110 C 
BRANCH  17  26
ATOM     18  C   LIG    1       -2.629  -1.787   5.225  0.00  0.00    +0.040 C 
ATOM     19  C   LIG    1       -2.659  -3.299   5.457  0.00  0.00    +0.220 C 
ATOM     20  C   LIG    1       -4.102  -3.752   5.725  0.00  0.00    +0.020 C 
ATOM     21  C   LIG    1       -4.142  -5.279   5.820  0.00  0.00    +0.020 C 
ATOM     22  C   LIG    1       -3.686  -5.887   4.491  0.00  0.00    +0.020 C 
ATOM     23  C   LIG    1       -2.244  -5.457   4.206  0.00  0.00    +0.230 C 
ATOM     24  C   LIG    1       -1.825  -5.945   2.817  0.00  0.00    +0.040 C 
ATOM     25  N   LIG    1       -2.168  -3.991   4.257  0.00  0.00    -0.610 N 
ATOM     26  C   LIG    1       -1.653  -3.294   3.225  0.00  0.00    +0.540 C 
ATOM     27  O   LIG    1       -1.634  -3.780   2.114  0.00  0.00    -0.510 OA
ENDBRANCH  17  26
ENDBRANCH  16  17
ENDBRANCH   1  16
TORSDOF 3
