REMARK  Name = ZINCpe00000MJKcN.0
REMARK                            x       y       z     vdW  Elec       q    Type
REMARK                         _______ _______ _______ _____ _____    ______ ____
ROOT
ATOM      1  N   LIG    1       -0.683   3.263  -3.909  0.00  0.00    -0.480 NA
ATOM      2  C   LIG    1       -1.007   3.612  -5.300  0.00  0.00    +0.150 C 
ATOM      3  C   LIG    1       -1.065   5.135  -5.438  0.00  0.00    +0.220 C 
ATOM      4  O   LIG    1       -2.023   5.656  -4.513  0.00  0.00    -0.380 OA
ATOM      5  C   LIG    1       -1.739   5.336  -3.148  0.00  0.00    +0.220 C 
ATOM      6  C   LIG    1       -1.687   3.815  -2.987  0.00  0.00    +0.120 C 
ENDROOT
BRANCH   6   7
ATOM      7  C   LIG    1       -1.304   3.467  -1.547  0.00  0.00    +0.010 C 
ATOM      8  C   LIG    1       -2.401   3.951  -0.596  0.00  0.00    +0.020 C 
ATOM      9  C   LIG    1       -2.018   3.603   0.843  0.00  0.00    +0.010 C 
ATOM     10  C   LIG    1       -0.696   4.286   1.199  0.00  0.00    +0.000 C 
ATOM     11  C   LIG    1        0.401   3.802   0.248  0.00  0.00    -0.020 C 
ATOM     12  C   LIG    1        0.018   4.150  -1.191  0.00  0.00    +0.160 C 
BRANCH  12  13
ATOM     13  O   LIG    1        1.042   3.698  -2.079  0.00  0.00    -0.540 OA
ATOM     14  H   LIG    1        1.909   4.091  -1.912  0.00  0.00    +0.370 HD
ENDBRANCH  12  13
ENDBRANCH   6   7
BRANCH   1  15
ATOM     15  C   LIG    1       -0.561   1.808  -3.745  0.00  0.00    +0.260 C 
BRANCH  15  17
ATOM     16  N   LIG    1       -1.939  -0.197  -4.190  0.00  0.00    -0.610 N 
ATOM     17  C   LIG    1       -1.853   1.147  -4.153  0.00  0.00    +0.480 C 
ATOM     18  O   LIG    1       -2.814   1.825  -4.448  0.00  0.00    -0.520 OA
BRANCH  16  19
ATOM     19  C   LIG    1       -0.777  -1.016  -3.833  0.00  0.00    +0.310 C 
BRANCH  19  20
ATOM     20  C   LIG    1       -0.803  -1.311  -2.332  0.00  0.00    +0.170 C 
BRANCH  20  22
ATOM     21  N   LIG    1        1.265  -2.768  -1.698  0.00  0.00    -0.420 NA
ATOM     22  C   LIG    1        0.364  -2.134  -1.974  0.00  0.00    +0.200 C 
ENDBRANCH  20  22
ENDBRANCH  19  20
ENDBRANCH  16  19
BRANCH  16  23
ATOM     23  C   LIG    1       -3.194  -0.840  -4.586  0.00  0.00    +0.310 C 
BRANCH  23  24
ATOM     24  C   LIG    1       -3.202  -1.054  -6.101  0.00  0.00    +0.180 C 
BRANCH  24  25
ATOM     25  C   LIG    1       -4.463  -1.700  -6.499  0.00  0.00    +0.200 C 
ATOM     26  N   LIG    1       -5.436  -2.199  -6.807  0.00  0.00    -0.420 NA
ENDBRANCH  24  25
ENDBRANCH  23  24
ENDBRANCH  16  23
ENDBRANCH  15  17
ENDBRANCH   1  15
TORSDOF 10
