REMARK  Name = ZINCpk00000FdiF9.2
REMARK                            x       y       z     vdW  Elec       q    Type
REMARK                         _______ _______ _______ _____ _____    ______ ____
ROOT
ATOM      1  C   LIG    1        2.082   0.858  -0.963  0.00  0.00    +0.280 C 
ATOM      2  C   LIG    1        1.151  -0.372  -0.961  0.00  0.00    +0.060 C 
ATOM      3  C   LIG    1        0.002  -0.004   0.002  0.00  0.00    +0.180 C 
ATOM      4  N   LIG    1       -0.018   1.481   0.010  0.00  0.00    -0.490 NA
ATOM      5  C   LIG    1        1.417   1.866  -0.001  0.00  0.00    +0.210 C 
ENDROOT
BRANCH   1   6
ATOM      6  C   LIG    1        3.451   0.479  -0.460  0.00  0.00    +0.160 A 
ATOM      7  N   LIG    1        4.305  -0.323  -1.049  0.00  0.00    -0.420 NA
ATOM      8  C   LIG    1        5.380  -0.362  -0.241  0.00  0.00    +0.160 A 
ATOM      9  N   LIG    1        5.130   0.404   0.778  0.00  0.00    -0.380 NA
ATOM     10  C   LIG    1        6.644  -1.149  -0.476  0.00  0.00    +0.200 C 
ATOM     11  O   LIG    1        4.029   0.901   0.669  0.00  0.00    +0.080 OA
ENDBRANCH   1   6
BRANCH   1  14
ATOM     12  C   LIG    1        2.769   1.263  -4.707  0.00  0.00    +0.090 C 
ATOM     13  C   LIG    1        2.674   0.682  -3.320  0.00  0.00    +0.500 C 
ATOM     14  N   LIG    1        2.175   1.423  -2.312  0.00  0.00    -0.720 N 
ATOM     15  H   LIG    1        1.877   2.331  -2.478  0.00  0.00    +0.410 HD
ATOM     16  O   LIG    1        3.046  -0.454  -3.112  0.00  0.00    -0.490 OA
ENDBRANCH   1  14
BRANCH   4  17
ATOM     17  C   LIG    1       -0.690   1.992   1.212  0.00  0.00    +0.270 C 
BRANCH  17  18
ATOM     18  C   LIG    1        0.168   1.721   2.421  0.00  0.00    -0.080 A 
ATOM     19  C   LIG    1        0.003   0.557   3.099  0.00  0.00    +0.040 A 
ATOM     20  C   LIG    1        0.805   0.290   4.229  0.00  0.00    +0.100 A 
ATOM     21  N   LIG    1        0.901  -0.713   5.083  0.00  0.00    -0.300 NA
ATOM     22  N   LIG    1        1.891  -0.414   6.026  0.00  0.00    -0.420 N 
ATOM     23  H   LIG    1        2.153  -0.992   6.760  0.00  0.00    +0.450 HD
ATOM     24  C   LIG    1        2.425   0.787   5.764  0.00  0.00    +0.280 A 
ATOM     25  C   LIG    1        1.794   1.297   4.645  0.00  0.00    -0.210 A 
ATOM     26  C   LIG    1        1.906   2.488   3.896  0.00  0.00    +0.100 A 
ATOM     27  C   LIG    1        1.106   2.677   2.816  0.00  0.00    -0.030 A 
ENDBRANCH  17  18
ENDBRANCH   4  17
TORSDOF 4
