REMARK  Name = ZINCrD000000CCZX.0
REMARK                            x       y       z     vdW  Elec       q    Type
REMARK                         _______ _______ _______ _____ _____    ______ ____
ROOT
ATOM      1  O   LIG    1        0.065   0.027   0.271  0.00  0.00    -0.530 OA
ATOM      2  C   LIG    1       -0.014   1.211   0.009  0.00  0.00    +0.560 C 
ATOM      3  N   LIG    1       -1.201   1.746  -0.341  0.00  0.00    -0.610 N 
ATOM      4  C   LIG    1       -1.292   3.145  -0.778  0.00  0.00    +0.280 C 
ATOM      5  C   LIG    1       -1.999   3.186  -2.142  0.00  0.00    +0.010 C 
ATOM      6  C   LIG    1       -3.348   2.473  -2.032  0.00  0.00    +0.180 C 
ATOM      7  C   LIG    1       -3.124   1.008  -1.650  0.00  0.00    +0.040 C 
ATOM      8  C   LIG    1       -2.429   0.941  -0.287  0.00  0.00    +0.310 C 
ENDROOT
BRANCH   2   9
ATOM      9  C   LIG    1        1.192   2.064   0.067  0.00  0.00    -0.130 A 
ATOM     10  C   LIG    1        2.409   1.592  -0.426  0.00  0.00    +0.070 A 
ATOM     11  C   LIG    1        3.529   2.395  -0.374  0.00  0.00    +0.010 A 
ATOM     12  C   LIG    1        3.451   3.662   0.177  0.00  0.00    -0.050 A 
ATOM     13  C   LIG    1        2.249   4.134   0.673  0.00  0.00    +0.010 A 
ATOM     14  C   LIG    1        1.119   3.343   0.622  0.00  0.00    +0.040 A 
BRANCH  12  15
ATOM     15  C   LIG    1        4.680   4.532   0.236  0.00  0.00    +0.010 C 
ATOM     16  C   LIG    1        5.788   3.848   1.069  0.00  0.00    +0.010 C 
ATOM     17  C   LIG    1        6.951   3.666   0.069  0.00  0.00    +0.190 C 
ATOM     18  O   LIG    1        6.731   4.676  -0.940  0.00  0.00    -0.370 OA
ATOM     19  C   LIG    1        5.305   4.682  -1.168  0.00  0.00    +0.220 C 
ENDBRANCH  12  15
ENDBRANCH   2   9
BRANCH   6  20
ATOM     20  O   LIG    1       -4.025   2.539  -3.289  0.00  0.00    -0.290 OA
BRANCH  20  21
ATOM     21  C   LIG    1       -4.837   3.606  -3.497  0.00  0.00    +0.300 A 
ATOM     22  C   LIG    1       -5.526   3.734  -4.697  0.00  0.00    +0.240 A 
ATOM     23  N   LIG    1       -6.316   4.773  -4.897  0.00  0.00    -0.380 NA
ATOM     24  C   LIG    1       -6.452   5.692  -3.957  0.00  0.00    +0.210 A 
ATOM     25  C   LIG    1       -5.767   5.568  -2.760  0.00  0.00    +0.170 A 
ATOM     26 CL   LIG    1       -5.948   6.778  -1.528  0.00  0.00    -0.000 Cl
ATOM     27  N   LIG    1       -4.978   4.526  -2.553  0.00  0.00    -0.500 NA
ENDBRANCH  20  21
ENDBRANCH   6  20
TORSDOF 4
