REMARK  Name = ZINCtV000002rNkl.0
REMARK                            x       y       z     vdW  Elec       q    Type
REMARK                         _______ _______ _______ _____ _____    ______ ____
ROOT
ATOM      1  N   LIG    1       -1.245   0.590   0.755  0.00  0.00    -0.540 N 
ATOM      2  C   LIG    1       -2.393   1.292   0.831  0.00  0.00    +0.530 C 
ATOM      3  O   LIG    1       -2.359   2.498   0.949  0.00  0.00    -0.500 OA
ENDROOT
BRANCH   1   4
ATOM      4  C   LIG    1       -0.015   1.236   0.936  0.00  0.00    +0.100 A 
ATOM      5  C   LIG    1        1.170   0.559   0.679  0.00  0.00    +0.020 A 
ATOM      6  C   LIG    1        2.381   1.198   0.853  0.00  0.00    -0.040 A 
ATOM      7  C   LIG    1        2.416   2.514   1.295  0.00  0.00    +0.180 A 
ATOM      8  C   LIG    1        1.230   3.189   1.557  0.00  0.00    -0.030 A 
ATOM      9  C   LIG    1        0.019   2.552   1.378  0.00  0.00    +0.060 A 
BRANCH   7  10
ATOM     10  N   LIG    1        3.643   3.159   1.477  0.00  0.00    -0.690 N 
ATOM     11  H   LIG    1        3.669   4.062   1.831  0.00  0.00    +0.410 HD
BRANCH  10  12
ATOM     12  C   LIG    1        4.832   2.504   1.149  0.00  0.00    +0.160 A 
ATOM     13  C   LIG    1        5.097   1.242   1.666  0.00  0.00    -0.010 A 
ATOM     14  C   LIG    1        6.272   0.595   1.335  0.00  0.00    +0.030 A 
ATOM     15  C   LIG    1        7.188   1.205   0.499  0.00  0.00    -0.020 A 
ATOM     16  C   LIG    1        6.930   2.464  -0.013  0.00  0.00    +0.030 A 
ATOM     17  C   LIG    1        5.755   3.115   0.309  0.00  0.00    -0.020 A 
ENDBRANCH  10  12
ENDBRANCH   7  10
ENDBRANCH   1   4
BRANCH   1  19
ATOM     18  C   LIG    1       -0.662  -1.119  -0.896  0.00  0.00    +0.040 C 
ATOM     19  C   LIG    1       -1.282  -0.848   0.476  0.00  0.00    +0.220 C 
ATOM     20  C   LIG    1       -0.490  -1.596   1.551  0.00  0.00    +0.040 C 
ENDBRANCH   1  19
BRANCH   2  21
ATOM     21  C   LIG    1       -3.718   0.577   0.769  0.00  0.00    +0.080 C 
BRANCH  21  22
ATOM     22  S   LIG    1       -5.062   1.796   0.750  0.00  0.00    +0.000 S 
BRANCH  22  23
ATOM     23  C   LIG    1       -6.508   0.791   0.677  0.00  0.00    -0.090 A 
ATOM     24  C   LIG    1       -7.764   1.382   0.648  0.00  0.00    +0.070 A 
ATOM     25  C   LIG    1       -8.897   0.593   0.590  0.00  0.00    +0.050 A 
ATOM     26  C   LIG    1       -8.781  -0.786   0.562  0.00  0.00    +0.060 A 
ATOM     27  C   LIG    1       -7.528  -1.379   0.592  0.00  0.00    +0.090 A 
ATOM     28  F   LIG    1       -7.417  -2.726   0.566  0.00  0.00    -0.120 F 
ATOM     29  F   LIG    1       -9.891  -1.555   0.506  0.00  0.00    -0.130 F 
ATOM     30  C   LIG    1       -6.392  -0.593   0.644  0.00  0.00    -0.010 A 
ENDBRANCH  22  23
ENDBRANCH  21  22
ENDBRANCH   2  21
TORSDOF 7
