REMARK  Name = ZINCrH000004nBBY.0
REMARK                            x       y       z     vdW  Elec       q    Type
REMARK                         _______ _______ _______ _____ _____    ______ ____
ROOT
ATOM      1  N   LIG    1        2.168   1.356   1.108  0.00  0.00    -0.490 N 
ATOM      2  C   LIG    1        1.428   1.973  -0.001  0.00  0.00    +0.180 C 
ATOM      3  C   LIG    1       -0.018   1.467   0.010  0.00  0.00    +0.300 C 
ATOM      4  N   LIG    1        0.002  -0.004   0.002  0.00  0.00    -0.620 N 
ATOM      5  C   LIG    1        0.833  -0.694   1.000  0.00  0.00    +0.280 C 
ATOM      6  C   LIG    1       -0.722  -0.701  -0.896  0.00  0.00    +0.520 C 
ATOM      7  O   LIG    1       -1.403  -0.115  -1.712  0.00  0.00    -0.520 OA
ATOM      8  C   LIG    1        2.246  -0.103   0.950  0.00  0.00    +0.180 C 
ENDROOT
BRANCH   1  14
ATOM      9  C   LIG    1        3.788   2.629   2.379  0.00  0.00    +0.150 A 
ATOM     10  C   LIG    1        5.052   3.180   2.496  0.00  0.00    -0.080 A 
ATOM     11  C   LIG    1        5.973   3.022   1.476  0.00  0.00    +0.050 A 
ATOM     12  C   LIG    1        5.634   2.315   0.337  0.00  0.00    -0.030 A 
ATOM     13  C   LIG    1        4.375   1.757   0.215  0.00  0.00    +0.010 A 
ATOM     14  C   LIG    1        3.445   1.915   1.231  0.00  0.00    +0.050 A 
BRANCH   9  16
ATOM     15  C   LIG    1        3.301   3.526   4.527  0.00  0.00    +0.220 C 
ATOM     16  O   LIG    1        2.881   2.784   3.381  0.00  0.00    -0.300 OA
ENDBRANCH   9  16
ENDBRANCH   1  14
BRANCH   6  17
ATOM     17  C   LIG    1       -0.687  -2.207  -0.886  0.00  0.00    +0.110 C 
BRANCH  17  18
ATOM     18  C   LIG    1       -1.577  -2.738  -1.981  0.00  0.00    -0.060 A 
ATOM     19  C   LIG    1       -2.862  -3.091  -1.708  0.00  0.00    +0.020 A 
ATOM     20  C   LIG    1       -3.700  -3.583  -2.707  0.00  0.00    +0.010 A 
ATOM     21  C   LIG    1       -3.256  -3.725  -3.986  0.00  0.00    +0.030 A 
ATOM     22  C   LIG    1       -1.934  -3.371  -4.307  0.00  0.00    -0.050 A 
ATOM     23  C   LIG    1       -1.440  -3.504  -5.615  0.00  0.00    +0.030 A 
ATOM     24  C   LIG    1       -0.160  -3.134  -5.893  0.00  0.00    +0.000 A 
ATOM     25  C   LIG    1        0.677  -2.642  -4.894  0.00  0.00    +0.010 A 
ATOM     26  C   LIG    1        0.235  -2.505  -3.614  0.00  0.00    +0.010 A 
ATOM     27  C   LIG    1       -1.085  -2.865  -3.292  0.00  0.00    -0.030 A 
ENDBRANCH  17  18
ENDBRANCH   6  17
TORSDOF 4
