REMARK  Name = ZINCqH00000038qa.0
REMARK                            x       y       z     vdW  Elec       q    Type
REMARK                         _______ _______ _______ _____ _____    ______ ____
ROOT
ATOM      1  C   LIG    1       -5.006   0.892   0.043  0.00  0.00    +0.400 C 
ENDROOT
BRANCH   1   2
ATOM      2  C   LIG    1       -3.652   1.549  -0.038  0.00  0.00    +0.420 A 
ATOM      3  N   LIG    1       -3.598   2.851  -0.075  0.00  0.00    -0.560 NA
ATOM      4  C   LIG    1       -2.426   3.510  -0.147  0.00  0.00    +0.540 A 
ATOM      5  C   LIG    1       -1.185   2.716  -0.184  0.00  0.00    -0.210 A 
ATOM      6  C   LIG    1        0.072   3.311  -0.259  0.00  0.00    +0.140 A 
ATOM      7  C   LIG    1        1.191   2.524  -0.291  0.00  0.00    +0.010 A 
ATOM      8  C   LIG    1        1.083   1.140  -0.249  0.00  0.00    +0.030 A 
ATOM      9  C   LIG    1       -0.155   0.532  -0.175  0.00  0.00    -0.010 A 
ATOM     10 CL   LIG    1        2.519   0.165  -0.291  0.00  0.00    -0.050 Cl
ATOM     11  C   LIG    1       -1.300   1.314  -0.147  0.00  0.00    +0.200 A 
ATOM     12  O   LIG    1       -2.392   4.728  -0.181  0.00  0.00    -0.470 OA
ATOM     13  N   LIG    1       -2.563   0.761  -0.068  0.00  0.00    -0.620 N 
ATOM     14  H   LIG    1       -2.665  -0.203  -0.037  0.00  0.00    +0.420 HD
ENDBRANCH   1   2
BRANCH   1  15
ATOM     15  N   LIG    1       -6.048   1.922   0.064  0.00  0.00    -0.590 N 
ATOM     16  C   LIG    1       -6.471   2.478  -1.089  0.00  0.00    +0.610 C 
ATOM     17  O   LIG    1       -7.308   3.361  -1.068  0.00  0.00    -0.510 OA
BRANCH  16  18
ATOM     18  C   LIG    1       -5.922   2.017  -2.368  0.00  0.00    -0.260 A 
ATOM     19  C   LIG    1       -6.370   2.389  -3.596  0.00  0.00    +0.120 A 
ATOM     20  C   LIG    1       -5.675   1.807  -4.652  0.00  0.00    -0.130 A 
ATOM     21  C   LIG    1       -4.686   0.983  -4.267  0.00  0.00    -0.230 A 
ATOM     22  C   LIG    1       -3.982   0.393  -5.483  0.00  0.00    +0.110 C 
ATOM     23  C   LIG    1       -4.958   0.620  -6.654  0.00  0.00    +0.040 C 
ATOM     24  C   LIG    1       -5.740   1.860  -6.178  0.00  0.00    +0.100 C 
ATOM     25  S   LIG    1       -4.578   0.905  -2.557  0.00  0.00    +0.190 S 
ENDBRANCH  16  18
BRANCH  15  27
ATOM     26  C   LIG    1       -5.899   3.596   1.842  0.00  0.00    +0.030 C 
ATOM     27  C   LIG    1       -6.630   2.349   1.339  0.00  0.00    +0.290 C 
ENDBRANCH  15  27
ENDBRANCH   1  15
TORSDOF 4
