REMARK  Name = ZINCrH000004uwvR.0
REMARK                            x       y       z     vdW  Elec       q    Type
REMARK                         _______ _______ _______ _____ _____    ______ ____
ROOT
ATOM      1  O   LIG    1       -3.381  -3.827  -1.848  0.00  0.00    -0.520 OA
ATOM      2  C   LIG    1       -3.795  -3.157  -0.923  0.00  0.00    +0.600 C 
ATOM      3  N   LIG    1       -5.018  -3.400  -0.410  0.00  0.00    -0.710 N 
ATOM      4  H   LIG    1       -5.348  -2.865   0.328  0.00  0.00    +0.410 HD
ENDROOT
BRANCH   2   5
ATOM      5  C   LIG    1       -2.955  -2.073  -0.357  0.00  0.00    -0.030 A 
ATOM      6  N   LIG    1       -3.266  -1.274   0.634  0.00  0.00    -0.330 NA
ATOM      7  O   LIG    1       -2.376  -0.492   0.876  0.00  0.00    +0.140 OA
ATOM      8  C   LIG    1       -1.327  -0.661   0.051  0.00  0.00    +0.010 A 
ATOM      9  C   LIG    1       -1.655  -1.695  -0.781  0.00  0.00    +0.030 A 
BRANCH   8  10
ATOM     10  C   LIG    1       -0.069   0.113   0.050  0.00  0.00    -0.070 A 
ATOM     11  C   LIG    1        1.161  -0.547   0.057  0.00  0.00    +0.080 A 
ATOM     12  C   LIG    1        2.332   0.181   0.055  0.00  0.00    +0.010 A 
ATOM     13  C   LIG    1        2.292   1.565   0.046  0.00  0.00    +0.070 A 
ATOM     14  C   LIG    1        1.078   2.228   0.038  0.00  0.00    +0.000 A 
ATOM     15  C   LIG    1       -0.104   1.511   0.041  0.00  0.00    +0.130 A 
ATOM     16  F   LIG    1       -1.289   2.159   0.028  0.00  0.00    -0.130 F 
ENDBRANCH   8  10
ENDBRANCH   2   5
BRANCH   3  17
ATOM     17  C   LIG    1       -5.847  -4.470  -0.969  0.00  0.00    +0.290 C 
BRANCH  17  18
ATOM     18  C   LIG    1       -7.176  -4.533  -0.213  0.00  0.00    -0.030 C 
ATOM     19  C   LIG    1       -8.066  -3.313  -0.565  0.00  0.00    +0.030 C 
ATOM     20  C   LIG    1       -9.485  -3.874  -0.300  0.00  0.00    +0.200 C 
ATOM     21  N   LIG    1       -9.425  -5.281  -0.748  0.00  0.00    -0.480 N 
ATOM     22  C   LIG    1       -8.021  -5.731  -0.695  0.00  0.00    +0.220 C 
BRANCH  21  23
ATOM     23  C   LIG    1      -10.241  -6.094   0.042  0.00  0.00    +0.110 A 
ATOM     24  C   LIG    1       -9.995  -7.459   0.123  0.00  0.00    -0.030 A 
ATOM     25  C   LIG    1      -10.801  -8.259   0.909  0.00  0.00    +0.030 A 
ATOM     26  C   LIG    1      -11.858  -7.704   1.606  0.00  0.00    -0.030 A 
ATOM     27  C   LIG    1      -12.110  -6.347   1.523  0.00  0.00    +0.030 A 
ATOM     28  C   LIG    1      -11.304  -5.540   0.744  0.00  0.00    -0.030 A 
ENDBRANCH  21  23
ENDBRANCH  17  18
ENDBRANCH   3  17
TORSDOF 5
