REMARK  Name = ZINCnE00000rhnU5.0
REMARK                            x       y       z     vdW  Elec       q    Type
REMARK                         _______ _______ _______ _____ _____    ______ ____
ROOT
ATOM      1  C   LIG    1       -1.298   1.936   0.032  0.00  0.00    -0.220 A 
ATOM      2  C   LIG    1       -2.511   1.244  -0.078  0.00  0.00    +0.350 A 
ATOM      3  N   LIG    1       -3.641   1.926  -0.072  0.00  0.00    -0.520 NA
ATOM      4  C   LIG    1       -3.646   3.251   0.024  0.00  0.00    +0.330 A 
ATOM      5  N   LIG    1       -2.529   3.955   0.124  0.00  0.00    -0.520 NA
ATOM      6  C   LIG    1       -1.342   3.350   0.133  0.00  0.00    +0.220 A 
ENDROOT
BRANCH   4   7
ATOM      7  C   LIG    1       -4.945   3.965   0.018  0.00  0.00    -0.030 A 
ATOM      8  C   LIG    1       -4.980   5.355   0.124  0.00  0.00    +0.050 A 
ATOM      9  C   LIG    1       -6.192   6.015   0.112  0.00  0.00    -0.010 A 
ATOM     10  C   LIG    1       -7.371   5.299   0.008  0.00  0.00    +0.010 A 
ATOM     11  C   LIG    1       -7.343   3.919  -0.091  0.00  0.00    -0.010 A 
ATOM     12  C   LIG    1       -6.137   3.249  -0.086  0.00  0.00    +0.060 A 
ENDBRANCH   4   7
BRANCH   1  14
ATOM     13  O   LIG    1        0.000  -0.006   0.051  0.00  0.00    -0.670 OA
ATOM     14  C   LIG    1       -0.016   1.218   0.035  0.00  0.00    +0.530 C 
ATOM     15  O   LIG    1        1.036   1.843   0.016  0.00  0.00    -0.670 OA
ENDBRANCH   1  14
BRANCH   6  16
ATOM     16  C   LIG    1       -0.103   4.131   0.245  0.00  0.00    +0.100 C 
ATOM     17  C   LIG    1       -0.163   5.460   0.453  0.00  0.00    +0.030 C 
BRANCH  17  18
ATOM     18  C   LIG    1        1.079   6.244   0.565  0.00  0.00    -0.090 A 
ATOM     19  C   LIG    1        1.031   7.628   0.782  0.00  0.00    +0.060 A 
ATOM     20  C   LIG    1        2.227   8.317   0.880  0.00  0.00    -0.050 A 
ATOM     21  C   LIG    1        3.419   7.626   0.762  0.00  0.00    +0.230 A 
ATOM     22  N   LIG    1        3.435   6.322   0.557  0.00  0.00    -0.480 NA
ATOM     23  C   LIG    1        2.326   5.620   0.463  0.00  0.00    +0.280 A 
ENDBRANCH  17  18
ENDBRANCH   6  16
TORSDOF 4
