REMARK  Name = ZINCtj00001UqOrR.0
REMARK                            x       y       z     vdW  Elec       q    Type
REMARK                         _______ _______ _______ _____ _____    ______ ____
ROOT
ATOM      1  C   LIG    1       -1.383   3.358  -0.181  0.00  0.00    +0.270 C 
ENDROOT
BRANCH   1   2
ATOM      2  N   LIG    1       -1.361   1.894  -0.231  0.00  0.00    -0.740 N 
ATOM      3  H   LIG    1       -2.194   1.398  -0.282  0.00  0.00    +0.400 HD
ATOM      4  C   LIG    1       -0.186   1.236  -0.205  0.00  0.00    +0.710 C 
ATOM      5  O   LIG    1        0.858   1.857  -0.145  0.00  0.00    -0.560 OA
ATOM      6  N   LIG    1       -0.166  -0.111  -0.251  0.00  0.00    -0.870 N 
ATOM      7  H   LIG    1       -0.998  -0.607  -0.298  0.00  0.00    +0.400 HD
ATOM      8  H   LIG    1        0.680  -0.585  -0.236  0.00  0.00    +0.420 HD
ENDBRANCH   1   2
BRANCH   1   9
ATOM      9  C   LIG    1       -0.630   3.912  -1.362  0.00  0.00    +0.490 C 
ATOM     10  N   LIG    1       -0.841   5.182  -1.761  0.00  0.00    -0.730 N 
ATOM     11  H   LIG    1       -1.477   5.739  -1.287  0.00  0.00    +0.400 HD
ATOM     12  O   LIG    1        0.167   3.215  -1.955  0.00  0.00    -0.490 OA
BRANCH  10  13
ATOM     13  C   LIG    1       -0.108   5.720  -2.910  0.00  0.00    +0.320 C 
BRANCH  13  14
ATOM     14  C   LIG    1       -0.524   7.149  -3.145  0.00  0.00    -0.110 A 
ATOM     15  C   LIG    1       -1.583   7.430  -3.989  0.00  0.00    +0.050 A 
ATOM     16  C   LIG    1       -1.970   8.739  -4.203  0.00  0.00    -0.010 A 
ATOM     17  C   LIG    1       -1.287   9.773  -3.579  0.00  0.00    +0.100 A 
ATOM     18  C   LIG    1       -0.221   9.489  -2.737  0.00  0.00    +0.020 A 
ATOM     19  C   LIG    1        0.157   8.178  -2.522  0.00  0.00    +0.050 A 
BRANCH  17  20
ATOM     20  O   LIG    1       -1.662  11.062  -3.792  0.00  0.00    -0.260 OA
BRANCH  20  21
ATOM     21  C   LIG    1       -2.868  11.463  -3.313  0.00  0.00    +0.120 A 
ATOM     22  C   LIG    1       -3.624  10.605  -2.526  0.00  0.00    -0.070 A 
ATOM     23  C   LIG    1       -4.848  11.017  -2.037  0.00  0.00    +0.050 A 
ATOM     24  C   LIG    1       -5.326  12.279  -2.338  0.00  0.00    -0.020 A 
ATOM     25  C   LIG    1       -4.577  13.134  -3.126  0.00  0.00    +0.050 A 
ATOM     26  C   LIG    1       -3.350  12.729  -3.614  0.00  0.00    -0.010 A 
ENDBRANCH  20  21
ENDBRANCH  17  20
ENDBRANCH  13  14
ENDBRANCH  10  13
ENDBRANCH   1   9
BRANCH   1  27
ATOM     27  C   LIG    1       -0.721   3.833   1.114  0.00  0.00    +0.060 C 
BRANCH  27  28
ATOM     28  C   LIG    1       -1.556   3.375   2.312  0.00  0.00    +0.030 C 
BRANCH  28  29
ATOM     29  C   LIG    1       -0.895   3.851   3.607  0.00  0.00    +0.270 C 
BRANCH  29  30
ATOM     30  N   LIG    1       -1.694   3.412   4.753  0.00  0.00    -0.690 NA
ATOM     31  H   LIG    1       -2.506   2.901   4.611  0.00  0.00    +0.440 HD
BRANCH  30  32
ATOM     32  C   LIG    1       -1.296   3.724   6.024  0.00  0.00    +0.740 C 
BRANCH  32  33
ATOM     33  N   LIG    1       -0.181   4.426   6.219  0.00  0.00    -0.790 NA
ATOM     34  H   LIG    1        0.102   4.646   7.121  0.00  0.00    +0.440 HD
ATOM     35  H   LIG    1        0.348   4.716   5.460  0.00  0.00    +0.440 HD
ENDBRANCH  32  33
BRANCH  32  36
ATOM     36  N   LIG    1       -2.023   3.325   7.067  0.00  0.00    -0.800 NA
ATOM     37  H   LIG    1       -1.740   3.546   7.968  0.00  0.00    +0.440 HD
ATOM     38  H   LIG    1       -2.835   2.814   6.925  0.00  0.00    +0.440 HD
ENDBRANCH  32  36
ENDBRANCH  30  32
ENDBRANCH  29  30
ENDBRANCH  28  29
ENDBRANCH  27  28
ENDBRANCH   1  27
TORSDOF 13
