REMARK  Name = ZINCtV00000tRTfE.0
REMARK                            x       y       z     vdW  Elec       q    Type
REMARK                         _______ _______ _______ _____ _____    ______ ____
ROOT
ATOM      1  C   LIG    1       -1.247  -2.029  -0.003  0.00  0.00    -0.130 A 
ATOM      2  C   LIG    1       -2.448  -2.679   0.011  0.00  0.00    +0.140 A 
ATOM      3  C   LIG    1       -3.635  -1.943   0.026  0.00  0.00    -0.180 A 
ATOM      4  C   LIG    1       -3.595  -0.539   0.034  0.00  0.00    +0.190 A 
ATOM      5  O   LIG    1       -4.745   0.170   0.048  0.00  0.00    -0.270 OA
ATOM      6  C   LIG    1       -5.947  -0.428   0.056  0.00  0.00    +0.510 A 
ATOM      7  C   LIG    1       -6.078  -1.827   0.049  0.00  0.00    -0.080 A 
ATOM      8  O   LIG    1       -6.951   0.261   0.069  0.00  0.00    -0.460 OA
ATOM      9  C   LIG    1       -2.367   0.107   0.025  0.00  0.00    -0.080 A 
ATOM     10  C   LIG    1       -4.944  -2.618   0.035  0.00  0.00    +0.090 A 
ATOM     11  C   LIG    1       -1.199  -0.637   0.010  0.00  0.00    +0.200 A 
ENDROOT
BRANCH  10  12
ATOM     12  C   LIG    1       -5.043  -4.094   0.028  0.00  0.00    -0.070 A 
ATOM     13  C   LIG    1       -4.565  -4.833   1.111  0.00  0.00    +0.030 A 
ATOM     14  C   LIG    1       -4.664  -6.209   1.100  0.00  0.00    +0.010 A 
ATOM     15  C   LIG    1       -5.226  -6.857   0.014  0.00  0.00    +0.020 A 
ATOM     16  C   LIG    1       -5.697  -6.130  -1.065  0.00  0.00    +0.010 A 
ATOM     17  C   LIG    1       -5.609  -4.753  -1.064  0.00  0.00    +0.040 A 
ENDBRANCH  10  12
BRANCH   1  18
ATOM     18  C   LIG    1        0.034  -2.823  -0.025  0.00  0.00    +0.080 C 
BRANCH  18  20
ATOM     19  C   LIG    1        1.851  -3.804   1.381  0.00  0.00    +0.020 C 
ATOM     20  C   LIG    1        0.551  -2.998   1.404  0.00  0.00    +0.000 C 
ENDBRANCH  18  20
ENDBRANCH   1  18
BRANCH  11  21
ATOM     21  O   LIG    1        0.002  -0.004   0.002  0.00  0.00    -0.290 OA
BRANCH  21  22
ATOM     22  C   LIG    1       -0.017   1.425   0.010  0.00  0.00    +0.250 C 
BRANCH  22  23
ATOM     23  C   LIG    1        1.397   1.946  -0.001  0.00  0.00    -0.100 A 
ATOM     24  C   LIG    1        2.054   2.184   1.192  0.00  0.00    +0.060 A 
ATOM     25  C   LIG    1        3.353   2.658   1.182  0.00  0.00    +0.030 A 
ATOM     26  C   LIG    1        3.990   2.905  -0.020  0.00  0.00    -0.020 A 
ATOM     27  C   LIG    1        3.330   2.671  -1.214  0.00  0.00    +0.030 A 
ATOM     28 CL   LIG    1        5.618   3.507  -0.033  0.00  0.00    -0.060 Cl
ATOM     29  C   LIG    1        2.033   2.192  -1.203  0.00  0.00    +0.060 A 
ENDBRANCH  22  23
ENDBRANCH  21  22
ENDBRANCH  11  21
TORSDOF 6
