REMARK  Name = ZINCvU0000000EnD.0
REMARK                            x       y       z     vdW  Elec       q    Type
REMARK                         _______ _______ _______ _____ _____    ______ ____
ROOT
ATOM      1  C   LIG    1       -1.706   0.923   1.893  0.00  0.00    +0.280 A 
ATOM      2  N   LIG    1       -2.100   1.625   2.915  0.00  0.00    -0.480 NA
ATOM      3  C   LIG    1       -1.378   2.772   2.987  0.00  0.00    +0.050 A 
ATOM      4  C   LIG    1       -1.383   3.861   3.863  0.00  0.00    +0.070 A 
ATOM      5  C   LIG    1       -0.510   4.894   3.669  0.00  0.00    +0.000 A 
ATOM      6  C   LIG    1        0.384   4.877   2.609  0.00  0.00    +0.030 A 
ATOM      7  C   LIG    1        0.407   3.813   1.732  0.00  0.00    +0.010 A 
ATOM      8  C   LIG    1       -0.468   2.751   1.916  0.00  0.00    +0.050 A 
ATOM      9  N   LIG    1       -0.704   1.571   1.239  0.00  0.00    -0.480 N 
ENDROOT
BRANCH   1  12
ATOM     10  N   LIG    1       -3.311  -2.279   2.584  0.00  0.00    -0.560 N 
ATOM     11  C   LIG    1       -2.100  -1.451   2.622  0.00  0.00    +0.300 C 
ATOM     12  C   LIG    1       -2.276  -0.413   1.491  0.00  0.00    +0.090 C 
ATOM     13  C   LIG    1       -3.816  -0.342   1.365  0.00  0.00    +0.100 C 
ATOM     14  C   LIG    1       -4.292  -1.679   1.890  0.00  0.00    +0.520 C 
ATOM     15  O   LIG    1       -5.399  -2.140   1.711  0.00  0.00    -0.500 OA
BRANCH  10  20
ATOM     16  C   LIG    1       -4.764  -5.431   3.810  0.00  0.00    +0.160 A 
ATOM     17  C   LIG    1       -3.654  -6.016   4.402  0.00  0.00    -0.100 A 
ATOM     18  C   LIG    1       -2.437  -5.362   4.391  0.00  0.00    +0.080 A 
ATOM     19  C   LIG    1       -2.321  -4.124   3.789  0.00  0.00    -0.070 A 
ATOM     20  C   LIG    1       -3.428  -3.533   3.194  0.00  0.00    +0.200 A 
ATOM     21  C   LIG    1       -4.653  -4.186   3.210  0.00  0.00    -0.030 A 
BRANCH  16  23
ATOM     22  C   LIG    1       -6.004  -7.351   4.464  0.00  0.00    +0.250 C 
ATOM     23  O   LIG    1       -5.961  -6.074   3.823  0.00  0.00    -0.310 OA
ENDBRANCH  16  23
ENDBRANCH  10  20
ENDBRANCH   1  12
BRANCH   9  24
ATOM     24  C   LIG    1       -0.002   1.101   0.042  0.00  0.00    +0.290 C 
BRANCH  24  25
ATOM     25  C   LIG    1       -0.731   1.603  -1.206  0.00  0.00    +0.010 C 
BRANCH  25  26
ATOM     26  C   LIG    1        0.002   1.112  -2.456  0.00  0.00    -0.010 C 
ATOM     27  C   LIG    1        1.392   1.749  -2.516  0.00  0.00    +0.000 C 
ATOM     28  C   LIG    1        2.125   1.258  -3.766  0.00  0.00    +0.000 C 
ATOM     29  C   LIG    1        1.330   1.653  -5.011  0.00  0.00    +0.000 C 
ATOM     30  C   LIG    1       -0.060   1.016  -4.952  0.00  0.00    +0.000 C 
ATOM     31  C   LIG    1       -0.793   1.507  -3.702  0.00  0.00    +0.010 C 
ENDBRANCH  25  26
ENDBRANCH  24  25
ENDBRANCH   9  24
TORSDOF 6
