REMARK  Name = ZINCqH0000004ZDj.0
REMARK                            x       y       z     vdW  Elec       q    Type
REMARK                         _______ _______ _______ _____ _____    ______ ____
ROOT
ATOM      1  C   LIG    1        0.115   1.230  -1.245  0.00  0.00    -0.120 A 
ATOM      2  C   LIG    1        0.699   2.309  -0.576  0.00  0.00    +0.070 A 
ATOM      3  C   LIG    1        0.756   3.544  -1.183  0.00  0.00    +0.010 A 
ATOM      4  C   LIG    1        0.236   3.725  -2.455  0.00  0.00    +0.060 A 
ATOM      5  C   LIG    1       -0.343   2.670  -3.130  0.00  0.00    -0.010 A 
ATOM      6  C   LIG    1       -0.405   1.414  -2.537  0.00  0.00    -0.040 A 
ENDROOT
BRANCH   1   9
ATOM      7  C   LIG    1        2.434   0.084  -0.123  0.00  0.00    +0.320 C 
ATOM      8  N   LIG    1        1.173  -0.661  -0.114  0.00  0.00    -0.520 N 
ATOM      9  C   LIG    1        0.052  -0.095  -0.603  0.00  0.00    +0.550 C 
ATOM     10  O   LIG    1       -1.013  -0.676  -0.512  0.00  0.00    -0.430 OA
BRANCH   8  11
ATOM     11  C   LIG    1        1.133  -1.953   0.397  0.00  0.00    +0.260 A 
ATOM     12  N   LIG    1        0.083  -2.721   0.462  0.00  0.00    -0.270 NA
ATOM     13  N   LIG    1        0.230  -3.871   0.959  0.00  0.00    -0.230 NA
ATOM     14  C   LIG    1        1.410  -4.209   1.368  0.00  0.00    +0.210 A 
ATOM     15  S   LIG    1        2.497  -2.851   1.067  0.00  0.00    +0.060 S 
ENDBRANCH   8  11
ENDBRANCH   1   9
BRANCH   6  16
ATOM     16  S   LIG    1       -1.138   0.063  -3.398  0.00  0.00    -0.040 S 
BRANCH  16  17
ATOM     17  C   LIG    1       -1.637   0.807  -4.976  0.00  0.00    +0.180 C 
BRANCH  17  18
ATOM     18  C   LIG    1       -2.292  -0.239  -5.840  0.00  0.00    +0.070 A 
ATOM     19  C   LIG    1       -1.658  -1.039  -6.726  0.00  0.00    +0.120 A 
ATOM     20  N   LIG    1       -2.607  -1.842  -7.297  0.00  0.00    -0.360 N 
ATOM     21  C   LIG    1       -2.539  -2.825  -8.241  0.00  0.00    +0.220 A 
ATOM     22  C   LIG    1       -3.653  -3.472  -8.641  0.00  0.00    +0.010 A 
ATOM     23  C   LIG    1       -4.902  -3.142  -8.089  0.00  0.00    +0.050 A 
ATOM     24  C   LIG    1       -4.984  -2.164  -7.146  0.00  0.00    +0.070 A 
ATOM     25  C   LIG    1       -3.812  -1.497  -6.739  0.00  0.00    +0.230 A 
ATOM     26  N   LIG    1       -3.595  -0.527  -5.862  0.00  0.00    -0.480 NA
ENDBRANCH  17  18
ENDBRANCH  16  17
ENDBRANCH   6  16
TORSDOF 5
