REMARK  Name = ZINCzw0000000hCU.1
REMARK                            x       y       z     vdW  Elec       q    Type
REMARK                         _______ _______ _______ _____ _____    ______ ____
ROOT
ATOM      1  C   LIG    1        7.198   3.039   5.160  0.00  0.00    +0.500 C 
ATOM      2  N   LIG    1        6.936   1.774   4.777  0.00  0.00    -0.580 N 
ATOM      3  C   LIG    1        7.965   0.966   4.108  0.00  0.00    +0.310 C 
ATOM      4  C   LIG    1        7.391   0.426   2.794  0.00  0.00    +0.070 C 
ATOM      5  C   LIG    1        6.090  -0.326   3.082  0.00  0.00    +0.130 C 
ATOM      6  C   LIG    1        5.069   0.634   3.696  0.00  0.00    +0.010 C 
ATOM      7  C   LIG    1        5.616   1.176   5.020  0.00  0.00    +0.300 C 
ATOM      8  O   LIG    1        8.292   3.521   4.954  0.00  0.00    -0.530 OA
ENDROOT
BRANCH   5   9
ATOM      9  O   LIG    1        6.349  -1.394   3.995  0.00  0.00    -0.550 OA
ATOM     10  H   LIG    1        5.567  -1.915   4.223  0.00  0.00    +0.390 HD
ENDBRANCH   5   9
BRANCH   1  11
ATOM     11  C   LIG    1        6.133   3.855   5.845  0.00  0.00    +0.290 C 
BRANCH  11  13
ATOM     12  C   LIG    1        7.748   5.066   7.141  0.00  0.00    +0.320 C 
ATOM     13  N   LIG    1        6.663   5.189   6.159  0.00  0.00    -0.370 N 
ATOM     14  H   LIG    1        7.018   5.616   5.316  0.00  0.00    +0.430 HD
BRANCH  13  15
ATOM     15  C   LIG    1        5.590   6.023   6.717  0.00  0.00    +0.270 C 
BRANCH  15  16
ATOM     16  C   LIG    1        5.917   7.499   6.480  0.00  0.00    -0.080 C 
ATOM     17  C   LIG    1        7.304   7.812   7.045  0.00  0.00    +0.050 C 
ATOM     18  C   LIG    1        4.873   8.371   7.180  0.00  0.00    +0.070 C 
ATOM     19  C   LIG    1        5.901   7.790   4.978  0.00  0.00    +0.050 C 
ENDBRANCH  15  16
ENDBRANCH  13  15
ENDBRANCH  11  13
ENDBRANCH   1  11
BRANCH   5  20
ATOM     20  C   LIG    1        5.532  -0.896   1.776  0.00  0.00    +0.310 C 
BRANCH  20  21
ATOM     21  N   LIG    1        4.228  -1.514   2.031  0.00  0.00    -0.290 N 
ATOM     22  C   LIG    1        3.074  -1.223   1.387  0.00  0.00    +0.170 A 
ATOM     23  C   LIG    1        2.126  -2.018   1.935  0.00  0.00    -0.020 A 
ATOM     24  N   LIG    1        2.740  -2.752   2.869  0.00  0.00    -0.240 NA
ATOM     25  N   LIG    1        3.984  -2.430   2.901  0.00  0.00    -0.100 NA
BRANCH  23  26
ATOM     26  C   LIG    1        0.666  -2.069   1.562  0.00  0.00    +0.350 C 
ATOM     27  C   LIG    1        0.275  -3.511   1.175  0.00  0.00    +0.060 C 
ATOM     28  C   LIG    1       -0.703  -3.298  -0.011  0.00  0.00    +0.040 C 
ATOM     29  C   LIG    1       -0.085  -2.064  -0.709  0.00  0.00    +0.260 C 
ATOM     30  N   LIG    1        0.420  -1.219   0.389  0.00  0.00    -0.600 N 
ATOM     31  C   LIG    1        0.617   0.113   0.328  0.00  0.00    +0.670 C 
ATOM     32  O   LIG    1        1.033   0.710   1.301  0.00  0.00    -0.570 OA
BRANCH  31  33
ATOM     33  O   LIG    1        0.352   0.781  -0.810  0.00  0.00    -0.360 OA
BRANCH  33  34
ATOM     34  C   LIG    1        0.588   2.214  -0.803  0.00  0.00    +0.140 C 
ATOM     35  C   LIG    1       -0.283   2.869   0.270  0.00  0.00    +0.040 C 
ATOM     36  C   LIG    1        0.234   2.796  -2.173  0.00  0.00    +0.080 C 
ATOM     37  C   LIG    1        2.063   2.487  -0.499  0.00  0.00    +0.030 C 
ENDBRANCH  33  34
ENDBRANCH  31  33
ENDBRANCH  23  26
ENDBRANCH  20  21
ENDBRANCH   5  20
TORSDOF 10
