REMARK  Name = ZINCzw0000000hCU.0
REMARK                            x       y       z     vdW  Elec       q    Type
REMARK                         _______ _______ _______ _____ _____    ______ ____
ROOT
ATOM      1  C   LIG    1        7.499   3.106   5.008  0.00  0.00    +0.500 C 
ATOM      2  N   LIG    1        7.901   1.819   5.015  0.00  0.00    -0.580 N 
ATOM      3  C   LIG    1        9.117   1.411   4.298  0.00  0.00    +0.310 C 
ATOM      4  C   LIG    1        8.767   0.257   3.353  0.00  0.00    +0.070 C 
ATOM      5  C   LIG    1        8.100  -0.866   4.150  0.00  0.00    +0.130 C 
ATOM      6  C   LIG    1        6.804  -0.347   4.779  0.00  0.00    +0.010 C 
ATOM      7  C   LIG    1        7.131   0.799   5.740  0.00  0.00    +0.300 C 
ATOM      8  O   LIG    1        8.143   3.939   4.406  0.00  0.00    -0.530 OA
ENDROOT
BRANCH   5   9
ATOM      9  O   LIG    1        8.985  -1.309   5.181  0.00  0.00    -0.550 OA
ATOM     10  H   LIG    1        8.627  -2.022   5.727  0.00  0.00    +0.390 HD
ENDBRANCH   5   9
BRANCH   1  11
ATOM     11  C   LIG    1        6.250   3.510   5.748  0.00  0.00    +0.280 C 
BRANCH  11  13
ATOM     12  C   LIG    1        5.760   5.253   4.174  0.00  0.00    +0.310 C 
ATOM     13  N   LIG    1        6.030   4.953   5.587  0.00  0.00    -0.370 N 
ATOM     14  H   LIG    1        6.854   5.454   5.885  0.00  0.00    +0.430 HD
BRANCH  13  15
ATOM     15  C   LIG    1        4.882   5.368   6.404  0.00  0.00    +0.260 C 
BRANCH  15  16
ATOM     16  C   LIG    1        4.801   6.896   6.432  0.00  0.00    -0.080 C 
ATOM     17  C   LIG    1        6.153   7.470   6.862  0.00  0.00    +0.040 C 
ATOM     18  C   LIG    1        3.723   7.331   7.426  0.00  0.00    +0.070 C 
ATOM     19  C   LIG    1        4.448   7.413   5.036  0.00  0.00    +0.050 C 
ENDBRANCH  15  16
ENDBRANCH  13  15
ENDBRANCH  11  13
ENDBRANCH   1  11
BRANCH   5  20
ATOM     20  C   LIG    1        7.781  -2.035   3.215  0.00  0.00    +0.310 C 
BRANCH  20  21
ATOM     21  N   LIG    1        7.036  -3.060   3.951  0.00  0.00    -0.290 N 
ATOM     22  C   LIG    1        5.838  -3.577   3.596  0.00  0.00    +0.170 A 
ATOM     23  C   LIG    1        5.520  -4.482   4.551  0.00  0.00    -0.020 A 
ATOM     24  N   LIG    1        6.531  -4.481   5.427  0.00  0.00    -0.240 NA
ATOM     25  N   LIG    1        7.413  -3.627   5.043  0.00  0.00    -0.100 NA
BRANCH  23  26
ATOM     26  C   LIG    1        4.275  -5.330   4.612  0.00  0.00    +0.350 C 
ATOM     27  C   LIG    1        4.660  -6.822   4.691  0.00  0.00    +0.060 C 
ATOM     28  C   LIG    1        3.588  -7.505   3.800  0.00  0.00    +0.040 C 
ATOM     29  C   LIG    1        3.380  -6.444   2.694  0.00  0.00    +0.260 C 
ATOM     30  N   LIG    1        3.485  -5.147   3.385  0.00  0.00    -0.600 N 
ATOM     31  C   LIG    1        2.943  -3.986   2.966  0.00  0.00    +0.670 C 
ATOM     32  O   LIG    1        3.091  -2.974   3.622  0.00  0.00    -0.570 OA
BRANCH  31  33
ATOM     33  O   LIG    1        2.238  -3.948   1.820  0.00  0.00    -0.360 OA
BRANCH  33  34
ATOM     34  C   LIG    1        1.683  -2.665   1.429  0.00  0.00    +0.140 C 
ATOM     35  C   LIG    1        0.727  -2.171   2.517  0.00  0.00    +0.040 C 
ATOM     36  C   LIG    1        0.921  -2.818   0.111  0.00  0.00    +0.080 C 
ATOM     37  C   LIG    1        2.816  -1.653   1.249  0.00  0.00    +0.030 C 
ENDBRANCH  33  34
ENDBRANCH  31  33
ENDBRANCH  23  26
ENDBRANCH  20  21
ENDBRANCH   5  20
TORSDOF 10
