REMARK  Name = ZINCtV000002MusM.0
REMARK                            x       y       z     vdW  Elec       q    Type
REMARK                         _______ _______ _______ _____ _____    ______ ____
ROOT
ATOM      1  O   LIG    1        1.130   2.868   0.007  0.00  0.00    -0.490 OA
ATOM      2  C   LIG    1        1.147   1.655   0.000  0.00  0.00    +0.510 C 
ATOM      3  N   LIG    1       -0.011   0.966   0.007  0.00  0.00    -0.620 N 
ATOM      4  H   LIG    1        0.002  -0.004   0.002  0.00  0.00    +0.430 HD
ENDROOT
BRANCH   3   5
ATOM      5  C   LIG    1       -1.224   1.644   0.017  0.00  0.00    +0.270 A 
ATOM      6  N   LIG    1       -2.394   1.087   0.019  0.00  0.00    -0.500 NA
ATOM      7  C   LIG    1       -3.446   1.894   0.029  0.00  0.00    +0.130 A 
ATOM      8  C   LIG    1       -3.163   3.209   0.035  0.00  0.00    -0.110 A 
ATOM      9  S   LIG    1       -1.410   3.395   0.035  0.00  0.00    +0.210 S 
BRANCH   7  10
ATOM     10  C   LIG    1       -4.837   1.383   0.034  0.00  0.00    -0.020 A 
ATOM     11  C   LIG    1       -5.067   0.019   0.027  0.00  0.00    +0.070 A 
ATOM     12  C   LIG    1       -6.386  -0.459   0.031  0.00  0.00    -0.050 A 
ATOM     13  C   LIG    1       -6.660  -1.838   0.024  0.00  0.00    +0.030 A 
ATOM     14  C   LIG    1       -7.952  -2.268   0.027  0.00  0.00    +0.000 A 
ATOM     15  C   LIG    1       -9.009  -1.361   0.038  0.00  0.00    +0.010 A 
ATOM     16  C   LIG    1       -8.782  -0.019   0.046  0.00  0.00    +0.020 A 
ATOM     17  C   LIG    1       -7.463   0.464   0.042  0.00  0.00    -0.050 A 
ATOM     18  C   LIG    1       -7.195   1.845   0.049  0.00  0.00    +0.030 A 
ATOM     19  C   LIG    1       -5.912   2.288   0.050  0.00  0.00    +0.030 A 
ENDBRANCH   7  10
ENDBRANCH   3   5
BRANCH   2  20
ATOM     20  C   LIG    1        2.462   0.920  -0.017  0.00  0.00    +0.150 C 
BRANCH  20  21
ATOM     21  C   LIG    1        3.594   1.915  -0.022  0.00  0.00    -0.080 A 
ATOM     22  C   LIG    1        4.105   2.373  -1.221  0.00  0.00    +0.060 A 
ATOM     23  C   LIG    1        5.141   3.289  -1.226  0.00  0.00    +0.020 A 
ATOM     24  C   LIG    1        5.671   3.739  -0.032  0.00  0.00    +0.080 A 
ATOM     25  C   LIG    1        5.163   3.277   1.168  0.00  0.00    -0.180 A 
ATOM     26  C   LIG    1        4.125   2.365   1.173  0.00  0.00    +0.090 A 
BRANCH  25  27
ATOM     27  C   LIG    1        5.741   3.768   2.470  0.00  0.00    +0.510 C 
ATOM     28  F   LIG    1        4.747   3.759   3.454  0.00  0.00    -0.180 F 
ATOM     29  F   LIG    1        6.222   5.071   2.305  0.00  0.00    -0.180 F 
ATOM     30  F   LIG    1        6.790   2.929   2.860  0.00  0.00    -0.180 F 
ENDBRANCH  25  27
ENDBRANCH  20  21
ENDBRANCH   2  20
TORSDOF 5
