REMARK  Name = ZINCrD000006fiQJ.0
REMARK                            x       y       z     vdW  Elec       q    Type
REMARK                         _______ _______ _______ _____ _____    ______ ____
ROOT
ATOM      1  C   LIG    1       -3.615   1.407  -0.694  0.00  0.00    +0.560 C 
ATOM      2  N   LIG    1       -2.560   0.927  -0.006  0.00  0.00    -0.670 N 
ATOM      3  H   LIG    1       -2.633   0.084   0.468  0.00  0.00    +0.410 HD
ATOM      4  O   LIG    1       -3.552   2.502  -1.219  0.00  0.00    -0.510 OA
ENDROOT
BRANCH   2   5
ATOM      5  C   LIG    1       -1.359   1.645   0.024  0.00  0.00    +0.120 A 
ATOM      6  C   LIG    1       -0.146   0.970   0.041  0.00  0.00    +0.010 A 
ATOM      7  C   LIG    1        1.036   1.682   0.067  0.00  0.00    +0.040 A 
ATOM      8  C   LIG    1        1.013   3.072   0.081  0.00  0.00    +0.140 A 
ATOM      9  C   LIG    1       -0.197   3.749   0.067  0.00  0.00    -0.100 A 
ATOM     10  C   LIG    1       -0.257   5.253   0.076  0.00  0.00    +0.080 C 
ATOM     11  C   LIG    1        1.053   5.838   0.605  0.00  0.00    +0.020 C 
ATOM     12  C   LIG    1        2.222   5.216  -0.169  0.00  0.00    +0.280 C 
ATOM     13  N   LIG    1        2.228   3.773   0.111  0.00  0.00    -0.550 N 
ATOM     14  C   LIG    1        3.381   3.135   0.393  0.00  0.00    +0.510 C 
ATOM     15  O   LIG    1        3.362   1.970   0.730  0.00  0.00    -0.520 OA
ATOM     16  C   LIG    1        4.694   3.868   0.288  0.00  0.00    +0.110 C 
ATOM     17  C   LIG    1       -1.381   3.033   0.043  0.00  0.00    +0.040 A 
ENDBRANCH   2   5
BRANCH   1  22
ATOM     18  C   LIG    1       -7.097   0.335  -1.627  0.00  0.00    +0.140 A 
ATOM     19  C   LIG    1       -7.162  -0.916  -1.025  0.00  0.00    +0.010 A 
ATOM     20  C   LIG    1       -6.078  -1.406  -0.320  0.00  0.00    +0.040 A 
ATOM     21  C   LIG    1       -4.923  -0.659  -0.214  0.00  0.00    +0.030 A 
ATOM     22  C   LIG    1       -4.850   0.602  -0.811  0.00  0.00    -0.120 A 
ATOM     23  C   LIG    1       -5.943   1.096  -1.522  0.00  0.00    +0.090 A 
BRANCH  18  25
ATOM     24  C   LIG    1       -8.004   1.589  -3.433  0.00  0.00    +0.540 C 
ATOM     25  N   LIG    1       -8.196   0.826  -2.339  0.00  0.00    -0.670 N 
ATOM     26  H   LIG    1       -9.097   0.618  -2.045  0.00  0.00    +0.410 HD
ATOM     27  O   LIG    1       -6.879   1.769  -3.859  0.00  0.00    -0.520 OA
BRANCH  24  29
ATOM     28  C   LIG    1       -8.965   2.956  -5.193  0.00  0.00    +0.160 C 
ATOM     29  C   LIG    1       -9.155   2.203  -4.113  0.00  0.00    -0.090 C 
ENDBRANCH  24  29
ENDBRANCH  18  25
ENDBRANCH   1  22
TORSDOF 4
