REMARK  Name = ZINCvU0000000EnQ.1
REMARK                            x       y       z     vdW  Elec       q    Type
REMARK                         _______ _______ _______ _____ _____    ______ ____
ROOT
ATOM      1  C   LIG    1        4.666  -0.709  -1.225  0.00  0.00    +0.330 A 
ATOM      2  C   LIG    1        5.767  -1.552  -1.315  0.00  0.00    -0.050 A 
ATOM      3  C   LIG    1        6.223  -1.932  -2.565  0.00  0.00    +0.120 A 
ATOM      4  C   LIG    1        5.559  -1.454  -3.686  0.00  0.00    -0.180 A 
ATOM      5  C   LIG    1        4.471  -0.619  -3.522  0.00  0.00    +0.300 A 
ATOM      6  N   LIG    1        4.056  -0.278  -2.317  0.00  0.00    -0.530 NA
ENDROOT
BRANCH   1   7
ATOM      7  O   LIG    1        4.210  -0.328  -0.005  0.00  0.00    -0.220 OA
BRANCH   7  13
ATOM      8  C   LIG    1        1.846  -0.034   0.092  0.00  0.00    +0.170 A 
ATOM      9  C   LIG    1        0.748   0.811   0.141  0.00  0.00    -0.100 A 
ATOM     10  C   LIG    1        0.928   2.182   0.140  0.00  0.00    +0.100 A 
ATOM     11  C   LIG    1        2.203   2.715   0.090  0.00  0.00    -0.100 A 
ATOM     12  C   LIG    1        3.306   1.877   0.042  0.00  0.00    +0.170 A 
ATOM     13  C   LIG    1        3.129   0.498   0.043  0.00  0.00    +0.030 A 
BRANCH   8  15
ATOM     14  C   LIG    1        0.322  -1.859   0.147  0.00  0.00    +0.250 C 
ATOM     15  O   LIG    1        1.668  -1.382   0.094  0.00  0.00    -0.300 OA
ENDBRANCH   8  15
BRANCH  12  16
ATOM     16  O   LIG    1        4.559   2.403  -0.006  0.00  0.00    -0.300 OA
ATOM     17  C   LIG    1        4.665   3.828  -0.003  0.00  0.00    +0.250 C 
ENDBRANCH  12  16
ENDBRANCH   7  13
ENDBRANCH   1   7
BRANCH   4  18
ATOM     18  C   LIG    1        6.019  -1.842  -5.067  0.00  0.00    +0.240 C 
BRANCH  18  19
ATOM     19  N   LIG    1        5.329  -3.068  -5.488  0.00  0.00    -0.680 NA
ATOM     20  H   LIG    1        4.330  -2.973  -5.389  0.00  0.00    +0.350 HD
BRANCH  19  21
ATOM     21  C   LIG    1        5.690  -3.429  -6.865  0.00  0.00    +0.280 C 
BRANCH  21  22
ATOM     22  C   LIG    1        5.534  -4.917  -7.052  0.00  0.00    +0.020 A 
ATOM     23  C   LIG    1        6.364  -5.713  -7.750  0.00  0.00    -0.070 A 
ATOM     24  C   LIG    1        5.844  -7.025  -7.660  0.00  0.00    -0.070 A 
ATOM     25  C   LIG    1        4.723  -6.950  -6.920  0.00  0.00    -0.020 A 
ATOM     26  C   LIG    1        3.824  -8.106  -6.563  0.00  0.00    +0.160 C 
ATOM     27  O   LIG    1        4.540  -5.671  -6.555  0.00  0.00    -0.160 OA
ENDBRANCH  21  22
BRANCH  21  28
ATOM     28  C   LIG    1        4.770  -2.694  -7.842  0.00  0.00    -0.040 C 
ATOM     29  C   LIG    1        3.306  -3.124  -7.616  0.00  0.00    +0.010 C 
ATOM     30  C   LIG    1        2.699  -3.165  -9.041  0.00  0.00    +0.010 C 
ATOM     31  C   LIG    1        3.862  -3.729  -9.893  0.00  0.00    +0.000 C 
ATOM     32  C   LIG    1        5.124  -3.078  -9.290  0.00  0.00    +0.010 C 
ENDBRANCH  21  28
ENDBRANCH  19  21
ENDBRANCH  18  19
ENDBRANCH   4  18
TORSDOF 9
