REMARK  Name = ZINCpk00001AZiJW.0
REMARK                            x       y       z     vdW  Elec       q    Type
REMARK                         _______ _______ _______ _____ _____    ______ ____
ROOT
ATOM      1  N   LIG    1       -4.384   3.797   2.354  0.00  0.00    -0.470 NA
ATOM      2  C   LIG    1       -3.168   3.507   1.552  0.00  0.00    +0.180 C 
ATOM      3  C   LIG    1       -2.912   1.999   1.764  0.00  0.00    +0.140 C 
ATOM      4  C   LIG    1       -4.284   1.410   2.152  0.00  0.00    +0.090 C 
ATOM      5  C   LIG    1       -5.253   2.612   2.141  0.00  0.00    +0.130 C 
ENDROOT
BRANCH   5   6
ATOM      6  C   LIG    1       -6.259   2.489   3.257  0.00  0.00    +0.530 C 
ATOM      7  N   LIG    1       -7.364   1.736   3.089  0.00  0.00    -0.610 N 
ATOM      8  O   LIG    1       -6.073   3.069   4.306  0.00  0.00    -0.500 OA
BRANCH   7   9
ATOM      9  C   LIG    1       -7.587   1.036   1.822  0.00  0.00    +0.260 C 
ATOM     10  C   LIG    1       -7.086  -0.405   1.939  0.00  0.00    +0.010 C 
ENDBRANCH   7   9
BRANCH   7  11
ATOM     11  C   LIG    1       -8.341   1.617   4.174  0.00  0.00    +0.410 C 
BRANCH  11  12
ATOM     12  C   LIG    1       -9.443   2.624   3.970  0.00  0.00    -0.050 A 
ATOM     13  C   LIG    1       -9.512   3.842   4.537  0.00  0.00    -0.150 A 
ATOM     14  C   LIG    1      -10.702   4.444   4.070  0.00  0.00    -0.070 A 
ATOM     15  C   LIG    1      -11.294   3.556   3.251  0.00  0.00    +0.170 A 
ATOM     16  C   LIG    1       -8.510   4.448   5.485  0.00  0.00    +0.120 C 
ATOM     17  O   LIG    1      -10.527   2.455   3.195  0.00  0.00    -0.170 OA
ENDBRANCH  11  12
ENDBRANCH   7  11
ENDBRANCH   5   6
BRANCH   3  18
ATOM     18  O   LIG    1       -1.968   1.800   2.819  0.00  0.00    -0.540 OA
ATOM     19  H   LIG    1       -1.093   2.171   2.639  0.00  0.00    +0.390 HD
ENDBRANCH   3  18
BRANCH   1  20
ATOM     20  C   LIG    1       -5.042   5.024   1.887  0.00  0.00    +0.320 C 
BRANCH  20  23
ATOM     21  C   LIG    1       -2.711   8.281   2.843  0.00  0.00    +0.200 C 
ATOM     22  C   LIG    1       -3.544   7.117   2.502  0.00  0.00    -0.170 C 
ATOM     23  C   LIG    1       -4.209   6.189   2.229  0.00  0.00    -0.180 C 
ENDBRANCH  20  23
ENDBRANCH   1  20
BRANCH   3  24
ATOM     24  C   LIG    1       -2.405   1.359   0.471  0.00  0.00    +0.160 C 
BRANCH  24  25
ATOM     25  O   LIG    1       -1.167   1.964   0.092  0.00  0.00    -0.390 OA
ATOM     26  C   LIG    1       -0.605   1.435  -1.110  0.00  0.00    +0.200 C 
ENDBRANCH  24  25
ENDBRANCH   3  24
TORSDOF 9
