REMARK  Name = ZINCpe00000MJHXi.0
REMARK                            x       y       z     vdW  Elec       q    Type
REMARK                         _______ _______ _______ _____ _____    ______ ____
ROOT
ATOM      1  C   LIG    1        0.452  -1.153  -0.878  0.00  0.00    +0.230 C 
ATOM      2  C   LIG    1       -0.497  -1.547  -2.017  0.00  0.00    +0.320 C 
ATOM      3  N   LIG    1        0.050  -1.068  -3.285  0.00  0.00    -0.470 N 
ATOM      4  C   LIG    1       -0.256  -1.465  -4.536  0.00  0.00    +0.190 A 
ATOM      5  N   LIG    1        0.474  -0.754  -5.356  0.00  0.00    -0.290 NA
ATOM      6  N   LIG    1        1.217   0.058  -4.684  0.00  0.00    -0.270 NA
ATOM      7  C   LIG    1       -1.253  -2.529  -4.919  0.00  0.00    +0.200 C 
ATOM      8  C   LIG    1        0.994  -0.102  -3.416  0.00  0.00    +0.150 A 
ATOM      9  C   LIG    1        1.632   0.612  -2.249  0.00  0.00    +0.440 C 
ATOM     10  N   LIG    1        0.855   0.252  -1.047  0.00  0.00    -0.610 N 
ATOM     11  C   LIG    1        0.523   1.183  -0.130  0.00  0.00    +0.570 C 
ATOM     12  O   LIG    1       -0.036   0.852   0.897  0.00  0.00    -0.470 OA
ENDROOT
BRANCH  11  13
ATOM     13  C   LIG    1        0.840   2.606  -0.374  0.00  0.00    -0.190 A 
ATOM     14  C   LIG    1        2.163   3.060  -0.322  0.00  0.00    +0.100 A 
ATOM     15  C   LIG    1        2.406   4.402  -0.558  0.00  0.00    -0.020 A 
ATOM     16  C   LIG    1        1.344   5.243  -0.836  0.00  0.00    +0.160 A 
ATOM     17  N   LIG    1        0.107   4.787  -0.878  0.00  0.00    -0.480 NA
ATOM     18  C   LIG    1       -0.175   3.519  -0.666  0.00  0.00    +0.310 A 
BRANCH  16  19
ATOM     19  C   LIG    1        1.605   6.705  -1.094  0.00  0.00    +0.040 C 
ATOM     20  C   LIG    1        2.937   6.864  -1.830  0.00  0.00    +0.040 C 
ATOM     21  C   LIG    1        1.667   7.455   0.239  0.00  0.00    +0.050 C 
ENDBRANCH  16  19
ENDBRANCH  11  13
BRANCH   1  25
ATOM     22  C   LIG    1       -0.329  -2.140   2.737  0.00  0.00    +0.290 C 
ATOM     23  N   LIG    1        0.355  -1.978   1.451  0.00  0.00    -0.730 N 
ATOM     24  H   LIG    1        1.244  -2.345   1.325  0.00  0.00    +0.400 HD
ATOM     25  C   LIG    1       -0.251  -1.319   0.444  0.00  0.00    +0.540 C 
ATOM     26  O   LIG    1       -1.363  -0.861   0.601  0.00  0.00    -0.510 OA
ENDBRANCH   1  25
TORSDOF 3
