REMARK  Name = ZINCkj000005hi5j.0
REMARK                            x       y       z     vdW  Elec       q    Type
REMARK                         _______ _______ _______ _____ _____    ______ ____
ROOT
ATOM      1  C   LIG    1       -3.299   5.385  -2.597  0.00  0.00    +0.330 C 
ATOM      2  N   LIG    1       -4.032   4.441  -1.743  0.00  0.00    -0.370 N 
ATOM      3  H   LIG    1       -3.484   4.235  -0.922  0.00  0.00    +0.420 HD
ENDROOT
BRANCH   2   4
ATOM      4  C   LIG    1       -5.312   5.039  -1.340  0.00  0.00    +0.010 C 
ATOM      5  C   LIG    1       -6.052   4.115  -0.347  0.00  0.00    +0.050 C 
ATOM      6  C   LIG    1       -6.174   4.965   0.937  0.00  0.00    +0.230 C 
ATOM      7  O   LIG    1       -6.096   6.334   0.482  0.00  0.00    -0.330 OA
ATOM      8  C   LIG    1       -5.075   6.340  -0.542  0.00  0.00    +0.250 C 
BRANCH   4   9
ATOM      9  C   LIG    1       -6.184   5.314  -2.567  0.00  0.00    +0.220 C 
BRANCH   9  10
ATOM     10  O   LIG    1       -7.422   5.894  -2.151  0.00  0.00    -0.540 OA
ATOM     11  H   LIG    1       -8.026   6.095  -2.879  0.00  0.00    +0.400 HD
ENDBRANCH   9  10
ENDBRANCH   4   9
ENDBRANCH   2   4
BRANCH   2  12
ATOM     12  C   LIG    1       -4.284   3.201  -2.489  0.00  0.00    +0.310 C 
BRANCH  12  13
ATOM     13  C   LIG    1       -2.973   2.525  -2.796  0.00  0.00    -0.160 A 
ATOM     14  C   LIG    1       -2.407   2.659  -4.048  0.00  0.00    +0.040 A 
ATOM     15  C   LIG    1       -1.204   2.039  -4.330  0.00  0.00    +0.030 A 
ATOM     16  C   LIG    1       -0.574   1.285  -3.360  0.00  0.00    +0.060 A 
ATOM     17  C   LIG    1       -1.142   1.148  -2.102  0.00  0.00    -0.110 A 
ATOM     18  C   LIG    1       -0.426   0.315  -1.071  0.00  0.00    +0.290 C 
ATOM     19  O   LIG    1       -0.948   0.587   0.229  0.00  0.00    -0.370 OA
ATOM     20  C   LIG    1       -2.371   0.480   0.302  0.00  0.00    +0.240 C 
ATOM     21  C   LIG    1       -2.983   1.655  -0.462  0.00  0.00    +0.040 C 
ATOM     22  C   LIG    1       -2.340   1.770  -1.821  0.00  0.00    -0.060 A 
ENDBRANCH  12  13
ENDBRANCH   2  12
TORSDOF 5
