REMARK  Name = ZINCkj000005hi5j.1
REMARK                            x       y       z     vdW  Elec       q    Type
REMARK                         _______ _______ _______ _____ _____    ______ ____
ROOT
ATOM      1  C   LIG    1       -1.204   3.643   2.633  0.00  0.00    +0.320 C 
ATOM      2  N   LIG    1       -2.082   3.096   3.676  0.00  0.00    -0.370 N 
ATOM      3  H   LIG    1       -3.035   3.369   3.490  0.00  0.00    +0.430 HD
ENDROOT
BRANCH   2   4
ATOM      4  C   LIG    1       -1.669   3.617   4.986  0.00  0.00    +0.010 C 
ATOM      5  C   LIG    1       -1.787   5.157   5.018  0.00  0.00    +0.060 C 
ATOM      6  C   LIG    1       -2.818   5.432   6.135  0.00  0.00    +0.240 C 
ATOM      7  O   LIG    1       -3.597   4.219   6.224  0.00  0.00    -0.360 OA
ATOM      8  C   LIG    1       -2.643   3.143   6.088  0.00  0.00    +0.270 C 
BRANCH   4   9
ATOM      9  C   LIG    1       -0.240   3.179   5.310  0.00  0.00    +0.220 C 
BRANCH   9  10
ATOM     10  O   LIG    1        0.140   3.696   6.587  0.00  0.00    -0.550 OA
ATOM     11  H   LIG    1        1.037   3.457   6.857  0.00  0.00    +0.410 HD
ENDBRANCH   9  10
ENDBRANCH   4   9
ENDBRANCH   2   4
BRANCH   2  12
ATOM     12  C   LIG    1       -1.984   1.630   3.679  0.00  0.00    +0.310 C 
BRANCH  12  13
ATOM     13  C   LIG    1       -2.532   1.087   2.384  0.00  0.00    -0.160 A 
ATOM     14  C   LIG    1       -1.668   0.720   1.372  0.00  0.00    +0.040 A 
ATOM     15  C   LIG    1       -2.171   0.222   0.184  0.00  0.00    +0.030 A 
ATOM     16  C   LIG    1       -3.536   0.095   0.014  0.00  0.00    +0.060 A 
ATOM     17  C   LIG    1       -4.404   0.465   1.029  0.00  0.00    -0.110 A 
ATOM     18  C   LIG    1       -5.887   0.316   0.804  0.00  0.00    +0.290 C 
ATOM     19  O   LIG    1       -6.586   0.390   2.046  0.00  0.00    -0.360 OA
ATOM     20  C   LIG    1       -6.239   1.544   2.819  0.00  0.00    +0.230 C 
ATOM     21  C   LIG    1       -4.815   1.369   3.349  0.00  0.00    +0.050 C 
ATOM     22  C   LIG    1       -3.902   0.959   2.215  0.00  0.00    -0.050 A 
ENDBRANCH  12  13
ENDBRANCH   2  12
TORSDOF 5
