REMARK  Name = ZINCAx0000000eQU.0
REMARK                            x       y       z     vdW  Elec       q    Type
REMARK                         _______ _______ _______ _____ _____    ______ ____
ROOT
ATOM      1  C   LIG    1        1.088   3.127   0.781  0.00  0.00    -0.670 A 
ATOM      2  C   LIG    1        1.106   1.748   0.654  0.00  0.00    +0.150 A 
ATOM      3  C   LIG    1       -0.047   1.058   0.341  0.00  0.00    +0.050 A 
ATOM      4  C   LIG    1       -1.242   1.750   0.146  0.00  0.00    +0.000 A 
ATOM      5  C   LIG    1       -2.607   1.289  -0.184  0.00  0.00    +0.010 A 
ATOM      6  C   LIG    1       -3.131   0.018  -0.415  0.00  0.00    +0.050 A 
ATOM      7  C   LIG    1       -4.470  -0.132  -0.715  0.00  0.00    +0.160 A 
ATOM      8  C   LIG    1       -5.302   0.972  -0.788  0.00  0.00    -0.670 A 
ATOM      9  C   LIG    1       -4.803   2.239  -0.562  0.00  0.00    +0.150 A 
ATOM     10  C   LIG    1       -3.454   2.409  -0.259  0.00  0.00    -0.120 A 
ATOM     11  C   LIG    1       -2.642   3.611   0.029  0.00  0.00    +0.170 C 
ATOM     12  N   LIG    1       -3.066   4.848   0.056  0.00  0.00    -0.190 NA
ATOM     13  C   LIG    1       -1.259   3.149   0.281  0.00  0.00    -0.060 A 
ATOM     14  C   LIG    1       -0.086   3.830   0.596  0.00  0.00    +0.180 A 
ENDROOT
BRANCH  12  15
ATOM     15  N   LIG    1       -4.437   5.120  -0.035  0.00  0.00    -0.580 N 
ATOM     16  H   LIG    1       -5.077   4.392  -0.033  0.00  0.00    +0.410 HD
ATOM     17  C   LIG    1       -4.866   6.395  -0.127  0.00  0.00    +0.730 C 
ATOM     18  O   LIG    1       -6.056   6.631  -0.206  0.00  0.00    -0.570 OA
ATOM     19  N   LIG    1       -3.976   7.407  -0.131  0.00  0.00    -0.850 N 
ATOM     20  H   LIG    1       -4.284   8.324  -0.196  0.00  0.00    +0.420 HD
ATOM     21  H   LIG    1       -3.026   7.218  -0.068  0.00  0.00    +0.410 HD
ENDBRANCH  12  15
BRANCH   1  22
ATOM     22  S   LIG    1        2.571   3.990   1.181  0.00  0.00    +2.700 S 
ATOM     23  O   LIG    1        3.417   3.053   1.833  0.00  0.00    -0.950 OA
ATOM     24  O   LIG    1        2.174   5.220   1.772  0.00  0.00    -0.950 OA
BRANCH  22  25
ATOM     25  N   LIG    1        3.314   4.376  -0.248  0.00  0.00    -1.110 NA
ATOM     26  H   LIG    1        4.174   3.986  -0.468  0.00  0.00    +0.420 HD
BRANCH  25  27
ATOM     27  C   LIG    1        2.673   5.308  -1.179  0.00  0.00    +0.270 C 
BRANCH  27  28
ATOM     28  C   LIG    1        3.696   5.782  -2.213  0.00  0.00    +0.020 C 
BRANCH  28  30
ATOM     29  C   LIG    1        2.599   8.016  -2.431  0.00  0.00    +0.020 C 
ATOM     30  C   LIG    1        3.026   6.755  -3.185  0.00  0.00    -0.030 C 
ATOM     31  C   LIG    1        4.013   7.132  -4.291  0.00  0.00    +0.020 C 
ENDBRANCH  28  30
ENDBRANCH  27  28
ENDBRANCH  25  27
ENDBRANCH  22  25
ENDBRANCH   1  22
BRANCH   8  32
ATOM     32  S   LIG    1       -7.009   0.758  -1.172  0.00  0.00    +2.690 S 
ATOM     33  O   LIG    1       -7.683   1.895  -0.649  0.00  0.00    -0.950 OA
ATOM     34  O   LIG    1       -7.338  -0.575  -0.809  0.00  0.00    -0.940 OA
BRANCH  32  35
ATOM     35  N   LIG    1       -7.156   0.845  -2.819  0.00  0.00    -1.110 NA
ATOM     36  H   LIG    1       -7.654   1.572  -3.224  0.00  0.00    +0.420 HD
BRANCH  35  37
ATOM     37  C   LIG    1       -6.533  -0.177  -3.664  0.00  0.00    +0.270 C 
BRANCH  37  38
ATOM     38  C   LIG    1       -7.113  -0.092  -5.078  0.00  0.00    +0.030 C 
BRANCH  38  39
ATOM     39  C   LIG    1       -6.463  -1.159  -5.961  0.00  0.00    -0.030 C 
ATOM     40  C   LIG    1       -6.949  -0.994  -7.402  0.00  0.00    +0.020 C 
ATOM     41  C   LIG    1       -6.847  -2.548  -5.449  0.00  0.00    +0.020 C 
ENDBRANCH  38  39
ENDBRANCH  37  38
ENDBRANCH  35  37
ENDBRANCH  32  35
ENDBRANCH   8  32
TORSDOF 11
