REMARK  Name = ZINCpk00000y6tPg.0
REMARK                            x       y       z     vdW  Elec       q    Type
REMARK                         _______ _______ _______ _____ _____    ______ ____
ROOT
ATOM      1  C   LIG    1       -1.279   3.981   3.893  0.00  0.00    +0.110 C 
ATOM      2  C   LIG    1       -2.710   4.202   4.429  0.00  0.00    +0.280 C 
ATOM      3  N   LIG    1       -2.749   3.446   5.706  0.00  0.00    -0.630 N 
ATOM      4  C   LIG    1       -1.424   3.696   6.320  0.00  0.00    +0.290 C 
ATOM      5  C   LIG    1       -3.760   2.702   6.196  0.00  0.00    +0.530 C 
ATOM      6  O   LIG    1       -3.638   2.141   7.265  0.00  0.00    -0.510 OA
ATOM      7  C   LIG    1       -0.431   3.649   5.138  0.00  0.00    +0.030 C 
ENDROOT
BRANCH   1  12
ATOM      8  C   LIG    1       -0.718   1.572   1.248  0.00  0.00    +0.230 A 
ATOM      9  N   LIG    1       -1.676   0.940   1.874  0.00  0.00    -0.290 NA
ATOM     10  N   LIG    1       -2.042   1.740   2.968  0.00  0.00    -0.480 N 
ATOM     11  H   LIG    1       -2.727   1.546   3.627  0.00  0.00    +0.440 HD
ATOM     12  C   LIG    1       -1.256   2.829   2.921  0.00  0.00    +0.290 A 
ATOM     13  N   LIG    1       -0.463   2.713   1.887  0.00  0.00    -0.520 NA
BRANCH   8  14
ATOM     14  C   LIG    1       -0.013   1.086   0.008  0.00  0.00    +0.320 C 
BRANCH  14  16
ATOM     15  C   LIG    1       -0.114   1.152  -2.386  0.00  0.00    +0.220 C 
ATOM     16  O   LIG    1       -0.704   1.559  -1.150  0.00  0.00    -0.380 OA
ENDBRANCH  14  16
ENDBRANCH   8  14
ENDBRANCH   1  12
BRANCH   7  17
ATOM     17  C   LIG    1        0.670   4.694   5.326  0.00  0.00    -0.040 C 
ATOM     18  C   LIG    1        2.115   4.246   5.098  0.00  0.00    +0.020 C 
ATOM     19  C   LIG    1        1.613   4.520   6.518  0.00  0.00    +0.010 C 
ENDBRANCH   7  17
BRANCH   5  20
ATOM     20  C   LIG    1       -5.043   2.567   5.417  0.00  0.00    +0.170 C 
BRANCH  20  21
ATOM     21  C   LIG    1       -6.003   1.690   6.178  0.00  0.00    +0.020 A 
ATOM     22  N   LIG    1       -5.781   0.482   6.610  0.00  0.00    -0.340 NA
ATOM     23  O   LIG    1       -6.743   0.032   7.188  0.00  0.00    +0.110 OA
ATOM     24  C   LIG    1       -7.756   0.909   7.215  0.00  0.00    -0.030 A 
ATOM     25  C   LIG    1       -9.111   0.705   7.843  0.00  0.00    +0.180 C 
ATOM     26  C   LIG    1       -7.321   2.018   6.570  0.00  0.00    -0.060 A 
ENDBRANCH  20  21
ENDBRANCH   5  20
TORSDOF 6
