REMARK  Name = ZINCpk00000y6tPg.1
REMARK                            x       y       z     vdW  Elec       q    Type
REMARK                         _______ _______ _______ _____ _____    ______ ____
ROOT
ATOM      1  C   LIG    1        1.620   3.187   0.003  0.00  0.00    +0.120 C 
ATOM      2  C   LIG    1        2.950   3.363   0.760  0.00  0.00    +0.260 C 
ATOM      3  N   LIG    1        3.935   3.878  -0.210  0.00  0.00    -0.630 N 
ATOM      4  C   LIG    1        3.151   4.577  -1.254  0.00  0.00    +0.280 C 
ATOM      5  C   LIG    1        5.275   3.740  -0.156  0.00  0.00    +0.540 C 
ATOM      6  O   LIG    1        5.969   4.218  -1.028  0.00  0.00    -0.510 OA
ATOM      7  C   LIG    1        1.910   3.666  -1.438  0.00  0.00    +0.020 C 
ENDROOT
BRANCH   1  11
ATOM      8  C   LIG    1        1.237  -0.427  -0.012  0.00  0.00    +0.180 A 
ATOM      9  N   LIG    1        0.002  -0.004   0.002  0.00  0.00    -0.280 NA
ATOM     10  N   LIG    1       -0.015   1.282   0.009  0.00  0.00    -0.270 NA
ATOM     11  C   LIG    1        1.208   1.738  -0.000  0.00  0.00    +0.190 A 
ATOM     12  N   LIG    1        2.037   0.667  -0.014  0.00  0.00    -0.560 N 
ATOM     13  H   LIG    1        3.007   0.680  -0.023  0.00  0.00    +0.430 HD
BRANCH   8  14
ATOM     14  C   LIG    1        1.689  -1.864  -0.025  0.00  0.00    +0.330 C 
BRANCH  14  16
ATOM     15  C   LIG    1        3.652  -3.240  -0.051  0.00  0.00    +0.220 C 
ATOM     16  O   LIG    1        3.117  -1.915  -0.039  0.00  0.00    -0.400 OA
ENDBRANCH  14  16
ENDBRANCH   8  14
ENDBRANCH   1  11
BRANCH   7  17
ATOM     17  C   LIG    1        0.727   4.464  -1.992  0.00  0.00    -0.040 C 
ATOM     18  C   LIG    1       -0.082   3.833  -3.126  0.00  0.00    +0.020 C 
ATOM     19  C   LIG    1        0.849   5.013  -3.415  0.00  0.00    +0.010 C 
ENDBRANCH   7  17
BRANCH   5  20
ATOM     20  C   LIG    1        5.910   2.992   0.988  0.00  0.00    +0.170 C 
BRANCH  20  21
ATOM     21  C   LIG    1        7.407   2.982   0.812  0.00  0.00    +0.020 A 
ATOM     22  N   LIG    1        8.068   2.559  -0.227  0.00  0.00    -0.340 NA
ATOM     23  O   LIG    1        9.261   2.683  -0.076  0.00  0.00    +0.110 OA
ATOM     24  C   LIG    1        9.555   3.210   1.120  0.00  0.00    -0.030 A 
ATOM     25  C   LIG    1       10.929   3.504   1.664  0.00  0.00    +0.190 C 
ATOM     26  C   LIG    1        8.372   3.426   1.745  0.00  0.00    -0.060 A 
ENDBRANCH  20  21
ENDBRANCH   5  20
TORSDOF 6
