REMARK  Name = ZINCpk00000y6tPg.2
REMARK                            x       y       z     vdW  Elec       q    Type
REMARK                         _______ _______ _______ _____ _____    ______ ____
ROOT
ATOM      1  C   LIG    1       -0.739   5.726   1.261  0.00  0.00    +0.120 C 
ATOM      2  C   LIG    1       -0.377   4.383   0.591  0.00  0.00    +0.270 C 
ATOM      3  N   LIG    1       -0.863   3.311   1.472  0.00  0.00    -0.620 N 
ATOM      4  C   LIG    1       -1.533   3.921   2.635  0.00  0.00    +0.280 C 
ATOM      5  C   LIG    1       -0.724   1.989   1.250  0.00  0.00    +0.530 C 
ATOM      6  O   LIG    1       -1.166   1.190   2.049  0.00  0.00    -0.520 OA
ATOM      7  C   LIG    1       -0.906   5.335   2.753  0.00  0.00    +0.030 C 
ENDROOT
BRANCH   1  10
ATOM      8  C   LIG    1        1.426   8.526   0.525  0.00  0.00    +0.290 A 
ATOM      9  N   LIG    1        0.271   7.911   0.497  0.00  0.00    -0.530 NA
ATOM     10  C   LIG    1        0.378   6.724   1.092  0.00  0.00    +0.240 A 
ATOM     11  N   LIG    1        1.608   6.563   1.502  0.00  0.00    -0.300 NA
ATOM     12  N   LIG    1        2.311   7.725   1.143  0.00  0.00    -0.460 N 
ATOM     13  H   LIG    1        3.248   7.912   1.308  0.00  0.00    +0.450 HD
BRANCH   8  14
ATOM     14  C   LIG    1        1.714   9.892  -0.043  0.00  0.00    +0.320 C 
BRANCH  14  16
ATOM     15  C   LIG    1        3.469  11.500  -0.328  0.00  0.00    +0.230 C 
ATOM     16  O   LIG    1        3.089  10.217   0.175  0.00  0.00    -0.400 OA
ENDBRANCH  14  16
ENDBRANCH   8  14
ENDBRANCH   1  10
BRANCH   7  17
ATOM     17  C   LIG    1       -1.858   6.296   3.468  0.00  0.00    -0.040 C 
ATOM     18  C   LIG    1       -1.259   7.230   4.523  0.00  0.00    +0.010 C 
ATOM     19  C   LIG    1       -2.130   6.047   4.953  0.00  0.00    +0.030 C 
ENDBRANCH   7  17
BRANCH   5  20
ATOM     20  C   LIG    1       -0.018   1.503   0.010  0.00  0.00    +0.170 C 
BRANCH  20  21
ATOM     21  C   LIG    1        0.002  -0.004   0.002  0.00  0.00    +0.020 A 
ATOM     22  N   LIG    1        0.467  -0.783   0.936  0.00  0.00    -0.340 NA
ATOM     23  O   LIG    1        0.341  -1.950   0.646  0.00  0.00    +0.110 OA
ATOM     24  C   LIG    1       -0.231  -2.100  -0.557  0.00  0.00    -0.030 A 
ATOM     25  C   LIG    1       -0.542  -3.400  -1.252  0.00  0.00    +0.180 C 
ATOM     26  C   LIG    1       -0.475  -0.852  -1.024  0.00  0.00    -0.060 A 
ENDBRANCH  20  21
ENDBRANCH   5  20
TORSDOF 6
