REMARK  Name = ZINCnE000001SBQK.0
REMARK                            x       y       z     vdW  Elec       q    Type
REMARK                         _______ _______ _______ _____ _____    ______ ____
ROOT
ATOM      1  C   LIG    1       -0.014   1.211   0.009  0.00  0.00    +0.570 C 
ATOM      2  N   LIG    1        1.143   1.901   0.001  0.00  0.00    -0.730 N 
ATOM      3  H   LIG    1        1.130   2.870   0.007  0.00  0.00    +0.400 HD
ATOM      4  O   LIG    1        0.002  -0.004   0.002  0.00  0.00    -0.510 OA
ENDROOT
BRANCH   1   7
ATOM      5  CA  LIG    1       -3.711   1.959   0.031  0.00  0.00    +0.080 A 
ATOM      6  C   LIG    1       -2.519   1.237   0.021  0.00  0.00    +0.070 A 
ATOM      7  C   LIG    1       -1.307   1.934   0.019  0.00  0.00    -0.110 A 
ATOM      8  C   LIG    1       -1.348   3.331   0.032  0.00  0.00    -0.030 A 
ATOM      9  C   LIG    1       -2.577   3.972   0.037  0.00  0.00    +0.240 A 
ATOM     10  N   LIG    1       -3.698   3.287   0.038  0.00  0.00    -0.430 NA
BRANCH   5  12
ATOM     11  O   LIG    1       -5.022   0.017   0.025  0.00  0.00    -0.680 OA
ATOM     12  C   LIG    1       -5.003   1.239   0.033  0.00  0.00    +0.530 C 
ATOM     13  OXT LIG    1       -6.052   1.866   0.041  0.00  0.00    -0.660 OA
ENDBRANCH   5  12
ENDBRANCH   1   7
BRANCH   2  14
ATOM     14  C   LIG    1        2.422   1.185  -0.015  0.00  0.00    +0.420 C 
BRANCH  14  15
ATOM     15  C   LIG    1        2.813   0.825   1.395  0.00  0.00    -0.190 A 
ATOM     16  C   LIG    1        3.363  -0.332   1.768  0.00  0.00    +0.020 A 
ATOM     17  C   LIG    1        3.640  -0.436   3.120  0.00  0.00    +0.010 A 
ATOM     18  C   LIG    1        3.308   0.632   3.847  0.00  0.00    -0.050 A 
ATOM     19  S   LIG    1        2.608   1.861   2.801  0.00  0.00    +0.110 S 
ENDBRANCH  14  15
BRANCH  14  20
ATOM     20  C   LIG    1        3.483   2.067  -0.621  0.00  0.00    -0.190 A 
ATOM     21  C   LIG    1        4.442   1.656  -1.452  0.00  0.00    +0.030 A 
ATOM     22  C   LIG    1        5.305   2.649  -1.883  0.00  0.00    +0.010 A 
ATOM     23  C   LIG    1        5.052   3.865  -1.396  0.00  0.00    -0.040 A 
ATOM     24  S   LIG    1        3.651   3.795  -0.334  0.00  0.00    +0.110 S 
ENDBRANCH  14  20
ENDBRANCH   2  14
TORSDOF 5
