REMARK  Name = ZINCrH000004q6I0.0
REMARK                            x       y       z     vdW  Elec       q    Type
REMARK                         _______ _______ _______ _____ _____    ______ ____
ROOT
ATOM      1  C   LIG    1        1.112   3.456  -0.792  0.00  0.00    +0.110 C 
ATOM      2  C   LIG    1        0.925   2.047  -0.292  0.00  0.00    -0.110 A 
ATOM      3  C   LIG    1       -0.035   1.613   0.541  0.00  0.00    +0.040 A 
ATOM      4  N   LIG    1        0.128   0.271   0.759  0.00  0.00    -0.430 N 
ATOM      5  C   LIG    1        1.203  -0.188   0.068  0.00  0.00    +0.300 A 
ATOM      6  C   LIG    1       -1.125   2.467   1.136  0.00  0.00    +0.150 C 
ATOM      7  C   LIG    1        1.756   0.882  -0.621  0.00  0.00    -0.090 A 
ENDROOT
BRANCH   5   8
ATOM      8  N   LIG    1        1.666  -1.496   0.052  0.00  0.00    -0.660 N 
ATOM      9  H   LIG    1        1.135  -2.193  -0.364  0.00  0.00    +0.420 HD
ATOM     10  C   LIG    1        2.853  -1.797   0.615  0.00  0.00    +0.540 C 
ATOM     11  O   LIG    1        3.558  -0.913   1.053  0.00  0.00    -0.480 OA
BRANCH  10  12
ATOM     12  C   LIG    1        3.304  -3.232   0.700  0.00  0.00    +0.110 C 
BRANCH  12  13
ATOM     13  S   LIG    1        4.925  -3.309   1.501  0.00  0.00    +0.120 S 
BRANCH  13  14
ATOM     14  C   LIG    1        5.201  -5.049   1.468  0.00  0.00    -0.030 A 
ATOM     15  N   LIG    1        4.393  -5.947   0.977  0.00  0.00    -0.270 NA
ATOM     16  N   LIG    1        4.754  -7.153   1.039  0.00  0.00    -0.250 NA
ATOM     17  C   LIG    1        5.897  -7.418   1.583  0.00  0.00    +0.230 A 
ATOM     18  S   LIG    1        6.623  -5.891   2.087  0.00  0.00    +0.130 S 
ENDBRANCH  13  14
ENDBRANCH  12  13
ENDBRANCH  10  12
ENDBRANCH   5   8
BRANCH   7  19
ATOM     19  C   LIG    1        2.903   0.856  -1.478  0.00  0.00    +0.290 C 
ATOM     20  N   LIG    1        3.813   0.835  -2.157  0.00  0.00    -0.430 NA
ENDBRANCH   7  19
BRANCH   4  21
ATOM     21  C   LIG    1       -0.732  -0.550   1.615  0.00  0.00    +0.350 C 
BRANCH  21  22
ATOM     22  C   LIG    1       -0.139  -0.625   2.999  0.00  0.00    -0.130 A 
ATOM     23  C   LIG    1        0.733  -1.647   3.322  0.00  0.00    +0.050 A 
ATOM     24  C   LIG    1        1.282  -1.714   4.589  0.00  0.00    -0.010 A 
ATOM     25  C   LIG    1        0.948  -0.762   5.538  0.00  0.00    +0.110 A 
ATOM     26  C   LIG    1        0.069   0.258   5.215  0.00  0.00    -0.010 A 
ATOM     27  F   LIG    1        1.478  -0.830   6.779  0.00  0.00    -0.130 F 
ATOM     28  C   LIG    1       -0.473   0.326   3.945  0.00  0.00    +0.070 A 
ENDBRANCH  21  22
ENDBRANCH   4  21
TORSDOF 7
