REMARK  Name = ZINCnE00000rhmWa.0
REMARK                            x       y       z     vdW  Elec       q    Type
REMARK                         _______ _______ _______ _____ _____    ______ ____
ROOT
ATOM      1  N   LIG    1       -7.659   1.117   0.950  0.00  0.00    -0.690 NA
ATOM      2  C   LIG    1       -6.462   0.873   0.484  0.00  0.00    +0.440 A 
ATOM      3  N   LIG    1       -6.094  -0.180  -0.311  0.00  0.00    -0.540 NA
ATOM      4  N   LIG    1       -4.722  -0.027  -0.563  0.00  0.00    -0.300 NA
ATOM      5  C   LIG    1       -4.318   1.035   0.049  0.00  0.00    +0.080 A 
ATOM      6  O   LIG    1       -5.352   1.611   0.695  0.00  0.00    -0.300 OA
ENDROOT
BRANCH   5   7
ATOM      7  C   LIG    1       -2.904   1.556   0.038  0.00  0.00    +0.110 C 
ATOM      8  C   LIG    1       -2.188   1.063  -1.221  0.00  0.00    +0.030 C 
ATOM      9  C   LIG    1       -0.753   1.593  -1.232  0.00  0.00    +0.000 C 
ATOM     10  C   LIG    1       -0.013   1.086   0.008  0.00  0.00    +0.000 C 
ATOM     11  C   LIG    1       -0.729   1.579   1.267  0.00  0.00    +0.000 C 
ATOM     12  C   LIG    1       -2.164   1.050   1.278  0.00  0.00    +0.020 C 
ENDBRANCH   5   7
BRANCH   1  13
ATOM     13  C   LIG    1       -8.767   0.214   0.629  0.00  0.00    +0.220 C 
BRANCH  13  21
ATOM     14  C   LIG    1      -10.436  -1.434   1.647  0.00  0.00    +0.260 C 
ATOM     15  C   LIG    1      -11.593  -0.976   2.558  0.00  0.00    -0.020 C 
ATOM     16  C   LIG    1      -11.301   0.522   2.821  0.00  0.00    +0.010 C 
ATOM     17  C   LIG    1       -9.764   0.558   2.951  0.00  0.00    +0.040 C 
ATOM     18  O   LIG    1      -10.003  -2.742   2.055  0.00  0.00    -0.390 OA
ATOM     19  C   LIG    1       -9.004  -2.555   3.080  0.00  0.00    +0.210 C 
ATOM     20  C   LIG    1       -8.175  -1.353   2.561  0.00  0.00    +0.020 C 
ATOM     21  C   LIG    1       -9.261  -0.462   1.910  0.00  0.00    -0.060 C 
BRANCH  14  23
ATOM     22  C   LIG    1      -11.909  -2.285  -0.041  0.00  0.00    +0.200 C 
ATOM     23  O   LIG    1      -10.826  -1.408   0.273  0.00  0.00    -0.350 OA
ENDBRANCH  14  23
ENDBRANCH  13  21
ENDBRANCH   1  13
TORSDOF 4
