REMARK  Name = ZINCpk00000KfLl5.0
REMARK                            x       y       z     vdW  Elec       q    Type
REMARK                         _______ _______ _______ _____ _____    ______ ____
ROOT
ATOM      1  C   LIG    1        0.046   1.172  -0.049  0.00  0.00    +0.290 C 
ATOM      2  C   LIG    1       -0.724   1.626  -1.292  0.00  0.00    +0.190 C 
ATOM      3  N   LIG    1       -2.127   1.197  -1.175  0.00  0.00    -0.510 NA
ATOM      4  C   LIG    1       -2.745   1.758   0.035  0.00  0.00    +0.160 C 
ATOM      5  C   LIG    1       -1.953   1.303   1.264  0.00  0.00    +0.250 C 
ATOM      6  O   LIG    1       -0.587   1.702   1.119  0.00  0.00    -0.390 OA
ENDROOT
BRANCH   1  10
ATOM      7  C   LIG    1        3.349   2.642   0.327  0.00  0.00    +0.180 A 
ATOM      8  N   LIG    1        3.426   2.047  -0.833  0.00  0.00    -0.280 NA
ATOM      9  N   LIG    1        2.308   1.469  -1.098  0.00  0.00    -0.280 NA
ATOM     10  C   LIG    1        1.464   1.676  -0.124  0.00  0.00    +0.180 A 
ATOM     11  N   LIG    1        2.102   2.424   0.809  0.00  0.00    -0.560 N 
ATOM     12  H   LIG    1        1.739   2.738   1.652  0.00  0.00    +0.430 HD
BRANCH   7  13
ATOM     13  C   LIG    1        4.443   3.427   1.003  0.00  0.00    +0.150 C 
BRANCH  13  15
ATOM     14  C   LIG    1        6.807   3.352   1.810  0.00  0.00    +0.020 C 
ATOM     15  C   LIG    1        5.695   2.556   1.123  0.00  0.00    +0.020 C 
ENDBRANCH  13  15
ENDBRANCH   7  13
ENDBRANCH   1  10
BRANCH   3  16
ATOM     16  C   LIG    1       -2.890   1.563  -2.375  0.00  0.00    +0.190 C 
BRANCH  16  17
ATOM     17  C   LIG    1       -2.124   1.148  -3.605  0.00  0.00    -0.110 A 
ATOM     18  C   LIG    1       -1.577  -0.119  -3.682  0.00  0.00    +0.080 A 
ATOM     19  C   LIG    1       -0.879  -0.503  -4.811  0.00  0.00    -0.010 A 
ATOM     20  C   LIG    1       -0.717   0.386  -5.860  0.00  0.00    +0.110 A 
ATOM     21  C   LIG    1       -1.261   1.657  -5.779  0.00  0.00    -0.010 A 
ATOM     22  F   LIG    1       -0.030   0.013  -6.963  0.00  0.00    -0.140 F 
ATOM     23  C   LIG    1       -1.963   2.037  -4.652  0.00  0.00    +0.050 A 
ENDBRANCH  16  17
BRANCH  16  24
ATOM     24  C   LIG    1       -4.225   0.864  -2.355  0.00  0.00    +0.530 C 
ATOM     25  O   LIG    1       -4.511   0.132  -1.431  0.00  0.00    -0.520 OA
ATOM     26  N   LIG    1       -5.100   1.052  -3.363  0.00  0.00    -0.850 N 
ATOM     27  H   LIG    1       -5.959   0.601  -3.349  0.00  0.00    +0.410 HD
ATOM     28  H   LIG    1       -4.870   1.637  -4.101  0.00  0.00    +0.400 HD
ENDBRANCH  16  24
ENDBRANCH   3  16
TORSDOF 6
