REMARK  Name = ZINCpk00000KfLl5.2
REMARK                            x       y       z     vdW  Elec       q    Type
REMARK                         _______ _______ _______ _____ _____    ______ ____
ROOT
ATOM      1  C   LIG    1        3.467   3.954   2.171  0.00  0.00    +0.290 C 
ATOM      2  C   LIG    1        3.131   3.204   0.879  0.00  0.00    +0.200 C 
ATOM      3  N   LIG    1        2.765   1.818   1.203  0.00  0.00    -0.510 NA
ATOM      4  C   LIG    1        1.616   1.783   2.119  0.00  0.00    +0.160 C 
ATOM      5  C   LIG    1        1.966   2.547   3.399  0.00  0.00    +0.250 C 
ATOM      6  O   LIG    1        2.349   3.883   3.061  0.00  0.00    -0.390 OA
ENDROOT
BRANCH   1  11
ATOM      7  C   LIG    1        4.658   7.157   0.974  0.00  0.00    +0.230 A 
ATOM      8  N   LIG    1        3.755   7.596   1.811  0.00  0.00    -0.310 NA
ATOM      9  N   LIG    1        3.161   6.466   2.396  0.00  0.00    -0.460 N 
ATOM     10  H   LIG    1        2.453   6.460   3.060  0.00  0.00    +0.450 HD
ATOM     11  C   LIG    1        3.767   5.396   1.853  0.00  0.00    +0.290 A 
ATOM     12  N   LIG    1        4.666   5.825   1.006  0.00  0.00    -0.530 NA
BRANCH   7  13
ATOM     13  C   LIG    1        5.548   8.018   0.115  0.00  0.00    +0.150 C 
BRANCH  13  15
ATOM     14  C   LIG    1        7.742   9.210   0.004  0.00  0.00    +0.030 C 
ATOM     15  C   LIG    1        6.837   8.335   0.876  0.00  0.00    +0.010 C 
ENDBRANCH  13  15
ENDBRANCH   7  13
ENDBRANCH   1  11
BRANCH   3  16
ATOM     16  C   LIG    1        2.490   1.046  -0.016  0.00  0.00    +0.190 C 
BRANCH  16  17
ATOM     17  C   LIG    1        3.679   1.125  -0.939  0.00  0.00    -0.110 A 
ATOM     18  C   LIG    1        3.491   1.351  -2.290  0.00  0.00    +0.050 A 
ATOM     19  C   LIG    1        4.580   1.417  -3.138  0.00  0.00    -0.010 A 
ATOM     20  C   LIG    1        5.860   1.268  -2.633  0.00  0.00    +0.110 A 
ATOM     21  C   LIG    1        6.047   1.042  -1.280  0.00  0.00    -0.010 A 
ATOM     22  F   LIG    1        6.926   1.338  -3.460  0.00  0.00    -0.140 F 
ATOM     23  C   LIG    1        4.956   0.971  -0.434  0.00  0.00    +0.100 A 
ENDBRANCH  16  17
BRANCH  16  24
ATOM     24  C   LIG    1        2.230  -0.393   0.348  0.00  0.00    +0.530 C 
ATOM     25  O   LIG    1        2.731  -0.866   1.346  0.00  0.00    -0.510 OA
ATOM     26  N   LIG    1        1.442  -1.154  -0.436  0.00  0.00    -0.850 N 
ATOM     27  H   LIG    1        1.275  -2.081  -0.202  0.00  0.00    +0.410 HD
ATOM     28  H   LIG    1        1.042  -0.776  -1.235  0.00  0.00    +0.400 HD
ENDBRANCH  16  24
ENDBRANCH   3  16
TORSDOF 6
