REMARK  Name = ZINCpk00000KfLl5.1
REMARK                            x       y       z     vdW  Elec       q    Type
REMARK                         _______ _______ _______ _____ _____    ______ ____
ROOT
ATOM      1  C   LIG    1        4.184   3.345  -2.208  0.00  0.00    +0.290 C 
ATOM      2  C   LIG    1        3.373   3.320  -0.909  0.00  0.00    +0.180 C 
ATOM      3  N   LIG    1        1.955   3.552  -1.218  0.00  0.00    -0.510 NA
ATOM      4  C   LIG    1        1.450   2.530  -2.146  0.00  0.00    +0.160 C 
ATOM      5  C   LIG    1        2.279   2.563  -3.432  0.00  0.00    +0.250 C 
ATOM      6  O   LIG    1        3.659   2.367  -3.110  0.00  0.00    -0.370 OA
ENDROOT
BRANCH   1   9
ATOM      7  C   LIG    1        7.747   3.309  -1.596  0.00  0.00    +0.290 A 
ATOM      8  N   LIG    1        6.625   3.913  -1.895  0.00  0.00    -0.530 NA
ATOM      9  C   LIG    1        5.627   3.030  -1.908  0.00  0.00    +0.230 A 
ATOM     10  N   LIG    1        6.103   1.847  -1.624  0.00  0.00    -0.280 NA
ATOM     11  N   LIG    1        7.483   2.003  -1.416  0.00  0.00    -0.480 N 
ATOM     12  H   LIG    1        8.119   1.308  -1.188  0.00  0.00    +0.440 HD
BRANCH   7  13
ATOM     13  C   LIG    1        9.099   3.963  -1.479  0.00  0.00    +0.150 C 
BRANCH  13  15
ATOM     14  C   LIG    1       11.219   4.497  -2.690  0.00  0.00    +0.030 C 
ATOM     15  C   LIG    1        9.845   3.833  -2.808  0.00  0.00    +0.010 C 
ENDBRANCH  13  15
ENDBRANCH   7  13
ENDBRANCH   1   9
BRANCH   3  16
ATOM     16  C   LIG    1        1.149   3.593   0.010  0.00  0.00    +0.180 C 
BRANCH  16  17
ATOM     17  C   LIG    1        1.710   4.633   0.945  0.00  0.00    -0.100 A 
ATOM     18  C   LIG    1        1.852   4.347   2.290  0.00  0.00    +0.050 A 
ATOM     19  C   LIG    1        2.367   5.300   3.149  0.00  0.00    -0.020 A 
ATOM     20  C   LIG    1        2.740   6.541   2.661  0.00  0.00    +0.110 A 
ATOM     21  C   LIG    1        2.597   6.826   1.314  0.00  0.00    -0.010 A 
ATOM     22  F   LIG    1        3.243   7.473   3.500  0.00  0.00    -0.140 F 
ATOM     23  C   LIG    1        2.082   5.871   0.457  0.00  0.00    +0.100 A 
ENDBRANCH  16  17
BRANCH  16  24
ATOM     24  C   LIG    1       -0.275   3.944  -0.336  0.00  0.00    +0.530 C 
ATOM     25  O   LIG    1       -0.514   4.609  -1.321  0.00  0.00    -0.510 OA
ATOM     26  N   LIG    1       -1.284   3.518   0.450  0.00  0.00    -0.850 N 
ATOM     27  H   LIG    1       -2.201   3.744   0.228  0.00  0.00    +0.410 HD
ATOM     28  H   LIG    1       -1.093   2.986   1.239  0.00  0.00    +0.400 HD
ENDBRANCH  16  24
ENDBRANCH   3  16
TORSDOF 6
