REMARK  Name = ZINCpk00000y6yai.0
REMARK                            x       y       z     vdW  Elec       q    Type
REMARK                         _______ _______ _______ _____ _____    ______ ____
ROOT
ATOM      1  N   LIG    1       -0.288   1.282   6.279  0.00  0.00    -0.720 N 
ATOM      2  H   LIG    1       -1.087   1.831   6.315  0.00  0.00    +0.400 HD
ATOM      3  C   LIG    1        0.303   0.877   7.421  0.00  0.00    +0.510 C 
ATOM      4  O   LIG    1        1.302   0.191   7.376  0.00  0.00    -0.510 OA
ENDROOT
BRANCH   3   5
ATOM      5  C   LIG    1       -0.277   1.278   8.752  0.00  0.00    +0.240 C 
ATOM      6  C   LIG    1       -1.706   0.744   8.867  0.00  0.00    +0.080 C 
BRANCH   5   7
ATOM      7  N   LIG    1        0.542   0.717   9.830  0.00  0.00    -0.570 N 
ATOM      8  C   LIG    1        0.737  -0.611   9.994  0.00  0.00    +0.550 C 
ATOM      9  C   LIG    1        1.416  -0.777  11.322  0.00  0.00    +0.000 C 
ATOM     10  C   LIG    1        2.264  -1.995  11.490  0.00  0.00    +0.110 C 
ATOM     11  C   LIG    1        3.664  -1.827  10.990  0.00  0.00    -0.030 C 
ATOM     12  C   LIG    1        4.165  -0.684  10.656  0.00  0.00    -0.040 C 
ATOM     13  C   LIG    1        3.431   0.602  10.680  0.00  0.00    +0.080 C 
ATOM     14  C   LIG    1        2.144   0.564  11.508  0.00  0.00    +0.040 C 
ATOM     15  O   LIG    1        0.427  -1.492   9.221  0.00  0.00    -0.450 OA
ATOM     16  C   LIG    1        1.164   1.476  10.752  0.00  0.00    +0.530 C 
ATOM     17  O   LIG    1        0.985   2.659  10.949  0.00  0.00    -0.470 OA
ENDBRANCH   5   7
ENDBRANCH   3   5
BRANCH   1  18
ATOM     18  C   LIG    1        0.277   0.893   4.984  0.00  0.00    +0.260 C 
BRANCH  18  19
ATOM     19  C   LIG    1       -0.578   1.479   3.859  0.00  0.00    +0.100 C 
BRANCH  19  20
ATOM     20  C   LIG    1        0.011   1.072   2.506  0.00  0.00    +0.030 C 
ATOM     21  N   LIG    1        1.454   0.835   2.413  0.00  0.00    -0.120 NA
ATOM     22  N   LIG    1        0.751  -0.189   2.414  0.00  0.00    -0.110 NA
BRANCH  20  23
ATOM     23  C   LIG    1       -0.729   1.579   1.267  0.00  0.00    +0.120 C 
BRANCH  23  24
ATOM     24  C   LIG    1       -0.013   1.086   0.008  0.00  0.00    +0.160 C 
BRANCH  24  26
ATOM     25  C   LIG    1       -1.292   1.962  -2.136  0.00  0.00    +0.030 C 
ATOM     26  C   LIG    1       -0.725   1.573  -1.185  0.00  0.00    -0.190 C 
ENDBRANCH  24  26
ENDBRANCH  23  24
ENDBRANCH  20  23
ENDBRANCH  19  20
ENDBRANCH  18  19
ENDBRANCH   1  18
TORSDOF 8
