REMARK  Name = ZINCvU00000005c6.0
REMARK                            x       y       z     vdW  Elec       q    Type
REMARK                         _______ _______ _______ _____ _____    ______ ____
ROOT
ATOM      1  N   LIG    1       -0.119   1.185   2.567  0.00  0.00    -0.450 N 
ATOM      2  C   LIG    1       -0.357   0.025   3.247  0.00  0.00    +0.140 A 
ATOM      3  N   LIG    1        0.639  -0.145   4.087  0.00  0.00    -0.290 NA
ATOM      4  N   LIG    1        1.473   0.827   3.985  0.00  0.00    -0.270 NA
ATOM      5  C   LIG    1        1.064   1.675   3.070  0.00  0.00    +0.240 A 
ENDROOT
BRANCH   5   6
ATOM      6  C   LIG    1        1.745   2.920   2.659  0.00  0.00    -0.060 A 
ATOM      7  C   LIG    1        2.695   3.508   3.497  0.00  0.00    +0.110 A 
ATOM      8  C   LIG    1        3.332   4.667   3.107  0.00  0.00    -0.070 A 
ATOM      9  C   LIG    1        3.022   5.256   1.889  0.00  0.00    +0.150 A 
ATOM     10  C   LIG    1        2.074   4.677   1.055  0.00  0.00    -0.010 A 
ATOM     11  C   LIG    1        1.437   3.515   1.434  0.00  0.00    +0.060 A 
BRANCH   9  12
ATOM     12  O   LIG    1        3.647   6.402   1.511  0.00  0.00    -0.310 OA
ATOM     13  C   LIG    1        4.611   6.943   2.417  0.00  0.00    +0.240 C 
ENDBRANCH   9  12
ENDBRANCH   5   6
BRANCH   1  14
ATOM     14  C   LIG    1       -0.954   1.787   1.524  0.00  0.00    +0.300 C 
BRANCH  14  15
ATOM     15  C   LIG    1       -0.571   1.201   0.163  0.00  0.00    +0.020 C 
BRANCH  15  17
ATOM     16  C   LIG    1       -1.060   1.243  -2.287  0.00  0.00    +0.030 C 
ATOM     17  C   LIG    1       -1.443   1.829  -0.926  0.00  0.00    +0.020 C 
ENDBRANCH  15  17
ENDBRANCH  14  15
ENDBRANCH   1  14
BRANCH   2  18
ATOM     18  S   LIG    1       -1.740  -1.047   3.035  0.00  0.00    +0.090 S 
BRANCH  18  19
ATOM     19  C   LIG    1       -1.341  -2.321   4.257  0.00  0.00    +0.110 C 
BRANCH  19  20
ATOM     20  C   LIG    1       -2.417  -3.375   4.253  0.00  0.00    +0.530 C 
ATOM     21  N   LIG    1       -2.331  -4.429   5.089  0.00  0.00    -0.650 N 
ATOM     22  H   LIG    1       -1.576  -4.509   5.692  0.00  0.00    +0.420 HD
ATOM     23  O   LIG    1       -3.361  -3.275   3.499  0.00  0.00    -0.450 OA
BRANCH  21  24
ATOM     24  C   LIG    1       -3.328  -5.405   5.085  0.00  0.00    +0.390 A 
ATOM     25  N   LIG    1       -4.358  -5.287   4.263  0.00  0.00    -0.450 NA
ATOM     26  C   LIG    1       -5.320  -6.190   4.224  0.00  0.00    +0.190 A 
ATOM     27  C   LIG    1       -5.290  -7.293   5.055  0.00  0.00    -0.110 A 
ATOM     28  C   LIG    1       -4.229  -7.452   5.937  0.00  0.00    +0.140 A 
ATOM     29 CL   LIG    1       -6.566  -8.469   4.998  0.00  0.00    -0.040 Cl
ATOM     30  C   LIG    1       -6.468  -6.011   3.265  0.00  0.00    +0.160 C 
ATOM     31  C   LIG    1       -3.232  -6.491   5.950  0.00  0.00    -0.130 A 
ATOM     32 CL   LIG    1       -1.882  -6.638   7.032  0.00  0.00    -0.040 Cl
ENDBRANCH  21  24
ENDBRANCH  19  20
ENDBRANCH  18  19
ENDBRANCH   2  18
TORSDOF 9
