REMARK  Name = ZINCAx0000000hZY.0
REMARK                            x       y       z     vdW  Elec       q    Type
REMARK                         _______ _______ _______ _____ _____    ______ ____
ROOT
ATOM      1  C   LIG    1        4.079   6.607  -0.094  0.00  0.00    +0.450 C 
ATOM      2  O   LIG    1        2.977   7.104  -0.101  0.00  0.00    -0.470 OA
ENDROOT
BRANCH   1  17
ATOM      3  N   LIG    1        6.291   7.021   0.817  0.00  0.00    -0.610 N 
ATOM      4  C   LIG    1        6.303   7.507   2.078  0.00  0.00    +0.570 C 
ATOM      5  C   LIG    1        5.330   8.537   2.487  0.00  0.00    -0.180 A 
ATOM      6  C   LIG    1        5.069   8.820   3.824  0.00  0.00    +0.110 A 
ATOM      7  C   LIG    1        4.158   9.807   4.144  0.00  0.00    +0.000 A 
ATOM      8  C   LIG    1        3.504  10.517   3.150  0.00  0.00    +0.080 A 
ATOM      9  C   LIG    1        3.750  10.241   1.815  0.00  0.00    +0.020 A 
ATOM     10  C   LIG    1        4.650   9.254   1.482  0.00  0.00    +0.190 A 
ATOM     11  N   LIG    1        4.932   8.876   0.167  0.00  0.00    -0.550 N 
ATOM     12  C   LIG    1        4.973   9.655  -0.916  0.00  0.00    +0.530 C 
ATOM     13  C   LIG    1        5.600   8.923  -2.077  0.00  0.00    +0.100 C 
ATOM     14  C   LIG    1        5.867   7.492  -1.575  0.00  0.00    +0.100 C 
ATOM     15  O   LIG    1        4.562  10.795  -0.961  0.00  0.00    -0.490 OA
ATOM     16  O   LIG    1        7.119   7.093   2.879  0.00  0.00    -0.500 OA
ATOM     17  C   LIG    1        5.301   7.486  -0.153  0.00  0.00    +0.410 C 
BRANCH   3  19
ATOM     18  C   LIG    1        8.585   6.716   0.024  0.00  0.00    +0.030 C 
ATOM     19  C   LIG    1        7.281   6.018   0.417  0.00  0.00    +0.300 C 
ENDBRANCH   3  19
ENDBRANCH   1  17
BRANCH   1  20
ATOM     20  O   LIG    1        4.213   5.273  -0.033  0.00  0.00    -0.340 OA
BRANCH  20  21
ATOM     21  C   LIG    1        2.992   4.489   0.021  0.00  0.00    +0.310 C 
BRANCH  21  22
ATOM     22  C   LIG    1        3.339   3.024   0.084  0.00  0.00    +0.020 A 
ATOM     23  C   LIG    1        4.633   2.612   0.085  0.00  0.00    -0.050 A 
ATOM     24  C   LIG    1        4.932   1.236   0.146  0.00  0.00    +0.510 A 
ATOM     25  O   LIG    1        3.965   0.307   0.204  0.00  0.00    -0.270 OA
ATOM     26  C   LIG    1        2.659   0.648   0.206  0.00  0.00    +0.180 A 
ATOM     27  C   LIG    1        1.673  -0.324   0.266  0.00  0.00    +0.020 A 
ATOM     28  C   LIG    1        0.337   0.048   0.261  0.00  0.00    +0.210 A 
ATOM     29  C   LIG    1       -0.023   1.395   0.210  0.00  0.00    -0.020 A 
ATOM     30  C   LIG    1        0.936   2.364   0.150  0.00  0.00    +0.100 A 
ATOM     31  O   LIG    1        6.097   0.881   0.145  0.00  0.00    -0.450 OA
ATOM     32  C   LIG    1        2.289   2.005   0.147  0.00  0.00    -0.170 A 
BRANCH  28  33
ATOM     33  N   LIG    1       -0.655  -0.931   0.316  0.00  0.00    -0.670 N 
ATOM     34  H   LIG    1       -1.497  -0.796  -0.148  0.00  0.00    +0.420 HD
ATOM     35  C   LIG    1       -0.445  -2.066   1.012  0.00  0.00    +0.510 C 
ATOM     36  O   LIG    1        0.566  -2.195   1.669  0.00  0.00    -0.510 OA
ATOM     37  C   LIG    1       -1.466  -3.174   0.975  0.00  0.00    +0.110 C 
ENDBRANCH  28  33
ENDBRANCH  21  22
ENDBRANCH  20  21
ENDBRANCH   1  20
TORSDOF 6
