REMARK  Name = ZINCqH0000007jJN.0
REMARK                            x       y       z     vdW  Elec       q    Type
REMARK                         _______ _______ _______ _____ _____    ______ ____
ROOT
ATOM      1  N   LIG    1       -1.135  -0.732  -0.498  0.00  0.00    -0.670 N 
ATOM      2  H   LIG    1       -1.912  -0.152  -0.469  0.00  0.00    +0.410 HD
ATOM      3  C   LIG    1       -1.288  -2.052  -0.726  0.00  0.00    +0.710 C 
ATOM      4  N   LIG    1       -2.505  -2.547  -1.029  0.00  0.00    -0.740 N 
ATOM      5  H   LIG    1       -3.270  -1.953  -1.083  0.00  0.00    +0.400 HD
ATOM      6  O   LIG    1       -0.329  -2.796  -0.659  0.00  0.00    -0.570 OA
ENDROOT
BRANCH   1  12
ATOM      7  C   LIG    1        0.300   1.036   0.322  0.00  0.00    +0.080 A 
ATOM      8  C   LIG    1        1.567   1.562   0.513  0.00  0.00    -0.020 A 
ATOM      9  C   LIG    1        2.679   0.863   0.084  0.00  0.00    +0.040 A 
ATOM     10  C   LIG    1        2.530  -0.368  -0.540  0.00  0.00    +0.130 A 
ATOM     11  C   LIG    1        1.262  -0.899  -0.734  0.00  0.00    +0.040 A 
ATOM     12  C   LIG    1        0.146  -0.199  -0.304  0.00  0.00    +0.160 A 
BRANCH  10  13
ATOM     13  N   LIG    1        3.659  -1.074  -0.975  0.00  0.00    -0.670 N 
ATOM     14  H   LIG    1        3.666  -2.043  -0.944  0.00  0.00    +0.410 HD
ATOM     15  C   LIG    1        4.735  -0.407  -1.436  0.00  0.00    +0.510 C 
ATOM     16  O   LIG    1        4.694   0.799  -1.560  0.00  0.00    -0.530 OA
ATOM     17  C   LIG    1        5.990  -1.159  -1.797  0.00  0.00    +0.110 C 
ENDBRANCH  10  13
BRANCH   7  19
ATOM     18  C   LIG    1       -0.562   2.988   1.374  0.00  0.00    +0.250 C 
ATOM     19  O   LIG    1       -0.794   1.728   0.740  0.00  0.00    -0.320 OA
ENDBRANCH   7  19
ENDBRANCH   1  12
BRANCH   4  20
ATOM     20  C   LIG    1       -2.671  -3.981  -1.277  0.00  0.00    +0.320 C 
BRANCH  20  21
ATOM     21  C   LIG    1       -4.138  -4.276  -1.597  0.00  0.00    +0.070 C 
BRANCH  21  22
ATOM     22  S   LIG    1       -4.344  -6.052  -1.904  0.00  0.00    -0.220 S 
BRANCH  22  23
ATOM     23  C   LIG    1       -6.117  -6.202  -2.259  0.00  0.00    +0.130 C 
BRANCH  23  24
ATOM     24  C   LIG    1       -6.453  -7.644  -2.539  0.00  0.00    -0.080 A 
ATOM     25  C   LIG    1       -6.394  -8.128  -3.833  0.00  0.00    +0.020 A 
ATOM     26  C   LIG    1       -6.697  -9.452  -4.090  0.00  0.00    +0.010 A 
ATOM     27  C   LIG    1       -7.070 -10.289  -3.055  0.00  0.00    +0.010 A 
ATOM     28  C   LIG    1       -7.134  -9.804  -1.762  0.00  0.00    +0.010 A 
ATOM     29  C   LIG    1       -6.825  -8.481  -1.504  0.00  0.00    +0.020 A 
ENDBRANCH  23  24
ENDBRANCH  22  23
ENDBRANCH  21  22
ENDBRANCH  20  21
ENDBRANCH   4  20
TORSDOF 8
