REMARK  Name = ZINCqH0000003xh4.0
REMARK                            x       y       z     vdW  Elec       q    Type
REMARK                         _______ _______ _______ _____ _____    ______ ____
ROOT
ATOM      1  N   LIG    1        6.739   0.669  -2.550  0.00  0.00    -0.530 N 
ATOM      2  C   LIG    1        8.083   0.691  -2.388  0.00  0.00    +0.550 A 
ATOM      3  C   LIG    1        8.602   0.691  -1.013  0.00  0.00    -0.200 A 
ATOM      4  C   LIG    1        9.969   0.707  -0.744  0.00  0.00    +0.100 A 
ATOM      5  C   LIG    1       10.404   0.705   0.563  0.00  0.00    -0.010 A 
ATOM      6  C   LIG    1        9.493   0.688   1.612  0.00  0.00    +0.070 A 
ATOM      7  C   LIG    1        8.138   0.672   1.369  0.00  0.00    +0.030 A 
ATOM      8  C   LIG    1        7.671   0.673   0.051  0.00  0.00    +0.160 A 
ATOM      9  N   LIG    1        6.347   0.657  -0.231  0.00  0.00    -0.530 NA
ATOM     10  O   LIG    1        8.834   0.705  -3.345  0.00  0.00    -0.500 OA
ATOM     11  C   LIG    1        5.910   0.658  -1.466  0.00  0.00    +0.370 A 
ENDROOT
BRANCH   1  12
ATOM     12  C   LIG    1        6.171   0.663  -3.900  0.00  0.00    +0.300 C 
BRANCH  12  13
ATOM     13  C   LIG    1        5.955   2.103  -4.369  0.00  0.00    +0.020 C 
BRANCH  13  14
ATOM     14  C   LIG    1        5.361   2.097  -5.779  0.00  0.00    +0.170 C 
BRANCH  14  15
ATOM     15  O   LIG    1        5.160   3.442  -6.217  0.00  0.00    -0.390 OA
BRANCH  15  17
ATOM     16  C   LIG    1        4.434   5.025  -7.892  0.00  0.00    +0.040 C 
ATOM     17  C   LIG    1        4.605   3.549  -7.530  0.00  0.00    +0.160 C 
ENDBRANCH  15  17
ENDBRANCH  14  15
ENDBRANCH  13  14
ENDBRANCH  12  13
ENDBRANCH   1  12
BRANCH  11  18
ATOM     18  S   LIG    1        4.169   0.636  -1.740  0.00  0.00    +0.000 S 
BRANCH  18  19
ATOM     19  C   LIG    1        3.582   0.619  -0.028  0.00  0.00    +0.210 C 
BRANCH  19  20
ATOM     20  C   LIG    1        2.075   0.599  -0.015  0.00  0.00    -0.210 A 
ATOM     21  C   LIG    1        1.255  -0.480  -0.013  0.00  0.00    +0.000 A 
ATOM     22  O   LIG    1        0.002  -0.004   0.002  0.00  0.00    +0.100 OA
ATOM     23  N   LIG    1       -0.014   1.205   0.009  0.00  0.00    -0.360 NA
ATOM     24  C   LIG    1        1.670  -1.928  -0.024  0.00  0.00    +0.210 C 
ATOM     25  C   LIG    1        1.189   1.701  -0.000  0.00  0.00    +0.040 A 
ATOM     26  C   LIG    1        1.565   3.160   0.003  0.00  0.00    +0.160 C 
ENDBRANCH  19  20
ENDBRANCH  18  19
ENDBRANCH  11  18
TORSDOF 8
