REMARK  Name = ZINC550000002twE.0
REMARK                            x       y       z     vdW  Elec       q    Type
REMARK                         _______ _______ _______ _____ _____    ______ ____
ROOT
ATOM      1  C   LIG    1       -0.013   1.086   0.008  0.00  0.00    +0.080 C 
ATOM      2  C   LIG    1       -0.718   1.572   1.248  0.00  0.00    +0.290 C 
ATOM      3  O   LIG    1       -0.090   1.776   2.259  0.00  0.00    -0.410 OA
ENDROOT
BRANCH   2   4
ATOM      4  C   LIG    1       -2.187   1.800   1.226  0.00  0.00    +0.430 C 
ATOM      5  O   LIG    1       -2.752   2.189   2.220  0.00  0.00    -0.400 OA
ENDBRANCH   2   4
TORSDOF 1
