REMARK  Name = ZINCrH000004jt8h.0
REMARK                            x       y       z     vdW  Elec       q    Type
REMARK                         _______ _______ _______ _____ _____    ______ ____
ROOT
ATOM      1  C   LIG    1        3.446   5.030   1.530  0.00  0.00    +0.570 C 
ATOM      2  N   LIG    1        4.005   4.200   0.627  0.00  0.00    -0.670 N 
ATOM      3  H   LIG    1        4.867   4.415   0.239  0.00  0.00    +0.410 HD
ATOM      4  O   LIG    1        2.412   4.715   2.087  0.00  0.00    -0.510 OA
ENDROOT
BRANCH   2   5
ATOM      5  C   LIG    1        3.340   3.027   0.249  0.00  0.00    +0.160 A 
ATOM      6  C   LIG    1        4.068   1.889  -0.070  0.00  0.00    +0.010 A 
ATOM      7  C   LIG    1        3.414   0.730  -0.445  0.00  0.00    +0.060 A 
ATOM      8  C   LIG    1        2.032   0.701  -0.500  0.00  0.00    +0.020 A 
ATOM      9  O   LIG    1        1.152  -0.297  -0.833  0.00  0.00    -0.290 OA
ATOM     10  C   LIG    1       -0.081   0.118  -0.228  0.00  0.00    +0.250 C 
ATOM     11  O   LIG    1       -0.035   1.550  -0.314  0.00  0.00    -0.290 OA
ATOM     12  C   LIG    1       -1.289  -0.446  -0.984  0.00  0.00    +0.070 C 
ATOM     13  C   LIG    1       -1.718  -1.674  -0.140  0.00  0.00    +0.040 C 
ATOM     14  C   LIG    1       -1.472  -1.197   1.314  0.00  0.00    +0.040 C 
ATOM     15  C   LIG    1       -0.181  -0.353   1.223  0.00  0.00    +0.020 C 
ATOM     16  C   LIG    1        1.297   1.843  -0.179  0.00  0.00    +0.050 A 
ATOM     17  C   LIG    1        1.952   3.002   0.194  0.00  0.00    +0.050 A 
ENDBRANCH   2   5
BRANCH   1  23
ATOM     18  N   LIG    1        5.678   9.976   2.890  0.00  0.00    -0.390 N 
ATOM     19  N   LIG    1        4.695  10.344   3.821  0.00  0.00    +0.000 NA
ATOM     20  N   LIG    1        3.810   9.414   3.901  0.00  0.00    -0.210 NA
ATOM     21  C   LIG    1        4.125   8.397   3.064  0.00  0.00    -0.030 A 
ATOM     22  C   LIG    1        3.507   7.179   2.769  0.00  0.00    +0.210 A 
ATOM     23  C   LIG    1        4.089   6.323   1.842  0.00  0.00    -0.160 A 
ATOM     24  C   LIG    1        5.281   6.683   1.197  0.00  0.00    +0.100 A 
ATOM     25  C   LIG    1        5.885   7.873   1.476  0.00  0.00    +0.020 A 
ATOM     26  C   LIG    1        5.321   8.742   2.407  0.00  0.00    +0.110 A 
BRANCH  18  28
ATOM     27  C   LIG    1        6.507  11.661   1.323  0.00  0.00    +0.050 C 
ATOM     28  C   LIG    1        6.857  10.758   2.508  0.00  0.00    +0.330 C 
ENDBRANCH  18  28
ENDBRANCH   1  23
TORSDOF 3
