REMARK  Name = ZINCrg00000J05eS.0
REMARK                            x       y       z     vdW  Elec       q    Type
REMARK                         _______ _______ _______ _____ _____    ______ ____
ROOT
ATOM      1  N   LIG    1       -0.743   1.582  -1.167  0.00  0.00    -1.000 NA
ATOM      2  C   LIG    1       -0.013   1.086   0.008  0.00  0.00    +0.300 C 
ATOM      3  C   LIG    1       -0.756   1.594   1.262  0.00  0.00    +0.050 C 
ATOM      4  C   LIG    1       -1.545   2.819   0.722  0.00  0.00    +0.220 C 
ATOM      5  C   LIG    1       -1.915   2.349  -0.707  0.00  0.00    +0.340 C 
ENDROOT
BRANCH   4   6
ATOM      6  C   LIG    1       -2.782   3.072   1.545  0.00  0.00    +0.160 A 
ATOM      7  N   LIG    1       -2.824   3.559   2.762  0.00  0.00    -0.460 NA
ATOM      8  C   LIG    1       -4.128   3.609   3.087  0.00  0.00    +0.210 A 
ATOM      9  N   LIG    1       -4.800   3.151   2.073  0.00  0.00    -0.370 NA
ATOM     10  O   LIG    1       -4.045   2.837   1.177  0.00  0.00    +0.090 OA
BRANCH   8  11
ATOM     11  C   LIG    1       -4.705   4.100   4.390  0.00  0.00    +0.050 C 
ATOM     12  C   LIG    1       -6.199   3.878   4.629  0.00  0.00    +0.050 C 
ATOM     13  C   LIG    1       -5.673   5.283   4.332  0.00  0.00    +0.060 C 
ENDBRANCH   8  11
ENDBRANCH   4   6
BRANCH   1  15
ATOM     14  O   LIG    1       -0.911   2.374  -3.499  0.00  0.00    -0.950 OA
ATOM     15  S   LIG    1       -0.320   1.323  -2.747  0.00  0.00    +2.720 S 
ATOM     16  O   LIG    1        1.076   1.056  -2.750  0.00  0.00    -0.930 OA
BRANCH  15  17
ATOM     17  C   LIG    1       -1.112  -0.164  -3.262  0.00  0.00    -0.680 A 
ATOM     18  C   LIG    1       -2.079  -0.124  -4.249  0.00  0.00    +0.130 A 
ATOM     19  C   LIG    1       -2.702  -1.289  -4.656  0.00  0.00    +0.020 A 
ATOM     20  C   LIG    1       -2.361  -2.497  -4.078  0.00  0.00    +0.080 A 
ATOM     21  C   LIG    1       -1.392  -2.543  -3.086  0.00  0.00    +0.030 A 
ATOM     22  O   LIG    1       -1.072  -3.739  -2.520  0.00  0.00    -0.300 OA
ATOM     23  C   LIG    1        0.172  -3.800  -1.808  0.00  0.00    +0.230 C 
ATOM     24  C   LIG    1        0.259  -2.568  -0.897  0.00  0.00    +0.240 C 
ATOM     25  O   LIG    1        0.201  -1.397  -1.719  0.00  0.00    -0.300 OA
ATOM     26  C   LIG    1       -0.761  -1.373  -2.682  0.00  0.00    +0.150 A 
ENDBRANCH  15  17
ENDBRANCH   1  15
BRANCH   4  27
ATOM     27  O   LIG    1       -0.715   3.981   0.680  0.00  0.00    -0.520 OA
ATOM     28  H   LIG    1       -0.457   4.313   1.551  0.00  0.00    +0.390 HD
ENDBRANCH   4  27
TORSDOF 5
