REMARK  Name = ZINCpk00000kijDv.0
REMARK                            x       y       z     vdW  Elec       q    Type
REMARK                         _______ _______ _______ _____ _____    ______ ____
ROOT
ATOM      1  C   LIG    1       -3.898  -0.500   4.854  0.00  0.00    +0.320 C 
ATOM      2  N   LIG    1       -2.644  -1.085   5.304  0.00  0.00    -0.710 N 
ATOM      3  H   LIG    1       -2.658  -1.674   6.075  0.00  0.00    +0.420 HD
ATOM      4  C   LIG    1       -1.471  -0.848   4.703  0.00  0.00    +0.540 C 
ATOM      5  C   LIG    1       -1.375   0.031   3.490  0.00  0.00    +0.130 C 
ATOM      6  N   LIG    1       -2.655   0.240   2.824  0.00  0.00    -0.690 N 
ATOM      7  H   LIG    1       -2.666   0.570   1.911  0.00  0.00    +0.420 HD
ATOM      8  C   LIG    1       -0.596   1.331   3.738  0.00  0.00    +0.090 C 
ATOM      9  C   LIG    1        0.031   1.125   2.348  0.00  0.00    +0.040 C 
ATOM     10  C   LIG    1       -0.247  -0.377   2.530  0.00  0.00    +0.150 C 
ATOM     11  O   LIG    1       -0.463  -1.354   5.150  0.00  0.00    -0.510 OA
ATOM     12  C   LIG    1       -3.817  -0.011   3.441  0.00  0.00    +0.530 C 
ATOM     13  O   LIG    1       -4.849   0.163   2.828  0.00  0.00    -0.500 OA
ENDROOT
BRANCH   1  19
ATOM     14  C   LIG    1       -5.569   1.057   5.889  0.00  0.00    +0.160 A 
ATOM     15  C   LIG    1       -5.889   2.119   6.721  0.00  0.00    -0.080 A 
ATOM     16  C   LIG    1       -4.889   2.786   7.404  0.00  0.00    +0.060 A 
ATOM     17  C   LIG    1       -3.572   2.390   7.262  0.00  0.00    -0.030 A 
ATOM     18  C   LIG    1       -3.252   1.327   6.437  0.00  0.00    +0.070 A 
ATOM     19  C   LIG    1       -4.247   0.658   5.753  0.00  0.00    -0.150 A 
BRANCH  14  21
ATOM     20  C   LIG    1       -7.888   0.869   5.400  0.00  0.00    +0.250 C 
ATOM     21  O   LIG    1       -6.550   0.404   5.212  0.00  0.00    -0.300 OA
ENDBRANCH  14  21
ENDBRANCH   1  19
BRANCH   9  22
ATOM     22  C   LIG    1        1.521   1.472   2.291  0.00  0.00    +0.440 C 
ATOM     23  F   LIG    1        2.029   1.136   1.032  0.00  0.00    -0.170 F 
ATOM     24  F   LIG    1        2.205   0.753   3.277  0.00  0.00    -0.170 F 
ATOM     25  F   LIG    1        1.689   2.843   2.511  0.00  0.00    -0.180 F 
ENDBRANCH   9  22
BRANCH   9  26
ATOM     26  O   LIG    1       -0.718   1.722   1.288  0.00  0.00    -0.330 OA
ATOM     27  C   LIG    1       -0.823   3.144   1.379  0.00  0.00    +0.230 C 
ENDBRANCH   9  26
TORSDOF 4
