REMARK  Name = ZINCpk00000y6uNS.0
REMARK                            x       y       z     vdW  Elec       q    Type
REMARK                         _______ _______ _______ _____ _____    ______ ____
ROOT
ATOM      1  C   LIG    1        5.673  -1.163  -1.739  0.00  0.00    +0.050 C 
ATOM      2  C   LIG    1        5.168  -1.546  -0.346  0.00  0.00    +0.220 C 
ATOM      3  C   LIG    1        5.119  -3.082  -0.206  0.00  0.00    +0.130 C 
ATOM      4  C   LIG    1        3.634  -3.410  -0.515  0.00  0.00    +0.040 C 
ATOM      5  C   LIG    1        2.910  -2.192   0.111  0.00  0.00    +0.280 C 
ATOM      6  N   LIG    1        3.798  -1.046  -0.156  0.00  0.00    -0.600 N 
ATOM      7  C   LIG    1        3.417   0.245  -0.221  0.00  0.00    +0.610 C 
ATOM      8  O   LIG    1        4.239   1.111  -0.449  0.00  0.00    -0.530 OA
ENDROOT
BRANCH   3   9
ATOM      9  N   LIG    1        6.008  -3.722  -1.185  0.00  0.00    -0.520 NA
ATOM     10  C   LIG    1        5.630  -5.126  -1.400  0.00  0.00    +0.150 C 
ATOM     11  C   LIG    1        6.541  -5.736  -2.468  0.00  0.00    +0.220 C 
ATOM     12  O   LIG    1        7.905  -5.599  -2.059  0.00  0.00    -0.390 OA
ATOM     13  C   LIG    1        8.307  -4.245  -1.841  0.00  0.00    +0.220 C 
ATOM     14  C   LIG    1        7.413  -3.619  -0.766  0.00  0.00    +0.150 C 
ENDBRANCH   3   9
BRANCH   7  15
ATOM     15  C   LIG    1        2.004   0.607  -0.016  0.00  0.00    +0.020 A 
ATOM     16  C   LIG    1        1.568   1.884  -0.071  0.00  0.00    -0.030 A 
ATOM     17  S   LIG    1       -0.118   1.913   0.214  0.00  0.00    +0.170 S 
ATOM     18  C   LIG    1       -0.137   0.163   0.394  0.00  0.00    +0.150 A 
ATOM     19  N   LIG    1        1.066  -0.299   0.235  0.00  0.00    -0.450 NA
BRANCH  18  20
ATOM     20  C   LIG    1       -1.336  -0.655   0.681  0.00  0.00    -0.180 A 
ATOM     21  C   LIG    1       -2.609  -0.189   0.857  0.00  0.00    +0.270 A 
ATOM     22  N   LIG    1       -3.402  -1.251   1.094  0.00  0.00    -0.360 N 
ATOM     23  N   LIG    1       -2.609  -2.405   1.075  0.00  0.00    -0.290 NA
ATOM     24  C   LIG    1       -4.846  -1.207   1.336  0.00  0.00    +0.370 C 
ATOM     25  C   LIG    1       -1.374  -2.057   0.829  0.00  0.00    +0.290 A 
ENDBRANCH  18  20
ENDBRANCH   7  15
TORSDOF 3
