REMARK  Name = ZINCqH0000050L7J.0
REMARK                            x       y       z     vdW  Elec       q    Type
REMARK                         _______ _______ _______ _____ _____    ______ ____
ROOT
ATOM      1  S   LIG    1       -4.634   0.796  -1.633  0.00  0.00    +2.580 S 
ATOM      2  O   LIG    1       -5.480   1.712  -0.953  0.00  0.00    -1.010 OA
ATOM      3  O   LIG    1       -4.662  -0.606  -1.403  0.00  0.00    -1.040 OA
ENDROOT
BRANCH   1   4
ATOM      4  C   LIG    1       -4.935   1.023  -3.354  0.00  0.00    -0.570 A 
ATOM      5  C   LIG    1       -5.169  -0.072  -4.165  0.00  0.00    +0.140 A 
ATOM      6  C   LIG    1       -5.405   0.106  -5.516  0.00  0.00    +0.050 A 
ATOM      7  C   LIG    1       -5.409   1.380  -6.055  0.00  0.00    -0.000 A 
ATOM      8  C   LIG    1       -5.175   2.475  -5.243  0.00  0.00    +0.060 A 
ATOM      9 CL   LIG    1       -5.706   1.604  -7.751  0.00  0.00    -0.050 Cl
ATOM     10  C   LIG    1       -4.944   2.297  -3.892  0.00  0.00    -0.080 A 
BRANCH  10  11
ATOM     11  C   LIG    1       -4.695   3.490  -3.006  0.00  0.00    +0.480 C 
ATOM     12  F   LIG    1       -3.430   3.380  -2.419  0.00  0.00    -0.140 F 
ATOM     13  F   LIG    1       -5.671   3.539  -2.005  0.00  0.00    -0.140 F 
ATOM     14  F   LIG    1       -4.753   4.660  -3.772  0.00  0.00    -0.190 F 
ENDBRANCH  10  11
ENDBRANCH   1   4
BRANCH   1  15
ATOM     15  N   LIG    1       -3.080   1.286  -1.339  0.00  0.00    -1.160 NA
BRANCH  15  16
ATOM     16  C   LIG    1       -2.534   1.216   0.019  0.00  0.00    +0.280 C 
BRANCH  16  20
ATOM     17  C   LIG    1        2.476   1.246  -0.014  0.00  0.00    +0.230 C 
ATOM     18  C   LIG    1        1.050   1.732   0.001  0.00  0.00    +0.210 C 
ATOM     19  N   LIG    1       -0.011   0.966   0.007  0.00  0.00    -0.440 N 
ATOM     20  C   LIG    1       -1.113   1.717   0.016  0.00  0.00    +0.150 C 
ATOM     21  C   LIG    1       -0.714   3.038   0.024  0.00  0.00    +0.050 A 
ATOM     22  C   LIG    1       -1.407   4.266   0.037  0.00  0.00    +0.140 A 
ATOM     23  C   LIG    1       -0.700   5.426   0.037  0.00  0.00    +0.030 A 
ATOM     24  C   LIG    1        0.708   5.387   0.024  0.00  0.00    +0.100 A 
ATOM     25  C   LIG    1        1.361   4.209   0.011  0.00  0.00    +0.190 A 
ATOM     26  H   LIG    1        0.002  -0.004   0.002  0.00  0.00    +0.460 HD
ATOM     27  N   LIG    1        0.667   3.027   0.011  0.00  0.00    -0.320 N 
ENDBRANCH  16  20
ENDBRANCH  15  16
ENDBRANCH   1  15
TORSDOF 5
