REMARK  Name = ZINCqH0000050L7J.1
REMARK                            x       y       z     vdW  Elec       q    Type
REMARK                         _______ _______ _______ _____ _____    ______ ____
ROOT
ATOM      1  S   LIG    1        5.250   0.779  -1.448  0.00  0.00    +2.680 S 
ATOM      2  O   LIG    1        5.327   1.835  -0.500  0.00  0.00    -0.940 OA
ATOM      3  O   LIG    1        5.372   0.982  -2.849  0.00  0.00    -0.930 OA
ENDROOT
BRANCH   1   4
ATOM      4  C   LIG    1        6.498  -0.382  -1.003  0.00  0.00    -0.640 A 
ATOM      5  C   LIG    1        7.304  -0.142   0.094  0.00  0.00    +0.160 A 
ATOM      6  C   LIG    1        8.280  -1.055   0.447  0.00  0.00    +0.060 A 
ATOM      7  C   LIG    1        8.457  -2.204  -0.303  0.00  0.00    +0.010 A 
ATOM      8  C   LIG    1        7.652  -2.441  -1.404  0.00  0.00    +0.080 A 
ATOM      9 CL   LIG    1        9.686  -3.348   0.136  0.00  0.00    -0.030 Cl
ATOM     10  C   LIG    1        6.673  -1.530  -1.753  0.00  0.00    -0.070 A 
BRANCH  10  11
ATOM     11  C   LIG    1        5.797  -1.787  -2.952  0.00  0.00    +0.480 C 
ATOM     12  F   LIG    1        6.057  -0.826  -3.935  0.00  0.00    -0.140 F 
ATOM     13  F   LIG    1        4.453  -1.714  -2.572  0.00  0.00    -0.160 F 
ATOM     14  F   LIG    1        6.069  -3.061  -3.462  0.00  0.00    -0.170 F 
ENDBRANCH  10  11
ENDBRANCH   1   4
BRANCH   1  15
ATOM     15  N   LIG    1        3.786   0.042  -1.209  0.00  0.00    -1.100 NA
ATOM     16  H   LIG    1        3.189  -0.106  -1.959  0.00  0.00    +0.430 HD
BRANCH  15  17
ATOM     17  C   LIG    1        3.393  -0.386   0.136  0.00  0.00    +0.380 C 
BRANCH  17  21
ATOM     18  C   LIG    1       -1.010  -2.757  -0.187  0.00  0.00    +0.170 C 
ATOM     19  C   LIG    1        0.007  -1.665   0.028  0.00  0.00    +0.170 A 
ATOM     20  N   LIG    1        1.303  -1.803  -0.093  0.00  0.00    -0.430 NA
ATOM     21  C   LIG    1        1.908  -0.643   0.167  0.00  0.00    -0.010 A 
ATOM     22  C   LIG    1        0.926   0.278   0.470  0.00  0.00    +0.020 A 
ATOM     23  C   LIG    1        0.946   1.643   0.821  0.00  0.00    +0.070 A 
ATOM     24  C   LIG    1       -0.228   2.282   1.064  0.00  0.00    +0.020 A 
ATOM     25  C   LIG    1       -1.442   1.576   0.961  0.00  0.00    +0.020 A 
ATOM     26  C   LIG    1       -1.451   0.271   0.630  0.00  0.00    +0.220 A 
ATOM     27  N   LIG    1       -0.278  -0.391   0.376  0.00  0.00    -0.360 N 
ENDBRANCH  17  21
ENDBRANCH  15  17
ENDBRANCH   1  15
TORSDOF 5
