REMARK  Name = ZINCkj000005hYv9.1
REMARK                            x       y       z     vdW  Elec       q    Type
REMARK                         _______ _______ _______ _____ _____    ______ ____
ROOT
ATOM      1  N   LIG    1       -7.069   2.504  -0.561  0.00  0.00    -0.730 N 
ATOM      2  H   LIG    1       -7.571   1.928   0.036  0.00  0.00    +0.400 HD
ATOM      3  C   LIG    1       -5.730   2.596  -0.441  0.00  0.00    +0.700 C 
ATOM      4  N   LIG    1       -5.088   1.887   0.510  0.00  0.00    -0.750 N 
ATOM      5  H   LIG    1       -5.591   1.311   1.107  0.00  0.00    +0.400 HD
ATOM      6  O   LIG    1       -5.100   3.318  -1.189  0.00  0.00    -0.580 OA
ENDROOT
BRANCH   1   7
ATOM      7  C   LIG    1       -7.766   3.275  -1.594  0.00  0.00    +0.270 C 
BRANCH   7   8
ATOM      8  C   LIG    1       -9.250   2.902  -1.594  0.00  0.00    +0.070 C 
ATOM      9  C   LIG    1      -10.156   3.980  -2.212  0.00  0.00    +0.010 C 
ATOM     10  C   LIG    1      -11.158   3.671  -1.086  0.00  0.00    +0.030 C 
ATOM     11  C   LIG    1       -9.957   3.185  -0.258  0.00  0.00    +0.060 C 
BRANCH   8  13
ATOM     12  C   LIG    1       -9.168   1.431  -3.485  0.00  0.00    +0.200 C 
ATOM     13  O   LIG    1       -9.492   1.588  -2.102  0.00  0.00    -0.360 OA
ENDBRANCH   8  13
ENDBRANCH   7   8
ENDBRANCH   1   7
BRANCH   4  14
ATOM     14  C   LIG    1       -3.633   1.987   0.641  0.00  0.00    +0.310 C 
BRANCH  14  15
ATOM     15  C   LIG    1       -3.161   1.089   1.786  0.00  0.00    -0.010 C 
ATOM     16  C   LIG    1       -3.576   1.681   3.152  0.00  0.00    +0.080 C 
ATOM     17  C   LIG    1       -2.372   1.432   4.082  0.00  0.00    +0.250 C 
ATOM     18  N   LIG    1       -1.354   0.713   3.287  0.00  0.00    -0.370 N 
ATOM     19  H   LIG    1       -1.453  -0.283   3.415  0.00  0.00    +0.420 HD
ATOM     20  C   LIG    1       -1.614   1.075   1.870  0.00  0.00    +0.290 C 
BRANCH  18  21
ATOM     21  C   LIG    1       -0.006   1.143   3.681  0.00  0.00    +0.100 C 
ATOM     22  C   LIG    1        1.026   0.053   3.976  0.00  0.00    +0.100 C 
ATOM     23  C   LIG    1        0.429   0.872   5.122  0.00  0.00    +0.100 C 
ENDBRANCH  18  21
ENDBRANCH  14  15
ENDBRANCH   4  14
TORSDOF 6
