REMARK  Name = ZINCkj000005hYv9.0
REMARK                            x       y       z     vdW  Elec       q    Type
REMARK                         _______ _______ _______ _____ _____    ______ ____
ROOT
ATOM      1  N   LIG    1       -1.090   2.381  -3.143  0.00  0.00    -0.730 N 
ATOM      2  H   LIG    1       -2.041   2.350  -2.955  0.00  0.00    +0.400 HD
ATOM      3  C   LIG    1       -0.658   2.710  -4.376  0.00  0.00    +0.700 C 
ATOM      4  N   LIG    1       -1.547   2.996  -5.348  0.00  0.00    -0.750 N 
ATOM      5  H   LIG    1       -2.498   2.965  -5.160  0.00  0.00    +0.400 HD
ATOM      6  O   LIG    1        0.534   2.749  -4.612  0.00  0.00    -0.590 OA
ENDROOT
BRANCH   1   7
ATOM      7  C   LIG    1       -0.124   2.070  -2.087  0.00  0.00    +0.270 C 
BRANCH   7   8
ATOM      8  C   LIG    1       -0.870   1.609  -0.833  0.00  0.00    +0.070 C 
ATOM      9  C   LIG    1       -1.732   0.356  -1.055  0.00  0.00    +0.050 C 
ATOM     10  C   LIG    1       -1.259  -0.122   0.328  0.00  0.00    +0.030 C 
ATOM     11  C   LIG    1       -0.012   0.755   0.115  0.00  0.00    +0.010 C 
BRANCH   8  13
ATOM     12  C   LIG    1       -0.738   3.794   0.144  0.00  0.00    +0.200 C 
ATOM     13  O   LIG    1       -1.563   2.672  -0.176  0.00  0.00    -0.360 OA
ENDBRANCH   8  13
ENDBRANCH   7   8
ENDBRANCH   1   7
BRANCH   4  14
ATOM     14  C   LIG    1       -1.077   3.354  -6.689  0.00  0.00    +0.290 C 
BRANCH  14  15
ATOM     15  C   LIG    1       -2.279   3.629  -7.594  0.00  0.00    +0.000 C 
ATOM     16  C   LIG    1       -3.067   2.324  -7.850  0.00  0.00    +0.080 C 
ATOM     17  C   LIG    1       -3.465   2.448  -9.344  0.00  0.00    +0.270 C 
ATOM     18  N   LIG    1       -2.275   3.088  -9.961  0.00  0.00    -0.370 N 
ATOM     19  H   LIG    1       -1.555   2.401 -10.126  0.00  0.00    +0.420 HD
ATOM     20  C   LIG    1       -1.806   4.094  -8.984  0.00  0.00    +0.270 C 
BRANCH  18  21
ATOM     21  C   LIG    1       -2.650   3.743 -11.222  0.00  0.00    +0.100 C 
ATOM     22  C   LIG    1       -2.047   3.187 -12.514  0.00  0.00    +0.100 C 
ATOM     23  C   LIG    1       -1.564   4.529 -11.960  0.00  0.00    +0.090 C 
ENDBRANCH  18  21
ENDBRANCH  14  15
ENDBRANCH   4  14
TORSDOF 6
