REMARK  Name = ZINCrD000000fnZr.0
REMARK                            x       y       z     vdW  Elec       q    Type
REMARK                         _______ _______ _______ _____ _____    ______ ____
ROOT
ATOM      1  N   LIG    1        3.316   2.350  -0.047  0.00  0.00    -0.660 N 
ATOM      2  H   LIG    1        4.219   2.001  -0.116  0.00  0.00    +0.420 HD
ATOM      3  C   LIG    1        3.113   3.680   0.040  0.00  0.00    +0.570 C 
ATOM      4  O   LIG    1        1.992   4.112   0.225  0.00  0.00    -0.520 OA
ENDROOT
BRANCH   1  10
ATOM      5  C   LIG    1        2.192   0.392  -0.926  0.00  0.00    -0.170 A 
ATOM      6  C   LIG    1        1.098  -0.475  -0.907  0.00  0.00    +0.060 A 
ATOM      7  C   LIG    1        0.066  -0.261  -0.019  0.00  0.00    -0.010 A 
ATOM      8  C   LIG    1        0.108   0.812   0.857  0.00  0.00    +0.060 A 
ATOM      9  C   LIG    1        1.183   1.678   0.850  0.00  0.00    +0.020 A 
ATOM     10  C   LIG    1        2.231   1.478  -0.038  0.00  0.00    +0.210 A 
BRANCH   5  13
ATOM     11  N   LIG    1        3.274  -0.895  -2.702  0.00  0.00    -0.720 N 
ATOM     12  H   LIG    1        2.527  -1.514  -2.674  0.00  0.00    +0.400 HD
ATOM     13  C   LIG    1        3.299   0.169  -1.875  0.00  0.00    +0.570 C 
ATOM     14  O   LIG    1        4.235   0.945  -1.910  0.00  0.00    -0.540 OA
BRANCH  11  15
ATOM     15  C   LIG    1        4.374  -1.117  -3.644  0.00  0.00    +0.300 C 
BRANCH  15  17
ATOM     16  C   LIG    1        4.102  -2.312  -5.755  0.00  0.00    +0.050 C 
ATOM     17  C   LIG    1        4.104  -2.364  -4.446  0.00  0.00    -0.060 C 
ENDBRANCH  15  17
ENDBRANCH  11  15
ENDBRANCH   5  13
ENDBRANCH   1  10
BRANCH   3  18
ATOM     18  C   LIG    1        4.252   4.610  -0.090  0.00  0.00    -0.140 A 
ATOM     19  C   LIG    1        5.542   4.114  -0.297  0.00  0.00    +0.090 A 
ATOM     20  C   LIG    1        6.601   4.986  -0.423  0.00  0.00    +0.000 A 
ATOM     21  C   LIG    1        6.389   6.357  -0.333  0.00  0.00    +0.190 A 
ATOM     22  C   LIG    1        5.108   6.854  -0.121  0.00  0.00    +0.020 A 
ATOM     23  C   LIG    1        4.043   5.989   0.000  0.00  0.00    +0.120 A 
BRANCH  21  24
ATOM     24  N   LIG    1        7.468   7.239  -0.455  0.00  0.00    -0.330 N 
ATOM     25  N   LIG    1        7.435   8.506  -1.052  0.00  0.00    -0.290 NA
ATOM     26  C   LIG    1        8.633   9.026  -0.975  0.00  0.00    +0.250 A 
ATOM     27  C   LIG    1        9.470   8.111  -0.327  0.00  0.00    -0.100 A 
ATOM     28  C   LIG    1        8.733   7.022  -0.011  0.00  0.00    +0.090 A 
ATOM     29  C   LIG    1        9.227   5.789   0.702  0.00  0.00    +0.160 C 
ENDBRANCH  21  24
ENDBRANCH   3  18
TORSDOF 6
