REMARK  Name = ZINCrD00000dfn1J.0
REMARK                            x       y       z     vdW  Elec       q    Type
REMARK                         _______ _______ _______ _____ _____    ______ ____
ROOT
ATOM      1  C   LIG    1        5.522  -0.057   0.053  0.00  0.00    +0.250 A 
ATOM      2  N   LIG    1        4.285  -0.482   0.018  0.00  0.00    -0.270 NA
ATOM      3  N   LIG    1        3.463   0.650  -0.097  0.00  0.00    -0.320 N 
ATOM      4  C   LIG    1        4.301   1.725  -0.130  0.00  0.00    +0.390 A 
ATOM      5  N   LIG    1        5.537   1.270  -0.032  0.00  0.00    -0.500 NA
ENDROOT
BRANCH   3   6
ATOM      6  C   LIG    1        2.066   0.671  -0.169  0.00  0.00    +0.520 A 
ATOM      7  N   LIG    1        1.318   1.754  -0.115  0.00  0.00    -0.360 NA
ATOM      8  N   LIG    1       -0.017   1.337  -0.221  0.00  0.00    -0.280 N 
ATOM      9  C   LIG    1       -1.200   2.005  -0.220  0.00  0.00    +0.290 A 
ATOM     10  C   LIG    1       -2.368   1.335  -0.345  0.00  0.00    +0.020 A 
ATOM     11  C   LIG    1       -2.371  -0.062  -0.466  0.00  0.00    +0.110 A 
ATOM     12  C   LIG    1       -1.189  -0.740  -0.463  0.00  0.00    +0.070 A 
ATOM     13  C   LIG    1        0.014  -0.024  -0.337  0.00  0.00    +0.310 A 
ATOM     14  N   LIG    1        1.288  -0.399  -0.303  0.00  0.00    -0.520 NA
ENDBRANCH   3   6
BRANCH   4  15
ATOM     15  C   LIG    1        3.902   3.137  -0.249  0.00  0.00    +0.030 A 
ATOM     16  C   LIG    1        4.649   4.219   0.119  0.00  0.00    -0.080 A 
ATOM     17  C   LIG    1        3.894   5.365  -0.166  0.00  0.00    -0.030 A 
ATOM     18  C   LIG    1        2.717   4.961  -0.696  0.00  0.00    +0.200 A 
ATOM     19  N   LIG    1        2.713   3.601  -0.756  0.00  0.00    -0.520 N 
ATOM     20  H   LIG    1        1.990   3.052  -1.098  0.00  0.00    +0.420 HD
BRANCH  16  21
ATOM     21  C   LIG    1        6.031   4.187   0.721  0.00  0.00    +0.260 C 
BRANCH  21  22
ATOM     22  O   LIG    1        6.474   5.523   0.966  0.00  0.00    -0.390 OA
ATOM     23  C   LIG    1        7.781   5.605   1.540  0.00  0.00    +0.200 C 
ENDBRANCH  21  22
ENDBRANCH  16  21
ENDBRANCH   4  15
BRANCH   1  24
ATOM     24  C   LIG    1        6.740  -0.936   0.171  0.00  0.00    +0.100 C 
ATOM     25  C   LIG    1        6.668  -1.738   1.472  0.00  0.00    +0.040 C 
BRANCH  24  26
ATOM     26  C   LIG    1        6.793  -1.897  -1.018  0.00  0.00    +0.020 C 
BRANCH  26  28
ATOM     27  C   LIG    1        8.145  -3.664  -2.155  0.00  0.00    +0.010 C 
ATOM     28  C   LIG    1        8.092  -2.703  -0.966  0.00  0.00    +0.010 C 
ENDBRANCH  26  28
ENDBRANCH  24  26
ENDBRANCH   1  24
TORSDOF 7
