REMARK  Name = ZINCah0000002xvS.0
REMARK                            x       y       z     vdW  Elec       q    Type
REMARK                         _______ _______ _______ _____ _____    ______ ____
ROOT
ATOM      1  C   LIG    1       -0.068   1.127   2.404  0.00  0.00    +0.100 C 
ATOM      2  C   LIG    1        1.162   1.963   2.795  0.00  0.00    -0.030 C 
ATOM      3  C   LIG    1        0.658   1.882   4.246  0.00  0.00    +0.160 C 
ATOM      4  C   LIG    1        0.176  -0.383   2.458  0.00  0.00    +0.050 C 
ATOM      5  C   LIG    1       -0.752   1.687   3.662  0.00  0.00    -0.060 C 
ATOM      6  C   LIG    1       -1.590   0.653   4.417  0.00  0.00    +0.050 C 
ATOM      7  C   LIG    1       -1.501   2.999   3.420  0.00  0.00    +0.070 C 
ENDROOT
BRANCH   1   9
ATOM      8  C   LIG    1       -0.013   1.086   0.008  0.00  0.00    +0.190 C 
ATOM      9  O   LIG    1       -0.682   1.547   1.184  0.00  0.00    -0.370 OA
ENDBRANCH   1   9
BRANCH   3  10
ATOM     10  O   LIG    1        1.145   0.743   4.958  0.00  0.00    -0.540 OA
ATOM     11  H   LIG    1        2.048   0.842   5.288  0.00  0.00    +0.380 HD
ENDBRANCH   3  10
TORSDOF 2
