REMARK  Name = ZINCbu00000003uf.0
REMARK                            x       y       z     vdW  Elec       q    Type
REMARK                         _______ _______ _______ _____ _____    ______ ____
ROOT
ATOM      1  N   LIG    1       -0.012   1.005   0.008  0.00  0.00    -0.500 N 
ATOM      2  H   LIG    1        0.935   1.354   0.000  0.00  0.00    +0.430 HD
ATOM      3  H   LIG    1        0.002  -0.004   0.002  0.00  0.00    +0.430 HD
ENDROOT
BRANCH   1   7
ATOM      4  C   LIG    1       -2.302   0.592  -2.809  0.00  0.00    +0.040 C 
ATOM      5  C   LIG    1       -0.880   0.209  -3.288  0.00  0.00    +0.040 C 
ATOM      6  C   LIG    1        0.056   1.109  -2.454  0.00  0.00    +0.040 C 
ATOM      7  C   LIG    1       -0.722   1.492  -1.183  0.00  0.00    +0.160 C 
ATOM      8  C   LIG    1       -2.103   0.811  -1.289  0.00  0.00    +0.050 C 
ENDBRANCH   1   7
BRANCH   1   9
ATOM      9  C   LIG    1       -0.699   1.479   1.216  0.00  0.00    +0.160 C 
ATOM     10  C   LIG    1       -0.558   3.010   1.339  0.00  0.00    +0.050 C 
ATOM     11  C   LIG    1       -0.397   3.256   2.860  0.00  0.00    +0.040 C 
ATOM     12  C   LIG    1        0.479   2.060   3.308  0.00  0.00    +0.040 C 
ATOM     13  C   LIG    1       -0.040   0.875   2.469  0.00  0.00    +0.040 C 
ENDBRANCH   1   9
TORSDOF 2
