REMARK  Name = ZINCpk00000xJ7hD.0
REMARK                            x       y       z     vdW  Elec       q    Type
REMARK                         _______ _______ _______ _____ _____    ______ ____
ROOT
ATOM      1  C   LIG    1        2.664   4.111  -3.336  0.00  0.00    +0.230 A 
ATOM      2  N   LIG    1        2.997   3.575  -2.173  0.00  0.00    -0.430 NA
ATOM      3  C   LIG    1        1.891   3.641  -1.417  0.00  0.00    +0.150 A 
ATOM      4  N   LIG    1        0.960   4.205  -2.128  0.00  0.00    -0.340 NA
ATOM      5  O   LIG    1        1.378   4.484  -3.232  0.00  0.00    +0.100 OA
ENDROOT
BRANCH   1  10
ATOM      6  C   LIG    1        6.683   3.984  -6.433  0.00  0.00    +0.180 C 
ATOM      7  C   LIG    1        5.297   4.224  -5.892  0.00  0.00    +0.090 A 
ATOM      8  N   LIG    1        4.310   4.785  -6.544  0.00  0.00    -0.240 NA
ATOM      9  N   LIG    1        3.187   4.832  -5.709  0.00  0.00    -0.420 N 
ATOM     10  C   LIG    1        3.534   4.272  -4.513  0.00  0.00    +0.140 A 
ATOM     11  C   LIG    1        4.857   3.892  -4.612  0.00  0.00    +0.010 A 
BRANCH   9  12
ATOM     12  C   LIG    1        1.875   5.383  -6.057  0.00  0.00    +0.680 C 
ATOM     13  F   LIG    1        1.562   6.429  -5.182  0.00  0.00    -0.170 F 
ATOM     14  F   LIG    1        0.905   4.380  -5.950  0.00  0.00    -0.170 F 
ENDBRANCH   9  12
ENDBRANCH   1  10
BRANCH   3  15
ATOM     15  C   LIG    1        1.754   3.154   0.002  0.00  0.00    +0.530 C 
BRANCH  15  16
ATOM     16  N   LIG    1        1.312   1.757  -0.001  0.00  0.00    -0.440 N 
ATOM     17  N   LIG    1       -0.016   1.308   0.009  0.00  0.00    -0.280 NA
ATOM     18  C   LIG    1        0.002  -0.004   0.002  0.00  0.00    +0.300 A 
ATOM     19  C   LIG    1       -1.038  -0.967   0.006  0.00  0.00    +0.030 A 
ATOM     20  C   LIG    1       -0.723  -2.285  -0.004  0.00  0.00    +0.110 A 
ATOM     21  C   LIG    1        0.630  -2.683  -0.019  0.00  0.00    -0.020 A 
ATOM     22  C   LIG    1        1.613  -1.766  -0.023  0.00  0.00    +0.300 A 
ATOM     23  N   LIG    1        1.319  -0.423  -0.013  0.00  0.00    -0.480 N 
ATOM     24  C   LIG    1        2.110   0.669  -0.015  0.00  0.00    +0.650 A 
ATOM     25  O   LIG    1        3.328   0.673  -0.026  0.00  0.00    -0.520 OA
ENDBRANCH  15  16
ENDBRANCH   3  15
TORSDOF 4
