REMARK  Name = ZINCrD000000AtBh.0
REMARK                            x       y       z     vdW  Elec       q    Type
REMARK                         _______ _______ _______ _____ _____    ______ ____
ROOT
ATOM      1  O   LIG    1       -2.344   0.250   0.026  0.00  0.00    -0.520 OA
ATOM      2  C   LIG    1       -1.412  -0.526   0.013  0.00  0.00    +0.540 C 
ATOM      3  N   LIG    1       -1.640  -1.854   0.008  0.00  0.00    -0.710 N 
ATOM      4  H   LIG    1       -0.894  -2.474  -0.003  0.00  0.00    +0.410 HD
ENDROOT
BRANCH   3   5
ATOM      5  C   LIG    1       -3.014  -2.361   0.018  0.00  0.00    +0.380 C 
BRANCH   5   6
ATOM      6  C   LIG    1       -2.994  -3.868   0.010  0.00  0.00    +0.050 A 
ATOM      7  C   LIG    1       -3.067  -4.585   1.136  0.00  0.00    -0.050 A 
ATOM      8  S   LIG    1       -3.017  -6.294   0.705  0.00  0.00    +0.110 S 
ATOM      9  C   LIG    1       -2.889  -5.856  -0.996  0.00  0.00    +0.120 A 
ATOM     10  N   LIG    1       -2.898  -4.558  -1.103  0.00  0.00    -0.450 NA
BRANCH   9  11
ATOM     11  C   LIG    1       -2.789  -6.809  -2.123  0.00  0.00    -0.030 A 
ATOM     12  C   LIG    1       -2.698  -6.338  -3.433  0.00  0.00    +0.070 A 
ATOM     13  C   LIG    1       -2.599  -7.232  -4.479  0.00  0.00    +0.010 A 
ATOM     14  C   LIG    1       -2.601  -8.593  -4.231  0.00  0.00    +0.030 A 
ATOM     15  C   LIG    1       -2.696  -9.067  -2.935  0.00  0.00    +0.010 A 
ATOM     16  C   LIG    1       -2.790  -8.183  -1.880  0.00  0.00    +0.020 A 
ENDBRANCH   9  11
ENDBRANCH   5   6
ENDBRANCH   3   5
BRANCH   2  17
ATOM     17  C   LIG    1        0.002  -0.004   0.002  0.00  0.00    +0.100 C 
BRANCH  17  18
ATOM     18  S   LIG    1       -0.022   1.806   0.012  0.00  0.00    +0.120 S 
BRANCH  18  19
ATOM     19  C   LIG    1        1.708   2.135  -0.003  0.00  0.00    +0.190 A 
ATOM     20  N   LIG    1        2.674   1.242  -0.011  0.00  0.00    -0.340 NA
ATOM     21  N   LIG    1        3.821   1.820  -0.025  0.00  0.00    -0.030 NA
ATOM     22  N   LIG    1        3.678   3.101  -0.016  0.00  0.00    -0.070 NA
ATOM     23  N   LIG    1        2.295   3.356  -0.002  0.00  0.00    -0.350 N 
BRANCH  23  24
ATOM     24  C   LIG    1        1.631   4.662   0.012  0.00  0.00    +0.260 C 
ATOM     25  C   LIG    1        2.066   5.489  -1.215  0.00  0.00    +0.030 C 
ATOM     26  C   LIG    1        2.162   6.940  -0.680  0.00  0.00    +0.040 C 
ATOM     27  C   LIG    1        2.746   6.743   0.741  0.00  0.00    +0.030 C 
ATOM     28  C   LIG    1        2.063   5.459   1.256  0.00  0.00    +0.040 C 
ENDBRANCH  23  24
ENDBRANCH  18  19
ENDBRANCH  17  18
ENDBRANCH   2  17
TORSDOF 7
