REMARK  Name = ZINCrD0000075aqJ.1
REMARK                            x       y       z     vdW  Elec       q    Type
REMARK                         _______ _______ _______ _____ _____    ______ ____
ROOT
ATOM      1  C   LIG    1        4.457   4.428  -0.018  0.00  0.00    +0.160 A 
ATOM      2  C   LIG    1        5.746   3.917  -0.028  0.00  0.00    -0.100 A 
ATOM      3  C   LIG    1        6.832   4.773  -0.039  0.00  0.00    +0.080 A 
ATOM      4  C   LIG    1        6.636   6.140  -0.029  0.00  0.00    -0.070 A 
ATOM      5  C   LIG    1        5.347   6.658  -0.014  0.00  0.00    +0.150 A 
ATOM      6  C   LIG    1        4.256   5.800  -0.008  0.00  0.00    -0.040 A 
ENDROOT
BRANCH   5   7
ATOM      7  N   LIG    1        5.149   8.041  -0.005  0.00  0.00    -0.490 N 
ATOM      8  C   LIG    1        4.308   8.460  -1.135  0.00  0.00    +0.210 C 
ATOM      9  C   LIG    1        4.050   9.966  -1.045  0.00  0.00    +0.170 C 
ATOM     10  N   LIG    1        5.333  10.681  -1.053  0.00  0.00    -0.530 NA
ATOM     11  C   LIG    1        6.174  10.262   0.077  0.00  0.00    +0.200 C 
ATOM     12  C   LIG    1        6.432   8.757  -0.013  0.00  0.00    +0.200 C 
BRANCH  10  13
ATOM     13  C   LIG    1        5.125  12.135  -1.044  0.00  0.00    +0.320 C 
BRANCH  13  14
ATOM     14  C   LIG    1        4.071  12.498  -2.058  0.00  0.00    +0.180 A 
ATOM     15  N   LIG    1        4.262  12.707  -3.332  0.00  0.00    -0.270 NA
ATOM     16  N   LIG    1        3.143  12.995  -3.896  0.00  0.00    -0.290 NA
ATOM     17  C   LIG    1        2.187  12.984  -3.008  0.00  0.00    +0.380 A 
ATOM     18  N   LIG    1        2.748  12.663  -1.817  0.00  0.00    -0.580 N 
ATOM     19  H   LIG    1        2.294  12.572  -0.964  0.00  0.00    +0.430 HD
ENDBRANCH  13  14
ENDBRANCH  10  13
ENDBRANCH   5   7
BRANCH   1  20
ATOM     20  O   LIG    1        3.391   3.585  -0.012  0.00  0.00    -0.310 OA
BRANCH  20  21
ATOM     21  C   LIG    1        3.672   2.184  -0.022  0.00  0.00    +0.260 C 
BRANCH  21  28
ATOM     22 CL   LIG    1        3.912  -0.818  -0.040  0.00  0.00    -0.070 Cl
ATOM     23  C   LIG    1        2.397   0.029  -0.021  0.00  0.00    -0.030 A 
ATOM     24  C   LIG    1        1.208  -0.679  -0.013  0.00  0.00    +0.030 A 
ATOM     25  C   LIG    1        0.002  -0.004   0.002  0.00  0.00    +0.020 A 
ATOM     26  C   LIG    1       -0.017   1.378   0.010  0.00  0.00    +0.020 A 
ATOM     27  C   LIG    1        1.171   2.086   0.002  0.00  0.00    +0.050 A 
ATOM     28  C   LIG    1        2.377   1.412  -0.013  0.00  0.00    -0.080 A 
ENDBRANCH  21  28
ENDBRANCH  20  21
ENDBRANCH   1  20
TORSDOF 6
