REMARK  Name = ZINCrD0000075aqJ.0
REMARK                            x       y       z     vdW  Elec       q    Type
REMARK                         _______ _______ _______ _____ _____    ______ ____
ROOT
ATOM      1  C   LIG    1        4.457   4.428  -0.018  0.00  0.00    +0.150 A 
ATOM      2  C   LIG    1        5.746   3.917  -0.028  0.00  0.00    -0.100 A 
ATOM      3  C   LIG    1        6.832   4.773  -0.039  0.00  0.00    +0.080 A 
ATOM      4  C   LIG    1        6.636   6.140  -0.029  0.00  0.00    -0.080 A 
ATOM      5  C   LIG    1        5.347   6.658  -0.014  0.00  0.00    +0.150 A 
ATOM      6  C   LIG    1        4.256   5.800  -0.008  0.00  0.00    -0.040 A 
ENDROOT
BRANCH   5   7
ATOM      7  N   LIG    1        5.149   8.041  -0.005  0.00  0.00    -0.490 N 
ATOM      8  C   LIG    1        4.308   8.460  -1.135  0.00  0.00    +0.200 C 
ATOM      9  C   LIG    1        4.050   9.966  -1.045  0.00  0.00    +0.200 C 
ATOM     10  N   LIG    1        5.333  10.681  -1.053  0.00  0.00    -0.540 NA
ATOM     11  C   LIG    1        6.174  10.262   0.077  0.00  0.00    +0.200 C 
ATOM     12  C   LIG    1        6.432   8.757  -0.013  0.00  0.00    +0.200 C 
BRANCH  10  13
ATOM     13  C   LIG    1        5.125  12.135  -1.044  0.00  0.00    +0.320 C 
BRANCH  13  14
ATOM     14  C   LIG    1        4.474  12.558  -2.336  0.00  0.00    +0.230 A 
ATOM     15  N   LIG    1        5.106  12.917  -3.422  0.00  0.00    -0.300 NA
ATOM     16  N   LIG    1        4.124  13.225  -4.379  0.00  0.00    -0.480 N 
ATOM     17  H   LIG    1        4.274  13.521  -5.290  0.00  0.00    +0.440 HD
ATOM     18  C   LIG    1        2.937  13.032  -3.779  0.00  0.00    +0.480 A 
ATOM     19  N   LIG    1        3.162  12.632  -2.553  0.00  0.00    -0.540 NA
ENDBRANCH  13  14
ENDBRANCH  10  13
ENDBRANCH   5   7
BRANCH   1  20
ATOM     20  O   LIG    1        3.391   3.585  -0.012  0.00  0.00    -0.310 OA
BRANCH  20  21
ATOM     21  C   LIG    1        3.672   2.184  -0.022  0.00  0.00    +0.260 C 
BRANCH  21  28
ATOM     22 CL   LIG    1        3.912  -0.818  -0.040  0.00  0.00    -0.070 Cl
ATOM     23  C   LIG    1        2.397   0.029  -0.021  0.00  0.00    -0.030 A 
ATOM     24  C   LIG    1        1.208  -0.679  -0.013  0.00  0.00    +0.030 A 
ATOM     25  C   LIG    1        0.002  -0.004   0.002  0.00  0.00    +0.020 A 
ATOM     26  C   LIG    1       -0.017   1.378   0.010  0.00  0.00    +0.020 A 
ATOM     27  C   LIG    1        1.171   2.086   0.002  0.00  0.00    +0.050 A 
ATOM     28  C   LIG    1        2.377   1.412  -0.013  0.00  0.00    -0.080 A 
ENDBRANCH  21  28
ENDBRANCH  20  21
ENDBRANCH   1  20
TORSDOF 6
