REMARK  Name = ZINCrH000004tPaJ.0
REMARK                            x       y       z     vdW  Elec       q    Type
REMARK                         _______ _______ _______ _____ _____    ______ ____
ROOT
ATOM      1  O   LIG    1       -1.468   2.090   3.808  0.00  0.00    -0.510 OA
ATOM      2  C   LIG    1       -0.473   1.407   3.684  0.00  0.00    +0.510 C 
ATOM      3  N   LIG    1       -0.020   1.094   2.454  0.00  0.00    -0.730 N 
ATOM      4  H   LIG    1        0.775   0.547   2.354  0.00  0.00    +0.400 HD
ENDROOT
BRANCH   3   5
ATOM      5  C   LIG    1       -0.729   1.579   1.267  0.00  0.00    +0.270 C 
BRANCH   5   6
ATOM      6  C   LIG    1       -0.013   1.086   0.008  0.00  0.00    +0.090 C 
BRANCH   6   7
ATOM      7  C   LIG    1       -0.742   1.585  -1.213  0.00  0.00    -0.060 A 
ATOM      8  C   LIG    1       -1.667   0.798  -1.825  0.00  0.00    +0.040 A 
ATOM      9  C   LIG    1       -2.353   1.240  -2.955  0.00  0.00    +0.020 A 
ATOM     10  C   LIG    1       -2.116   2.474  -3.478  0.00  0.00    +0.030 A 
ATOM     11  C   LIG    1       -1.167   3.314  -2.872  0.00  0.00    -0.100 A 
ATOM     12  C   LIG    1       -0.892   4.597  -3.381  0.00  0.00    +0.080 A 
ATOM     13  C   LIG    1        0.032   5.364  -2.730  0.00  0.00    -0.040 A 
ATOM     14  C   LIG    1        0.683   4.863  -1.605  0.00  0.00    +0.290 A 
ATOM     15  N   LIG    1        0.428   3.666  -1.137  0.00  0.00    -0.470 NA
ATOM     16  C   LIG    1       -0.472   2.868  -1.720  0.00  0.00    +0.130 A 
ENDBRANCH   6   7
ENDBRANCH   5   6
ENDBRANCH   3   5
BRANCH   2  17
ATOM     17  C   LIG    1        0.256   0.907   4.905  0.00  0.00    +0.220 C 
BRANCH  17  18
ATOM     18  O   LIG    1       -0.413   1.368   6.080  0.00  0.00    -0.350 OA
BRANCH  18  19
ATOM     19  C   LIG    1        0.200   0.948   7.301  0.00  0.00    +0.310 C 
BRANCH  19  20
ATOM     20  C   LIG    1       -0.584   1.488   8.469  0.00  0.00    +0.080 A 
ATOM     21  N   LIG    1       -1.560   0.876   9.025  0.00  0.00    -0.450 NA
ATOM     22  C   LIG    1       -2.169   1.477  10.065  0.00  0.00    +0.080 A 
ATOM     23  C   LIG    1       -3.250   1.035  10.853  0.00  0.00    +0.080 A 
ATOM     24  C   LIG    1       -3.725   1.808  11.869  0.00  0.00    +0.030 A 
ATOM     25  C   LIG    1       -3.155   3.042  12.148  0.00  0.00    +0.040 A 
ATOM     26  C   LIG    1       -2.096   3.499  11.395  0.00  0.00    +0.060 A 
ATOM     27  C   LIG    1       -1.598   2.723  10.352  0.00  0.00    -0.180 A 
ATOM     28  S   LIG    1       -0.284   2.995   9.212  0.00  0.00    +0.130 S 
ENDBRANCH  19  20
ENDBRANCH  18  19
ENDBRANCH  17  18
ENDBRANCH   2  17
TORSDOF 7
