REMARK  Name = ZINCpe000000YCnr.0
REMARK                            x       y       z     vdW  Elec       q    Type
REMARK                         _______ _______ _______ _____ _____    ______ ____
ROOT
ATOM      1  C   LIG    1        2.885  -0.403   2.277  0.00  0.00    +0.340 A 
ATOM      2  N   LIG    1        3.411   0.461   3.115  0.00  0.00    -0.500 NA
ATOM      3  C   LIG    1        4.132   0.082   4.174  0.00  0.00    +0.150 A 
ATOM      4  C   LIG    1        4.683   1.029   5.055  0.00  0.00    +0.040 A 
ATOM      5  C   LIG    1        5.415   0.612   6.125  0.00  0.00    +0.040 A 
ATOM      6  C   LIG    1        5.628  -0.743   6.365  0.00  0.00    +0.010 A 
ATOM      7  C   LIG    1        5.109  -1.690   5.532  0.00  0.00    +0.070 A 
ATOM      8  C   LIG    1        4.353  -1.295   4.423  0.00  0.00    -0.080 A 
ATOM      9  C   LIG    1        3.776  -2.276   3.502  0.00  0.00    -0.050 A 
ATOM     10  C   LIG    1        3.038  -1.788   2.434  0.00  0.00    +0.010 A 
ENDROOT
BRANCH   1  13
ATOM     11  C   LIG    1        1.319   2.021  -0.022  0.00  0.00    +0.170 C 
ATOM     12  C   LIG    1        2.088   1.539   1.211  0.00  0.00    +0.210 C 
ATOM     13  N   LIG    1        2.149   0.070   1.201  0.00  0.00    -0.470 N 
ATOM     14  C   LIG    1        0.797  -0.507   1.193  0.00  0.00    +0.180 C 
ATOM     15  C   LIG    1        0.041  -0.005  -0.040  0.00  0.00    +0.240 C 
ATOM     16  O   LIG    1        0.019   1.425  -0.030  0.00  0.00    -0.350 OA
BRANCH  11  20
ATOM     17  N   LIG    1        2.282   4.299  -0.065  0.00  0.00    -0.850 N 
ATOM     18  H   LIG    1        2.196   5.264  -0.036  0.00  0.00    +0.410 HD
ATOM     19  H   LIG    1        3.159   3.893  -0.157  0.00  0.00    +0.400 HD
ATOM     20  C   LIG    1        1.185   3.521   0.022  0.00  0.00    +0.530 C 
ATOM     21  O   LIG    1        0.090   4.029   0.137  0.00  0.00    -0.520 OA
ENDBRANCH  11  20
ENDBRANCH   1  13
BRANCH   9  22
ATOM     22  C   LIG    1        3.968  -3.728   3.705  0.00  0.00    +0.570 C 
ATOM     23  N   LIG    1        3.328  -4.610   2.913  0.00  0.00    -0.690 N 
ATOM     24  H   LIG    1        2.741  -4.293   2.209  0.00  0.00    +0.400 HD
ATOM     25  O   LIG    1        4.704  -4.127   4.587  0.00  0.00    -0.520 OA
BRANCH  23  26
ATOM     26  C   LIG    1        3.518  -6.049   3.114  0.00  0.00    +0.210 C 
ATOM     27  C   LIG    1        3.719  -6.916   1.869  0.00  0.00    +0.020 C 
ATOM     28  C   LIG    1        2.401  -6.982   2.643  0.00  0.00    +0.020 C 
ENDBRANCH  23  26
ENDBRANCH   9  22
TORSDOF 4
