REMARK  Name = ZINCtV000002NVdf.0
REMARK                            x       y       z     vdW  Elec       q    Type
REMARK                         _______ _______ _______ _____ _____    ______ ____
ROOT
ATOM      1  C   LIG    1        0.601  -4.732  -0.034  0.00  0.00    +0.070 C 
ENDROOT
BRANCH   1   2
ATOM      2  C   LIG    1        1.377  -4.947   1.240  0.00  0.00    -0.090 A 
ATOM      3  C   LIG    1        0.733  -4.883   2.461  0.00  0.00    +0.030 A 
ATOM      4  C   LIG    1        1.444  -5.084   3.629  0.00  0.00    +0.000 A 
ATOM      5  C   LIG    1        2.801  -5.341   3.576  0.00  0.00    +0.010 A 
ATOM      6  C   LIG    1        3.447  -5.399   2.356  0.00  0.00    +0.000 A 
ATOM      7  C   LIG    1        2.735  -5.202   1.187  0.00  0.00    +0.060 A 
ENDBRANCH   1   2
BRANCH   1   9
ATOM      8  O   LIG    1       -1.623  -5.496   0.155  0.00  0.00    -0.490 OA
ATOM      9  C   LIG    1       -0.482  -5.774  -0.145  0.00  0.00    +0.540 C 
ATOM     10  N   LIG    1       -0.181  -7.015  -0.577  0.00  0.00    -0.660 N 
ATOM     11  H   LIG    1        0.718  -7.218  -0.880  0.00  0.00    +0.420 HD
BRANCH  10  12
ATOM     12  C   LIG    1       -1.165  -8.009  -0.588  0.00  0.00    +0.170 A 
ATOM     13  C   LIG    1       -0.825  -9.328  -0.315  0.00  0.00    +0.020 A 
ATOM     14  C   LIG    1       -1.800 -10.307  -0.321  0.00  0.00    -0.000 A 
ATOM     15  C   LIG    1       -3.113  -9.977  -0.610  0.00  0.00    +0.040 A 
ATOM     16  C   LIG    1       -3.454  -8.665  -0.887  0.00  0.00    -0.010 A 
ATOM     17 CL   LIG    1       -5.101  -8.255  -1.248  0.00  0.00    -0.050 Cl
ATOM     18 CL   LIG    1       -1.377 -11.954   0.028  0.00  0.00    -0.050 Cl
ATOM     19  C   LIG    1       -2.483  -7.681  -0.877  0.00  0.00    +0.050 A 
ENDBRANCH  10  12
ENDBRANCH   1   9
BRANCH   1  20
ATOM     20  S   LIG    1       -0.147  -3.084  -0.014  0.00  0.00    +0.070 S 
BRANCH  20  21
ATOM     21  C   LIG    1        1.306  -2.087  -0.034  0.00  0.00    +0.190 A 
ATOM     22  N   LIG    1        2.512  -2.641  -0.056  0.00  0.00    -0.530 NA
ATOM     23  C   LIG    1        3.611  -1.903  -0.071  0.00  0.00    +0.510 A 
ATOM     24  N   LIG    1        3.590  -0.592  -0.065  0.00  0.00    -0.510 NA
ATOM     25  C   LIG    1        2.424   0.071  -0.042  0.00  0.00    +0.170 A 
ATOM     26  C   LIG    1        2.365   1.471  -0.034  0.00  0.00    +0.040 A 
ATOM     27  C   LIG    1        1.153   2.094  -0.011  0.00  0.00    +0.060 A 
ATOM     28  C   LIG    1       -0.030   1.361   0.005  0.00  0.00    +0.030 A 
ATOM     29  C   LIG    1       -0.009  -0.004  -0.002  0.00  0.00    +0.060 A 
ATOM     30  C   LIG    1        1.219  -0.673  -0.026  0.00  0.00    -0.140 A 
ENDBRANCH  20  21
ENDBRANCH   1  20
TORSDOF 5
