REMARK  Name = ZINCpe000000YCxW.0
REMARK                            x       y       z     vdW  Elec       q    Type
REMARK                         _______ _______ _______ _____ _____    ______ ____
ROOT
ATOM      1  N   LIG    1       -0.336  -0.248  -2.439  0.00  0.00    -0.640 N 
ATOM      2  H   LIG    1       -0.188   0.706  -2.541  0.00  0.00    +0.420 HD
ATOM      3  C   LIG    1       -0.315  -1.053  -3.519  0.00  0.00    +0.500 C 
ATOM      4  O   LIG    1       -0.500  -2.244  -3.391  0.00  0.00    -0.480 OA
ENDROOT
BRANCH   1   6
ATOM      5  C   LIG    1       -0.609  -0.056  -0.023  0.00  0.00    -0.210 A 
ATOM      6  C   LIG    1       -0.568  -0.782  -1.181  0.00  0.00    +0.040 A 
ATOM      7  S   LIG    1       -0.838  -2.433  -0.865  0.00  0.00    +0.300 S 
ATOM      8  C   LIG    1       -1.022  -2.159   0.860  0.00  0.00    -0.250 A 
ATOM      9  C   LIG    1       -1.309  -3.241   1.884  0.00  0.00    +0.120 C 
ATOM     10  C   LIG    1       -0.990  -2.695   3.279  0.00  0.00    +0.020 C 
ATOM     11  C   LIG    1       -1.676  -1.337   3.452  0.00  0.00    +0.020 C 
ATOM     12  C   LIG    1       -0.980  -0.304   2.564  0.00  0.00    +0.090 C 
ATOM     13  C   LIG    1       -0.876  -0.862   1.153  0.00  0.00    -0.050 A 
BRANCH   5  17
ATOM     14  N   LIG    1       -1.462   2.226  -0.109  0.00  0.00    -0.850 N 
ATOM     15  H   LIG    1       -1.330   3.187  -0.078  0.00  0.00    +0.400 HD
ATOM     16  H   LIG    1       -2.353   1.863  -0.235  0.00  0.00    +0.400 HD
ATOM     17  C   LIG    1       -0.409   1.396   0.024  0.00  0.00    +0.590 C 
ATOM     18  O   LIG    1        0.709   1.852   0.177  0.00  0.00    -0.530 OA
ENDBRANCH   5  17
ENDBRANCH   1   6
BRANCH   3  19
ATOM     19  C   LIG    1       -0.063  -0.472  -4.887  0.00  0.00    +0.230 C 
BRANCH  19  20
ATOM     20  N   LIG    1        0.058  -1.560  -5.866  0.00  0.00    -0.520 NA
ATOM     21  C   LIG    1        0.053  -1.037  -7.238  0.00  0.00    +0.180 C 
ATOM     22  C   LIG    1        0.034  -2.202  -8.230  0.00  0.00    +0.050 C 
ATOM     23  C   LIG    1        1.268  -3.079  -8.003  0.00  0.00    -0.010 C 
ATOM     24  C   LIG    1        1.275  -3.572  -6.554  0.00  0.00    +0.070 C 
ATOM     25  C   LIG    1        1.258  -2.367  -5.610  0.00  0.00    +0.170 C 
BRANCH  23  26
ATOM     26  C   LIG    1        1.226  -4.261  -8.937  0.00  0.00    +0.520 C 
ATOM     27  O   LIG    1        1.203  -5.388  -8.489  0.00  0.00    -0.540 OA
ATOM     28  N   LIG    1        1.214  -4.067 -10.271  0.00  0.00    -0.860 N 
ATOM     29  H   LIG    1        1.186  -4.827 -10.872  0.00  0.00    +0.400 HD
ATOM     30  H   LIG    1        1.232  -3.166 -10.629  0.00  0.00    +0.400 HD
ENDBRANCH  23  26
ENDBRANCH  19  20
ENDBRANCH   3  19
TORSDOF 5
