REMARK  Name = ZINCrH000004jqJY.0
REMARK                            x       y       z     vdW  Elec       q    Type
REMARK                         _______ _______ _______ _____ _____    ______ ____
ROOT
ATOM      1  C   LIG    1        0.784  -0.149   0.438  0.00  0.00    +0.340 C 
ATOM      2  C   LIG    1        1.466  -0.977   1.531  0.00  0.00    +0.050 C 
ATOM      3  C   LIG    1        1.270  -2.466   1.236  0.00  0.00    +0.020 C 
ATOM      4  C   LIG    1        1.917  -2.811  -0.107  0.00  0.00    +0.010 C 
ATOM      5  C   LIG    1        1.240  -2.004  -1.219  0.00  0.00    +0.270 C 
ATOM      6  N   LIG    1        1.298  -0.578  -0.870  0.00  0.00    -0.620 N 
ATOM      7  C   LIG    1        1.813   0.320  -1.733  0.00  0.00    +0.700 C 
ATOM      8  N   LIG    1        2.165  -0.065  -2.976  0.00  0.00    -0.670 N 
ATOM      9  H   LIG    1        1.969  -0.966  -3.278  0.00  0.00    +0.410 HD
ATOM     10  O   LIG    1        1.959   1.478  -1.391  0.00  0.00    -0.530 OA
ENDROOT
BRANCH   8  11
ATOM     11  C   LIG    1        2.811   0.832  -3.828  0.00  0.00    +0.340 A 
ATOM     12  C   LIG    1        4.017   0.643  -4.428  0.00  0.00    -0.200 A 
ATOM     13  C   LIG    1        4.295   1.777  -5.196  0.00  0.00    -0.010 A 
ATOM     14  N   LIG    1        3.303   2.619  -5.059  0.00  0.00    -0.220 NA
ATOM     15  C   LIG    1        4.896  -0.573  -4.292  0.00  0.00    +0.130 C 
ATOM     16  N   LIG    1        2.354   2.048  -4.202  0.00  0.00    -0.340 N 
ATOM     17  C   LIG    1        1.090   2.660  -3.785  0.00  0.00    +0.370 C 
BRANCH  13  18
ATOM     18  C   LIG    1        5.528   1.996  -6.034  0.00  0.00    +0.560 C 
ATOM     19  F   LIG    1        5.552   1.067  -7.080  0.00  0.00    -0.170 F 
ATOM     20  F   LIG    1        6.667   1.831  -5.239  0.00  0.00    -0.160 F 
ATOM     21  F   LIG    1        5.510   3.292  -6.561  0.00  0.00    -0.170 F 
ENDBRANCH  13  18
ENDBRANCH   8  11
BRANCH   1  26
ATOM     22  N   LIG    1        0.175   2.302   0.736  0.00  0.00    -0.450 N 
ATOM     23  C   LIG    1        0.861   3.471   0.927  0.00  0.00    +0.110 A 
ATOM     24  C   LIG    1        2.170   3.156   0.938  0.00  0.00    +0.150 A 
ATOM     25  N   LIG    1        2.280   1.831   0.764  0.00  0.00    -0.450 NA
ATOM     26  C   LIG    1        1.089   1.312   0.646  0.00  0.00    +0.220 A 
BRANCH  22  28
ATOM     27  C   LIG    1       -1.838   1.786   2.027  0.00  0.00    +0.040 C 
ATOM     28  C   LIG    1       -1.280   2.152   0.650  0.00  0.00    +0.270 C 
ENDBRANCH  22  28
ENDBRANCH   1  26
TORSDOF 4
