REMARK  Name = ZINCrD00000F5Lpa.0
REMARK                            x       y       z     vdW  Elec       q    Type
REMARK                         _______ _______ _______ _____ _____    ______ ____
ROOT
ATOM      1  N   LIG    1       -2.019  -0.488  -1.327  0.00  0.00    -0.720 N 
ATOM      2  H   LIG    1       -2.026  -1.030  -0.522  0.00  0.00    +0.400 HD
ATOM      3  C   LIG    1       -1.885  -1.075  -2.533  0.00  0.00    +0.600 C 
ATOM      4  O   LIG    1       -1.877  -0.395  -3.542  0.00  0.00    -0.520 OA
ENDROOT
BRANCH   1  14
ATOM      5  C   LIG    1       -4.579   4.059   3.559  0.00  0.00    +0.110 C 
ATOM      6  C   LIG    1       -4.336   3.986   2.074  0.00  0.00    +0.530 C 
ATOM      7  N   LIG    1       -3.579   2.995   1.562  0.00  0.00    -0.620 N 
ATOM      8  C   LIG    1       -3.247   2.807   0.140  0.00  0.00    +0.280 C 
ATOM      9  C   LIG    1       -2.928   1.307   0.019  0.00  0.00    -0.020 C 
ATOM     10  C   LIG    1       -2.154   1.040   1.323  0.00  0.00    +0.010 C 
ATOM     11  C   LIG    1       -0.737   1.583   1.256  0.00  0.00    +0.020 C 
ATOM     12  C   LIG    1       -0.013   1.086   0.008  0.00  0.00    +0.010 C 
ATOM     13  C   LIG    1       -0.764   1.599  -1.226  0.00  0.00    +0.030 C 
ATOM     14  C   LIG    1       -2.156   0.967  -1.231  0.00  0.00    +0.260 C 
ATOM     15  C   LIG    1       -2.932   1.924   2.336  0.00  0.00    +0.250 C 
ATOM     16  O   LIG    1       -4.822   4.820   1.339  0.00  0.00    -0.540 OA
ENDBRANCH   1  14
BRANCH   3  17
ATOM     17  C   LIG    1       -1.748  -2.530  -2.629  0.00  0.00    -0.310 A 
ATOM     18  C   LIG    1       -1.611  -3.253  -3.783  0.00  0.00    +0.330 A 
ATOM     19  N   LIG    1       -1.502  -4.542  -3.595  0.00  0.00    -0.460 NA
ATOM     20  C   LIG    1       -1.548  -4.971  -2.365  0.00  0.00    +0.100 A 
ATOM     21  S   LIG    1       -1.739  -3.664  -1.280  0.00  0.00    +0.190 S 
BRANCH  20  22
ATOM     22  C   LIG    1       -1.449  -6.390  -1.964  0.00  0.00    -0.080 A 
ATOM     23  C   LIG    1       -1.503  -6.743  -0.615  0.00  0.00    +0.060 A 
ATOM     24  C   LIG    1       -1.415  -8.070  -0.248  0.00  0.00    +0.010 A 
ATOM     25  C   LIG    1       -1.262  -9.050  -1.212  0.00  0.00    +0.070 A 
ATOM     26  C   LIG    1       -1.201  -8.710  -2.551  0.00  0.00    -0.010 A 
ATOM     27  C   LIG    1       -1.293  -7.385  -2.935  0.00  0.00    +0.150 A 
ATOM     28  F   LIG    1       -1.233  -7.052  -4.243  0.00  0.00    -0.110 F 
ENDBRANCH  20  22
ENDBRANCH   3  17
TORSDOF 3
