REMARK  Name = ZINCqH0000007C40.0
REMARK                            x       y       z     vdW  Elec       q    Type
REMARK                         _______ _______ _______ _____ _____    ______ ____
ROOT
ATOM      1  C   LIG    1       -0.469  -2.051  -0.290  0.00  0.00    +0.210 A 
ATOM      2  N   LIG    1        0.666  -1.955   0.352  0.00  0.00    -0.370 NA
ATOM      3  O   LIG    1        0.949  -0.788   0.527  0.00  0.00    +0.090 OA
ATOM      4  C   LIG    1        0.002  -0.004   0.002  0.00  0.00    +0.190 A 
ATOM      5  N   LIG    1       -0.907  -0.792  -0.516  0.00  0.00    -0.450 NA
ENDROOT
BRANCH   1  10
ATOM      6  C   LIG    1       -1.222  -5.708  -0.762  0.00  0.00    +0.130 A 
ATOM      7  C   LIG    1       -2.430  -5.648  -1.442  0.00  0.00    -0.060 A 
ATOM      8  C   LIG    1       -2.997  -4.424  -1.746  0.00  0.00    +0.060 A 
ATOM      9  C   LIG    1       -2.364  -3.255  -1.375  0.00  0.00    +0.030 A 
ATOM     10  C   LIG    1       -1.151  -3.306  -0.691  0.00  0.00    +0.020 A 
ATOM     11  C   LIG    1       -0.578  -4.539  -0.390  0.00  0.00    +0.020 A 
BRANCH   6  13
ATOM     12  C   LIG    1       -1.383  -8.077  -0.885  0.00  0.00    +0.250 C 
ATOM     13  O   LIG    1       -0.668  -6.913  -0.466  0.00  0.00    -0.310 OA
ENDBRANCH   6  13
ENDBRANCH   1  10
BRANCH   4  14
ATOM     14  C   LIG    1       -0.018   1.503   0.010  0.00  0.00    +0.360 C 
BRANCH  14  15
ATOM     15  N   LIG    1       -0.706   1.976   1.219  0.00  0.00    -0.490 N 
ATOM     16  C   LIG    1       -1.013   3.405   1.122  0.00  0.00    +0.240 C 
ATOM     17  C   LIG    1        0.292   4.198   1.265  0.00  0.00    -0.010 C 
ATOM     18  C   LIG    1        0.788   4.034   2.704  0.00  0.00    +0.080 C 
ATOM     19  C   LIG    1        0.738   2.579   3.095  0.00  0.00    -0.070 A 
ATOM     20  C   LIG    1        1.441   2.182   4.221  0.00  0.00    -0.010 A 
ATOM     21  C   LIG    1        1.424   0.858   4.630  0.00  0.00    +0.130 A 
ATOM     22  C   LIG    1        0.699  -0.076   3.906  0.00  0.00    -0.060 A 
ATOM     23  C   LIG    1        0.000   0.316   2.783  0.00  0.00    +0.040 A 
ATOM     24  C   LIG    1        0.017   1.648   2.368  0.00  0.00    +0.060 A 
BRANCH  21  25
ATOM     25  O   LIG    1        2.116   0.477   5.736  0.00  0.00    -0.320 OA
ATOM     26  C   LIG    1        2.052  -0.905   6.097  0.00  0.00    +0.250 C 
ENDBRANCH  21  25
ENDBRANCH  14  15
ENDBRANCH   4  14
TORSDOF 5
