REMARK  Name = ZINCvU0000000515.0
REMARK                            x       y       z     vdW  Elec       q    Type
REMARK                         _______ _______ _______ _____ _____    ______ ____
ROOT
ATOM      1  N   LIG    1       -1.129  -0.804   0.009  0.00  0.00    -0.620 N 
ATOM      2  H   LIG    1       -1.040  -1.770   0.003  0.00  0.00    +0.420 HD
ATOM      3  C   LIG    1       -2.353  -0.240   0.024  0.00  0.00    +0.540 C 
ATOM      4  O   LIG    1       -2.465   0.968   0.031  0.00  0.00    -0.480 OA
ENDROOT
BRANCH   1   6
ATOM      5  C   LIG    1        1.287  -0.478  -0.013  0.00  0.00    -0.180 A 
ATOM      6  C   LIG    1        0.002  -0.004   0.002  0.00  0.00    +0.040 A 
ATOM      7  S   LIG    1       -0.021   1.699   0.011  0.00  0.00    +0.340 S 
ATOM      8  C   LIG    1        1.730   1.807  -0.005  0.00  0.00    -0.080 A 
ATOM      9  C   LIG    1        2.280   0.585  -0.017  0.00  0.00    +0.020 A 
BRANCH   9  10
ATOM     10  C   LIG    1        3.738   0.343  -0.031  0.00  0.00    -0.140 A 
ATOM     11  C   LIG    1        4.613   0.914  -0.883  0.00  0.00    +0.030 A 
ATOM     12  C   LIG    1        5.928   0.535  -0.699  0.00  0.00    +0.010 A 
ATOM     13  C   LIG    1        6.130  -0.345   0.285  0.00  0.00    -0.040 A 
ATOM     14  S   LIG    1        4.599  -0.739   1.055  0.00  0.00    +0.130 S 
ENDBRANCH   9  10
BRANCH   5  15
ATOM     15  C   LIG    1        1.625  -1.901  -0.024  0.00  0.00    +0.530 C 
ATOM     16  O   LIG    1        1.756  -2.487  -1.082  0.00  0.00    -0.480 OA
BRANCH  15  18
ATOM     17  C   LIG    1        2.120  -3.952   1.054  0.00  0.00    +0.260 C 
ATOM     18  O   LIG    1        1.791  -2.564   1.140  0.00  0.00    -0.340 OA
ENDBRANCH  15  18
ENDBRANCH   5  15
ENDBRANCH   1   6
BRANCH   3  19
ATOM     19  C   LIG    1       -3.584  -1.110   0.031  0.00  0.00    +0.130 C 
BRANCH  19  20
ATOM     20  S   LIG    1       -5.065  -0.063   0.051  0.00  0.00    +0.100 S 
BRANCH  20  21
ATOM     21  C   LIG    1       -6.380  -1.236   0.058  0.00  0.00    +0.200 A 
ATOM     22  N   LIG    1       -6.244  -2.537   0.044  0.00  0.00    -0.290 NA
ATOM     23  N   LIG    1       -7.524  -3.105   0.059  0.00  0.00    -0.260 NA
ATOM     24  C   LIG    1       -8.394  -2.125   0.072  0.00  0.00    +0.180 A 
ATOM     25  S   LIG    1      -10.122  -1.754   0.091  0.00  0.00    +0.210 S 
ATOM     26  C   LIG    1       -9.896   0.000   0.098  0.00  0.00    -0.140 A 
ATOM     27  C   LIG    1      -10.797   1.053   0.111  0.00  0.00    +0.100 A 
ATOM     28  C   LIG    1      -10.333   2.354   0.114  0.00  0.00    +0.050 A 
ATOM     29  C   LIG    1       -8.969   2.591   0.103  0.00  0.00    +0.070 A 
ATOM     30  C   LIG    1       -8.073   1.547   0.088  0.00  0.00    +0.050 A 
ATOM     31  C   LIG    1       -8.523   0.219   0.086  0.00  0.00    +0.100 A 
ATOM     32  N   LIG    1       -7.732  -0.937   0.072  0.00  0.00    -0.440 N 
ENDBRANCH  20  21
ENDBRANCH  19  20
ENDBRANCH   3  19
TORSDOF 7
