REMARK  Name = ZINCrD000000fCQd.0
REMARK                            x       y       z     vdW  Elec       q    Type
REMARK                         _______ _______ _______ _____ _____    ______ ____
ROOT
ATOM      1  C   LIG    1       -3.067   4.299  -0.018  0.00  0.00    +0.530 C 
ATOM      2  N   LIG    1       -3.392   5.532  -0.455  0.00  0.00    -0.670 N 
ATOM      3  H   LIG    1       -2.797   6.006  -1.056  0.00  0.00    +0.410 HD
ATOM      4  O   LIG    1       -3.854   3.667   0.654  0.00  0.00    -0.480 OA
ENDROOT
BRANCH   1   9
ATOM      5  C   LIG    1        1.630   6.115  -0.528  0.00  0.00    +0.100 C 
ATOM      6  C   LIG    1        1.750   4.620  -0.379  0.00  0.00    +0.520 C 
ATOM      7  N   LIG    1        0.672   3.888  -0.036  0.00  0.00    -0.560 N 
ATOM      8  C   LIG    1       -0.612   4.530   0.294  0.00  0.00    +0.290 C 
ATOM      9  C   LIG    1       -1.726   3.706  -0.366  0.00  0.00    +0.170 C 
ATOM     10  O   LIG    1       -1.653   2.362   0.119  0.00  0.00    -0.280 OA
ATOM     11  C   LIG    1       -0.443   1.744   0.090  0.00  0.00    +0.090 A 
ATOM     12  C   LIG    1       -0.379   0.360   0.137  0.00  0.00    +0.020 A 
ATOM     13  C   LIG    1        0.849  -0.276   0.117  0.00  0.00    +0.030 A 
ATOM     14  C   LIG    1        2.016   0.461   0.051  0.00  0.00    +0.000 A 
ATOM     15  C   LIG    1        1.961   1.842   0.002  0.00  0.00    +0.050 A 
ATOM     16  C   LIG    1        0.734   2.485   0.020  0.00  0.00    +0.070 A 
ATOM     17  O   LIG    1        2.818   4.076  -0.568  0.00  0.00    -0.510 OA
ENDBRANCH   1   9
BRANCH   2  18
ATOM     18  C   LIG    1       -4.590   6.129  -0.039  0.00  0.00    +0.130 A 
ATOM     19  C   LIG    1       -5.292   6.955  -0.907  0.00  0.00    +0.040 A 
ATOM     20  C   LIG    1       -6.474   7.539  -0.498  0.00  0.00    -0.030 A 
ATOM     21  C   LIG    1       -6.955   7.310   0.783  0.00  0.00    +0.090 A 
ATOM     22  C   LIG    1       -6.251   6.489   1.652  0.00  0.00    +0.050 A 
ATOM     23  C   LIG    1       -5.071   5.900   1.243  0.00  0.00    +0.070 A 
BRANCH  21  24
ATOM     24  O   LIG    1       -8.117   7.890   1.187  0.00  0.00    -0.310 OA
BRANCH  24  25
ATOM     25  C   LIG    1       -8.789   8.724   0.240  0.00  0.00    +0.600 C 
ATOM     26  F   LIG    1       -7.950   9.780  -0.130  0.00  0.00    -0.160 F 
ATOM     27  F   LIG    1       -9.957   9.235   0.816  0.00  0.00    -0.130 F 
ATOM     28  F   LIG    1       -9.118   7.971  -0.892  0.00  0.00    -0.160 F 
ENDBRANCH  24  25
ENDBRANCH  21  24
ENDBRANCH   2  18
TORSDOF 4
