REMARK  Name = ZINCrD00000hQ5oz.0
REMARK                            x       y       z     vdW  Elec       q    Type
REMARK                         _______ _______ _______ _____ _____    ______ ____
ROOT
ATOM      1  O   LIG    1        3.225   0.341  -3.348  0.00  0.00    -0.520 OA
ATOM      2  C   LIG    1        2.859  -0.454  -2.507  0.00  0.00    +0.540 C 
ATOM      3  N   LIG    1        3.087  -1.771  -2.680  0.00  0.00    -0.620 N 
ATOM      4  C   LIG    1        3.846  -2.371  -3.788  0.00  0.00    +0.250 C 
ATOM      5  C   LIG    1        3.869  -3.896  -3.554  0.00  0.00    +0.030 C 
ATOM      6  C   LIG    1        3.598  -4.020  -2.031  0.00  0.00    +0.250 C 
ATOM      7  C   LIG    1        2.613  -2.849  -1.794  0.00  0.00    +0.260 C 
ENDROOT
BRANCH   2   8
ATOM      8  C   LIG    1        2.149   0.032  -1.270  0.00  0.00    -0.010 C 
ATOM      9  C   LIG    1        0.714  -0.499  -1.264  0.00  0.00    +0.020 C 
ATOM     10  C   LIG    1       -0.007  -0.006  -0.007  0.00  0.00    +0.010 C 
ATOM     11  C   LIG    1       -0.029   1.523   0.001  0.00  0.00    +0.010 C 
ATOM     12  C   LIG    1        1.406   2.054  -0.006  0.00  0.00    -0.010 C 
ATOM     13  C   LIG    1        1.383   3.584   0.002  0.00  0.00    +0.010 C 
ATOM     14  C   LIG    1        0.647   4.090  -1.240  0.00  0.00    +0.000 C 
ATOM     15  C   LIG    1        1.368   3.597  -2.496  0.00  0.00    +0.000 C 
ATOM     16  C   LIG    1        1.390   2.067  -2.504  0.00  0.00    +0.020 C 
ATOM     17  C   LIG    1        2.127   1.561  -1.262  0.00  0.00    +0.010 C 
ENDBRANCH   2   8
BRANCH   6  18
ATOM     18  N   LIG    1        2.972  -5.306  -1.712  0.00  0.00    -0.690 N 
ATOM     19  H   LIG    1        2.008  -5.399  -1.753  0.00  0.00    +0.420 HD
BRANCH  18  20
ATOM     20  C   LIG    1        3.762  -6.393  -1.350  0.00  0.00    +0.420 A 
ATOM     21  N   LIG    1        5.066  -6.260  -1.302  0.00  0.00    -0.350 NA
ATOM     22  N   LIG    1        5.878  -7.338  -0.937  0.00  0.00    -0.250 N 
ATOM     23  C   LIG    1        7.227  -7.479  -0.803  0.00  0.00    +0.170 A 
ATOM     24  C   LIG    1        7.461  -8.759  -0.425  0.00  0.00    +0.200 A 
ATOM     25  N   LIG    1        6.293  -9.393  -0.328  0.00  0.00    -0.460 NA
ATOM     26  C   LIG    1        5.315  -8.550  -0.634  0.00  0.00    +0.140 A 
ATOM     27  C   LIG    1        3.915  -8.693  -0.691  0.00  0.00    +0.180 A 
ATOM     28  C   LIG    1        3.152  -7.625  -1.045  0.00  0.00    -0.050 A 
ENDBRANCH  18  20
ENDBRANCH   6  18
TORSDOF 3
