REMARK  Name = ZINCpk00000KfKML.0
REMARK                            x       y       z     vdW  Elec       q    Type
REMARK                         _______ _______ _______ _____ _____    ______ ____
ROOT
ATOM      1  N   LIG    1        5.411   4.270   1.355  0.00  0.00    -0.610 N 
ATOM      2  C   LIG    1        5.072   5.404   1.999  0.00  0.00    +0.510 C 
ATOM      3  O   LIG    1        4.398   6.242   1.438  0.00  0.00    -0.510 OA
ATOM      4  C   LIG    1        6.225   3.258   2.032  0.00  0.00    +0.270 C 
ENDROOT
BRANCH   1   5
ATOM      5  C   LIG    1        4.966   4.050  -0.024  0.00  0.00    +0.340 C 
BRANCH   5   9
ATOM      6  C   LIG    1        1.185   2.058   0.002  0.00  0.00    +0.140 A 
ATOM      7  C   LIG    1        2.359   1.320  -0.008  0.00  0.00    -0.080 A 
ATOM      8  C   LIG    1        3.580   1.966  -0.021  0.00  0.00    +0.050 A 
ATOM      9  C   LIG    1        3.633   3.348  -0.015  0.00  0.00    -0.150 A 
ATOM     10  C   LIG    1        2.464   4.086   0.000  0.00  0.00    +0.090 A 
ATOM     11  C   LIG    1        1.240   3.444   0.009  0.00  0.00    -0.020 A 
BRANCH   6  12
ATOM     12  O   LIG    1       -0.017   1.425   0.010  0.00  0.00    -0.320 OA
BRANCH  12  14
ATOM     13  C   LIG    1       -1.433  -0.534   0.013  0.00  0.00    +0.070 C 
ATOM     14  C   LIG    1        0.002  -0.004   0.002  0.00  0.00    +0.170 C 
ENDBRANCH  12  14
ENDBRANCH   6  12
ENDBRANCH   5   9
ENDBRANCH   1   5
BRANCH   2  15
ATOM     15  C   LIG    1        5.530   5.630   3.417  0.00  0.00    +0.220 C 
BRANCH  15  16
ATOM     16  N   LIG    1        5.034   6.929   3.890  0.00  0.00    -0.530 NA
ATOM     17  C   LIG    1        5.656   7.297   5.170  0.00  0.00    +0.200 C 
ATOM     18  C   LIG    1        5.417   8.786   5.454  0.00  0.00    +0.310 C 
ATOM     19  N   LIG    1        3.992   9.062   5.271  0.00  0.00    -0.470 N 
ATOM     20  C   LIG    1        3.261  10.114   5.680  0.00  0.00    +0.180 A 
ATOM     21  N   LIG    1        2.031   9.903   5.282  0.00  0.00    -0.300 NA
ATOM     22  N   LIG    1        1.963   8.781   4.650  0.00  0.00    -0.280 NA
ATOM     23  C   LIG    1        3.762  11.308   6.450  0.00  0.00    +0.200 C 
ATOM     24  C   LIG    1        3.137   8.232   4.617  0.00  0.00    +0.180 A 
ATOM     25  C   LIG    1        3.563   6.927   3.993  0.00  0.00    +0.330 C 
ENDBRANCH  15  16
ENDBRANCH   2  15
TORSDOF 6
