REMARK  Name = ZINCkj000005lR3g.0
REMARK                            x       y       z     vdW  Elec       q    Type
REMARK                         _______ _______ _______ _____ _____    ______ ____
ROOT
ATOM      1  O   LIG    1        6.276   1.215  -0.383  0.00  0.00    -0.580 OA
ATOM      2  C   LIG    1        5.734   1.931   0.437  0.00  0.00    +0.710 C 
ATOM      3  N   LIG    1        4.429   1.757   0.726  0.00  0.00    -0.750 N 
ATOM      4  H   LIG    1        3.997   2.329   1.380  0.00  0.00    +0.400 HD
ATOM      5  N   LIG    1        6.439   2.899   1.056  0.00  0.00    -0.740 N 
ATOM      6  H   LIG    1        6.006   3.470   1.710  0.00  0.00    +0.400 HD
ENDROOT
BRANCH   3   7
ATOM      7  C   LIG    1        3.664   0.705   0.052  0.00  0.00    +0.310 C 
BRANCH   7   8
ATOM      8  C   LIG    1        2.220   0.722   0.558  0.00  0.00    -0.010 C 
ATOM      9  C   LIG    1        1.450   1.947  -0.001  0.00  0.00    +0.070 C 
ATOM     10  C   LIG    1       -0.018   1.470   0.010  0.00  0.00    +0.250 C 
ATOM     11  N   LIG    1        0.002  -0.004   0.002  0.00  0.00    -0.360 N 
ATOM     12  H   LIG    1       -0.441  -0.354   0.838  0.00  0.00    +0.420 HD
ATOM     13  C   LIG    1        1.409  -0.456  -0.038  0.00  0.00    +0.280 C 
BRANCH  11  14
ATOM     14  C   LIG    1       -0.711  -0.502  -1.182  0.00  0.00    +0.100 C 
ATOM     15  C   LIG    1       -2.025  -1.251  -0.953  0.00  0.00    +0.100 C 
ATOM     16  C   LIG    1       -0.772  -2.017  -1.385  0.00  0.00    +0.090 C 
ENDBRANCH  11  14
ENDBRANCH   7   8
ENDBRANCH   3   7
BRANCH   5  17
ATOM     17  C   LIG    1        7.857   3.088   0.742  0.00  0.00    +0.340 C 
BRANCH  17  18
ATOM     18  C   LIG    1        8.406   4.225   1.564  0.00  0.00    -0.070 A 
ATOM     19  C   LIG    1        8.377   5.526   1.086  0.00  0.00    -0.010 A 
ATOM     20  C   LIG    1        8.887   6.544   1.870  0.00  0.00    +0.260 A 
ATOM     21  N   LIG    1        9.404   6.287   3.055  0.00  0.00    -0.480 NA
ATOM     22  C   LIG    1        9.453   5.062   3.540  0.00  0.00    +0.260 A 
ATOM     23  C   LIG    1        8.959   3.994   2.815  0.00  0.00    -0.010 A 
ENDBRANCH  17  18
ENDBRANCH   5  17
TORSDOF 5
