REMARK  Name = ZINCkj000005lR3g.1
REMARK                            x       y       z     vdW  Elec       q    Type
REMARK                         _______ _______ _______ _____ _____    ______ ____
ROOT
ATOM      1  O   LIG    1       -1.077   1.937   0.018  0.00  0.00    -0.580 OA
ATOM      2  C   LIG    1       -0.016   1.344   0.009  0.00  0.00    +0.710 C 
ATOM      3  N   LIG    1        0.002  -0.004   0.002  0.00  0.00    -0.750 N 
ATOM      4  H   LIG    1        0.849  -0.478  -0.009  0.00  0.00    +0.400 HD
ATOM      5  N   LIG    1        1.142   2.033   0.002  0.00  0.00    -0.740 N 
ATOM      6  H   LIG    1        1.988   1.560  -0.009  0.00  0.00    +0.400 HD
ENDROOT
BRANCH   3   7
ATOM      7  C   LIG    1       -1.256  -0.754   0.010  0.00  0.00    +0.310 C 
BRANCH   7   8
ATOM      8  C   LIG    1       -0.957  -2.254  -0.001  0.00  0.00    -0.010 C 
ATOM      9  C   LIG    1       -0.322  -2.696   1.344  0.00  0.00    +0.080 C 
ATOM     10  C   LIG    1       -0.728  -4.192   1.402  0.00  0.00    +0.250 C 
ATOM     11  N   LIG    1       -2.088  -4.239   0.825  0.00  0.00    -0.360 N 
ATOM     12  H   LIG    1       -2.773  -4.211   1.565  0.00  0.00    +0.420 HD
ATOM     13  C   LIG    1       -2.264  -3.071  -0.058  0.00  0.00    +0.280 C 
BRANCH  11  14
ATOM     14  C   LIG    1       -2.249  -5.475   0.047  0.00  0.00    +0.100 C 
ATOM     15  C   LIG    1       -3.483  -6.334   0.333  0.00  0.00    +0.100 C 
ATOM     16  C   LIG    1       -2.102  -6.803   0.793  0.00  0.00    +0.090 C 
ENDBRANCH  11  14
ENDBRANCH   7   8
ENDBRANCH   3   7
BRANCH   5  17
ATOM     17  C   LIG    1        1.122   3.498   0.010  0.00  0.00    +0.340 C 
BRANCH  17  18
ATOM     18  C   LIG    1        2.536   4.020  -0.001  0.00  0.00    -0.070 A 
ATOM     19  C   LIG    1        3.211   4.264   1.185  0.00  0.00    -0.010 A 
ATOM     20  C   LIG    1        4.508   4.739   1.136  0.00  0.00    +0.260 A 
ATOM     21  N   LIG    1        5.099   4.967  -0.020  0.00  0.00    -0.480 NA
ATOM     22  C   LIG    1        4.486   4.750  -1.167  0.00  0.00    +0.260 A 
ATOM     23  C   LIG    1        3.190   4.272  -1.197  0.00  0.00    -0.010 A 
ENDBRANCH  17  18
ENDBRANCH   5  17
TORSDOF 5
