REMARK  Name = ZINCtV000002Eyvi.0
REMARK                            x       y       z     vdW  Elec       q    Type
REMARK                         _______ _______ _______ _____ _____    ______ ____
ROOT
ATOM      1  C   LIG    1        6.409  -3.879  -0.510  0.00  0.00    +0.540 C 
ATOM      2  N   LIG    1        6.009  -5.162  -0.615  0.00  0.00    -0.610 N 
ATOM      3  H   LIG    1        5.063  -5.373  -0.652  0.00  0.00    +0.430 HD
ATOM      4  O   LIG    1        7.591  -3.614  -0.464  0.00  0.00    -0.480 OA
ENDROOT
BRANCH   2   5
ATOM      5  C   LIG    1        6.952  -6.181  -0.670  0.00  0.00    +0.270 A 
ATOM      6  N   LIG    1        6.683  -7.446  -0.770  0.00  0.00    -0.500 NA
ATOM      7  C   LIG    1        7.714  -8.278  -0.810  0.00  0.00    +0.120 A 
ATOM      8  C   LIG    1        8.926  -7.699  -0.740  0.00  0.00    -0.100 A 
ATOM      9  S   LIG    1        8.698  -5.956  -0.622  0.00  0.00    +0.220 S 
BRANCH   7  10
ATOM     10  C   LIG    1        7.542  -9.747  -0.923  0.00  0.00    -0.000 A 
ATOM     11  C   LIG    1        8.659 -10.580  -0.968  0.00  0.00    +0.060 A 
ATOM     12  C   LIG    1        8.496 -11.947  -1.068  0.00  0.00    +0.030 A 
ATOM     13  C   LIG    1        7.225 -12.492  -1.136  0.00  0.00    +0.070 A 
ATOM     14  C   LIG    1        6.109 -11.667  -1.098  0.00  0.00    +0.070 A 
ATOM     15  F   LIG    1        4.871 -12.203  -1.165  0.00  0.00    -0.130 F 
ATOM     16  F   LIG    1        7.070 -13.830  -1.239  0.00  0.00    -0.130 F 
ATOM     17  C   LIG    1        6.264 -10.298  -0.992  0.00  0.00    +0.060 A 
ENDBRANCH   7  10
ENDBRANCH   2   5
BRANCH   1  19
ATOM     18  C   LIG    1        4.888  -2.463  -1.864  0.00  0.00    +0.090 C 
ATOM     19  C   LIG    1        5.386  -2.773  -0.451  0.00  0.00    +0.020 C 
BRANCH  19  20
ATOM     20  S   LIG    1        6.141  -1.291   0.262  0.00  0.00    +0.080 S 
BRANCH  20  21
ATOM     21  C   LIG    1        4.729  -0.241   0.352  0.00  0.00    +0.140 C 
ATOM     22  N   LIG    1        3.573  -0.682  -0.058  0.00  0.00    -0.490 NA
ATOM     23  C   LIG    1        2.413   0.030  -0.026  0.00  0.00    +0.100 A 
ATOM     24  C   LIG    1        1.202  -0.679  -0.016  0.00  0.00    +0.050 A 
ATOM     25  C   LIG    1        0.002  -0.004   0.002  0.00  0.00    +0.020 A 
ATOM     26  C   LIG    1       -0.017   1.379   0.010  0.00  0.00    +0.020 A 
ATOM     27  C   LIG    1        1.171   2.087   0.002  0.00  0.00    +0.040 A 
ATOM     28  C   LIG    1        2.382   1.423  -0.013  0.00  0.00    -0.120 A 
ATOM     29  C   LIG    1        3.653   2.234  -0.013  0.00  0.00    +0.170 C 
ATOM     30  S   LIG    1        4.897   1.390   0.996  0.00  0.00    -0.080 S 
ENDBRANCH  20  21
ENDBRANCH  19  20
ENDBRANCH   1  19
TORSDOF 5
