REMARK  Name = ZINCrH00000No4Xq.0
REMARK                            x       y       z     vdW  Elec       q    Type
REMARK                         _______ _______ _______ _____ _____    ______ ____
ROOT
ATOM      1  N   LIG    1       -5.472   1.341  -0.306  0.00  0.00    -0.560 N 
ATOM      2  C   LIG    1       -4.524   1.965  -1.054  0.00  0.00    +0.520 C 
ATOM      3  C   LIG    1       -3.602   2.092   0.141  0.00  0.00    +0.180 C 
ATOM      4  O   LIG    1       -4.448   2.292  -2.219  0.00  0.00    -0.460 OA
ATOM      5  C   LIG    1       -4.701   1.383   0.950  0.00  0.00    +0.330 C 
ENDROOT
BRANCH   1   9
ATOM      6  C   LIG    1       -9.245  -0.169  -1.240  0.00  0.00    +0.110 A 
ATOM      7  C   LIG    1       -8.476   0.433  -2.225  0.00  0.00    +0.020 A 
ATOM      8  C   LIG    1       -7.226   0.933  -1.916  0.00  0.00    +0.030 A 
ATOM      9  C   LIG    1       -6.739   0.834  -0.620  0.00  0.00    +0.130 A 
ATOM     10  C   LIG    1       -7.507   0.226   0.365  0.00  0.00    +0.020 A 
ATOM     11  C   LIG    1       -8.759  -0.269   0.056  0.00  0.00    -0.050 A 
BRANCH   6  13
ATOM     12  C   LIG    1      -11.212  -1.268  -0.480  0.00  0.00    +0.250 C 
ATOM     13  O   LIG    1      -10.475  -0.662  -1.544  0.00  0.00    -0.320 OA
ENDBRANCH   6  13
ENDBRANCH   1   9
BRANCH   5  14
ATOM     14  C   LIG    1       -4.297   0.023   1.458  0.00  0.00    -0.150 A 
ATOM     15  C   LIG    1       -3.886  -0.141   2.772  0.00  0.00    +0.090 A 
ATOM     16  C   LIG    1       -3.524  -1.410   3.196  0.00  0.00    -0.030 A 
ATOM     17  C   LIG    1       -3.585  -2.462   2.302  0.00  0.00    +0.270 A 
ATOM     18  N   LIG    1       -3.982  -2.269   1.060  0.00  0.00    -0.480 NA
ATOM     19  C   LIG    1       -4.338  -1.077   0.623  0.00  0.00    +0.290 A 
ENDBRANCH   5  14
BRANCH   3  20
ATOM     20  O   LIG    1       -2.398   1.333   0.021  0.00  0.00    -0.260 OA
BRANCH  20  21
ATOM     21  C   LIG    1       -1.254   2.025  -0.225  0.00  0.00    +0.090 A 
ATOM     22  C   LIG    1       -1.306   3.389  -0.467  0.00  0.00    -0.040 A 
ATOM     23  C   LIG    1       -0.142   4.089  -0.723  0.00  0.00    +0.050 A 
ATOM     24  C   LIG    1        1.075   3.433  -0.733  0.00  0.00    +0.020 A 
ATOM     25  C   LIG    1        1.131   2.073  -0.486  0.00  0.00    +0.030 A 
ATOM     26  C   LIG    1       -0.030   1.367  -0.230  0.00  0.00    +0.080 A 
ATOM     27  F   LIG    1        0.026   0.039   0.011  0.00  0.00    -0.130 F 
ENDBRANCH  20  21
ENDBRANCH   3  20
TORSDOF 5
