REMARK  Name = ZINCnE000001TVdN.0
REMARK                            x       y       z     vdW  Elec       q    Type
REMARK                         _______ _______ _______ _____ _____    ______ ____
ROOT
ATOM      1  C   LIG    1       -2.527   5.353   0.168  0.00  0.00    -0.240 A 
ATOM      2  C   LIG    1       -3.642   6.159   0.293  0.00  0.00    +0.290 A 
ATOM      3  N   LIG    1       -3.210   7.432   0.374  0.00  0.00    -0.310 N 
ATOM      4  N   LIG    1       -1.813   7.432   0.298  0.00  0.00    -0.270 NA
ATOM      5  C   LIG    1       -1.395   6.202   0.182  0.00  0.00    +0.340 A 
ENDROOT
BRANCH   3   6
ATOM      6  C   LIG    1       -4.017   8.557   0.508  0.00  0.00    +0.360 A 
ATOM      7  N   LIG    1       -3.584   9.767   0.583  0.00  0.00    -0.470 NA
ATOM      8  C   LIG    1       -4.490  10.755   0.712  0.00  0.00    +0.110 A 
ATOM      9  C   LIG    1       -4.273  12.146   0.813  0.00  0.00    +0.080 A 
ATOM     10  C   LIG    1       -5.333  13.007   0.940  0.00  0.00    +0.040 A 
ATOM     11  C   LIG    1       -6.635  12.526   0.970  0.00  0.00    +0.030 A 
ATOM     12  C   LIG    1       -6.871  11.173   0.873  0.00  0.00    +0.060 A 
ATOM     13  C   LIG    1       -5.807  10.284   0.744  0.00  0.00    -0.180 A 
ATOM     14  S   LIG    1       -5.773   8.529   0.592  0.00  0.00    +0.100 S 
ENDBRANCH   3   6
BRANCH   1  16
ATOM     15  O   LIG    1       -3.566   3.275  -0.043  0.00  0.00    -0.480 OA
ATOM     16  C   LIG    1       -2.517   3.885   0.047  0.00  0.00    +0.520 C 
BRANCH  16  17
ATOM     17  C   LIG    1       -1.236   3.154   0.037  0.00  0.00    -0.320 A 
ATOM     18  C   LIG    1       -0.730   2.640  -1.159  0.00  0.00    +0.060 A 
ATOM     19  C   LIG    1        0.468   1.958  -1.162  0.00  0.00    -0.170 A 
ATOM     20  C   LIG    1        1.174   1.780   0.017  0.00  0.00    +0.030 A 
ATOM     21  C   LIG    1        0.685   2.283   1.206  0.00  0.00    -0.160 A 
ATOM     22  C   LIG    1       -0.521   2.966   1.229  0.00  0.00    +0.300 A 
ATOM     23  O   LIG    1       -1.005   3.456   2.398  0.00  0.00    -0.720 OA
ENDBRANCH  16  17
ENDBRANCH   1  16
TORSDOF 3
