REMARK  Name = ZINCrg000000nyWr.0
REMARK                            x       y       z     vdW  Elec       q    Type
REMARK                         _______ _______ _______ _____ _____    ______ ____
ROOT
ATOM      1  C   LIG    1        1.190   1.946  -1.349  0.00  0.00    +0.390 C 
ENDROOT
BRANCH   1  10
ATOM      2  C   LIG    1        6.085  -1.217   2.602  0.00  0.00    +0.030 C 
ATOM      3  C   LIG    1        5.725  -1.239   1.115  0.00  0.00    -0.020 C 
ATOM      4  C   LIG    1        4.288  -1.736   0.946  0.00  0.00    +0.030 C 
ATOM      5  C   LIG    1        3.933  -1.769  -0.543  0.00  0.00    +0.060 C 
ATOM      6  C   LIG    1        4.078  -0.371  -1.134  0.00  0.00    +0.130 C 
ATOM      7  N   LIG    1        3.711  -0.374  -2.556  0.00  0.00    -0.720 N 
ATOM      8  H   LIG    1        4.141  -0.877  -3.266  0.00  0.00    +0.440 HD
ATOM      9  C   LIG    1        2.660   0.459  -2.680  0.00  0.00    +0.710 C 
ATOM     10  N   LIG    1        2.300   1.003  -1.511  0.00  0.00    -0.560 N 
ATOM     11  O   LIG    1        2.102   0.692  -3.734  0.00  0.00    -0.540 OA
ATOM     12  C   LIG    1        5.500   0.147  -0.951  0.00  0.00    +0.050 C 
ATOM     13  C   LIG    1        3.089   0.581  -0.502  0.00  0.00    +0.540 C 
ATOM     14  O   LIG    1        3.018   0.896   0.667  0.00  0.00    -0.450 OA
ATOM     15  C   LIG    1        5.849   0.173   0.539  0.00  0.00    +0.030 C 
ENDBRANCH   1  10
BRANCH   1  16
ATOM     16  C   LIG    1       -0.078   1.184  -1.062  0.00  0.00    +0.500 C 
ATOM     17  N   LIG    1       -1.237   1.848  -0.881  0.00  0.00    -0.510 N 
ATOM     18  H   LIG    1       -1.254   2.816  -0.931  0.00  0.00    +0.440 HD
ATOM     19  O   LIG    1       -0.057  -0.027  -0.999  0.00  0.00    -0.520 OA
BRANCH  17  20
ATOM     20  N   LIG    1       -2.417   1.139  -0.619  0.00  0.00    -0.510 N 
ATOM     21  H   LIG    1       -2.400   0.171  -0.569  0.00  0.00    +0.440 HD
ATOM     22  C   LIG    1       -3.576   1.803  -0.438  0.00  0.00    +0.600 C 
ATOM     23  O   LIG    1       -3.580   3.020  -0.399  0.00  0.00    -0.540 OA
BRANCH  22  24
ATOM     24  C   LIG    1       -4.831   1.060  -0.288  0.00  0.00    -0.040 A 
ATOM     25  C   LIG    1       -4.964  -0.311  -0.228  0.00  0.00    +0.060 A 
ATOM     26  C   LIG    1       -6.328  -0.586  -0.082  0.00  0.00    -0.180 A 
ATOM     27  C   LIG    1       -6.989   0.596  -0.056  0.00  0.00    +0.250 A 
ATOM     28 BR   LIG    1       -7.109  -2.303   0.055  0.00  0.00    -0.020 Br
ATOM     29  N   LIG    1       -6.090   1.604  -0.175  0.00  0.00    -0.400 N 
ATOM     30  C   LIG    1       -6.407   3.035  -0.184  0.00  0.00    +0.330 C 
ENDBRANCH  22  24
ENDBRANCH  17  20
ENDBRANCH   1  16
TORSDOF 4
