REMARK  Name = ZINCpe000000U1zp.0
REMARK                            x       y       z     vdW  Elec       q    Type
REMARK                         _______ _______ _______ _____ _____    ______ ____
ROOT
ATOM      1  N   LIG    1        0.033  -0.027  -0.032  0.00  0.00    -0.510 NA
ATOM      2  C   LIG    1       -1.330  -0.575  -0.022  0.00  0.00    +0.200 C 
ATOM      3  C   LIG    1       -1.264  -2.102  -0.081  0.00  0.00    +0.180 C 
ATOM      4  N   LIG    1       -0.492  -2.601   1.066  0.00  0.00    -0.520 NA
ATOM      5  C   LIG    1        0.872  -2.053   1.057  0.00  0.00    +0.180 C 
ATOM      6  C   LIG    1        0.806  -0.525   1.115  0.00  0.00    +0.190 C 
ENDROOT
BRANCH   1   7
ATOM      7  C   LIG    1        0.011   1.442  -0.053  0.00  0.00    +0.170 C 
BRANCH   7   8
ATOM      8  C   LIG    1       -0.732   1.950   1.156  0.00  0.00    +0.480 C 
ATOM      9  O   LIG    1       -1.196   1.166   1.956  0.00  0.00    -0.530 OA
ATOM     10  N   LIG    1       -0.879   3.276   1.348  0.00  0.00    -0.850 N 
ATOM     11  H   LIG    1       -1.357   3.603   2.126  0.00  0.00    +0.400 HD
ATOM     12  H   LIG    1       -0.508   3.903   0.708  0.00  0.00    +0.400 HD
ENDBRANCH   7   8
BRANCH   7  14
ATOM     13  C   LIG    1        0.128   1.513  -2.547  0.00  0.00    +0.030 C 
ATOM     14  C   LIG    1       -0.693   1.923  -1.323  0.00  0.00    +0.030 C 
ENDBRANCH   7  14
ENDBRANCH   1   7
BRANCH   4  15
ATOM     15  C   LIG    1       -0.469  -4.069   1.087  0.00  0.00    +0.220 C 
BRANCH  15  16
ATOM     16  C   LIG    1       -1.860  -4.590   1.343  0.00  0.00    +0.520 C 
ATOM     17  N   LIG    1       -2.106  -5.914   1.286  0.00  0.00    -0.560 N 
ATOM     18  C   LIG    1       -1.013  -6.866   1.049  0.00  0.00    +0.270 C 
ATOM     19  C   LIG    1       -1.491  -7.887   0.014  0.00  0.00    +0.020 C 
ATOM     20  C   LIG    1       -2.675  -8.663   0.592  0.00  0.00    +0.080 C 
ATOM     21  C   LIG    1       -3.720  -7.715   1.120  0.00  0.00    -0.120 A 
ATOM     22  C   LIG    1       -5.017  -8.171   1.283  0.00  0.00    +0.020 A 
ATOM     23  C   LIG    1       -5.995  -7.328   1.774  0.00  0.00    -0.020 A 
ATOM     24  C   LIG    1       -5.685  -6.022   2.105  0.00  0.00    +0.020 A 
ATOM     25  C   LIG    1       -4.394  -5.559   1.942  0.00  0.00    +0.020 A 
ATOM     26  C   LIG    1       -3.409  -6.404   1.447  0.00  0.00    +0.150 A 
ATOM     27  O   LIG    1       -2.759  -3.817   1.599  0.00  0.00    -0.490 OA
ENDBRANCH  15  16
ENDBRANCH   4  15
TORSDOF 5
