REMARK  Name = ZINCqH0000006KoB.0
REMARK                            x       y       z     vdW  Elec       q    Type
REMARK                         _______ _______ _______ _____ _____    ______ ____
ROOT
ATOM      1  C   LIG    1        3.712  -0.861  -0.040  0.00  0.00    +0.520 C 
ATOM      2  N   LIG    1        3.909  -2.194  -0.049  0.00  0.00    -0.730 N 
ATOM      3  H   LIG    1        3.148  -2.796  -0.045  0.00  0.00    +0.410 HD
ATOM      4  O   LIG    1        4.663  -0.108  -0.044  0.00  0.00    -0.510 OA
ENDROOT
BRANCH   1   5
ATOM      5  C   LIG    1        2.312  -0.306  -0.023  0.00  0.00    +0.220 C 
BRANCH   5   6
ATOM      6  O   LIG    1        2.365   1.122  -0.015  0.00  0.00    -0.280 OA
BRANCH   6  13
ATOM      7  C   LIG    1        1.155   3.176   0.008  0.00  0.00    +0.110 A 
ATOM      8  C   LIG    1       -0.057   3.846   0.023  0.00  0.00    -0.030 A 
ATOM      9  C   LIG    1       -1.242   3.133   0.031  0.00  0.00    -0.080 A 
ATOM     10  C   LIG    1       -1.219   1.751   0.017  0.00  0.00    +0.010 A 
ATOM     11  C   LIG    1       -0.013   1.076   0.008  0.00  0.00    -0.030 A 
ATOM     12  C   LIG    1       -2.560   3.863   0.047  0.00  0.00    +0.100 C 
ATOM     13  C   LIG    1        1.177   1.785   0.000  0.00  0.00    +0.090 A 
BRANCH   7  15
ATOM     14  C   LIG    1        2.221   5.302   0.009  0.00  0.00    +0.250 C 
ATOM     15  O   LIG    1        2.321   3.877   0.000  0.00  0.00    -0.300 OA
ENDBRANCH   7  15
ENDBRANCH   6  13
ENDBRANCH   5   6
ENDBRANCH   1   5
BRANCH   2  16
ATOM     16  C   LIG    1        5.271  -2.734  -0.066  0.00  0.00    +0.410 C 
BRANCH  16  17
ATOM     17  C   LIG    1        5.214  -4.240  -0.074  0.00  0.00    -0.030 A 
ATOM     18  C   LIG    1        5.169  -5.018  -1.172  0.00  0.00    -0.020 A 
ATOM     19  C   LIG    1        5.127  -6.356  -0.728  0.00  0.00    +0.000 A 
ATOM     20  C   LIG    1        5.142  -6.319   0.630  0.00  0.00    +0.060 A 
ATOM     21  O   LIG    1        5.195  -5.029   1.014  0.00  0.00    -0.160 OA
BRANCH  20  22
ATOM     22  C   LIG    1        5.106  -7.491   1.531  0.00  0.00    +0.140 A 
ATOM     23  C   LIG    1        5.123  -7.385   2.877  0.00  0.00    -0.070 A 
ATOM     24  S   LIG    1        5.068  -9.013   3.548  0.00  0.00    +0.150 S 
ATOM     25  C   LIG    1        5.027  -9.676   1.973  0.00  0.00    +0.060 A 
ATOM     26  C   LIG    1        4.966 -11.149   1.663  0.00  0.00    +0.180 C 
ATOM     27  N   LIG    1        5.048  -8.740   1.088  0.00  0.00    -0.460 NA
ENDBRANCH  20  22
ENDBRANCH  16  17
ENDBRANCH   2  16
TORSDOF 7
