REMARK  Name = ZINCrH00000tj1g3.0
REMARK                            x       y       z     vdW  Elec       q    Type
REMARK                         _______ _______ _______ _____ _____    ______ ____
ROOT
ATOM      1  C   LIG    1       -3.234  -2.320   0.910  0.00  0.00    +0.160 C 
ATOM      2  C   LIG    1       -4.626  -2.732   0.369  0.00  0.00    +0.070 C 
ATOM      3  C   LIG    1       -4.532  -2.380  -1.133  0.00  0.00    +0.050 C 
ATOM      4  C   LIG    1       -3.024  -2.350  -1.445  0.00  0.00    +0.210 C 
ATOM      5  N   LIG    1       -2.315  -2.697  -0.194  0.00  0.00    -0.430 N 
ENDROOT
BRANCH   5   6
ATOM      6  C   LIG    1       -1.116  -2.013  -0.097  0.00  0.00    +0.490 A 
ATOM      7  N   LIG    1        0.015  -2.699  -0.014  0.00  0.00    -0.450 NA
ATOM      8  C   LIG    1        1.178  -2.075   0.081  0.00  0.00    +0.360 A 
ATOM      9  C   LIG    1        1.204  -0.690   0.091  0.00  0.00    -0.010 A 
ATOM     10  C   LIG    1        0.002  -0.004   0.002  0.00  0.00    +0.100 A 
ATOM     11  N   LIG    1       -1.127  -0.688  -0.085  0.00  0.00    -0.510 NA
BRANCH  10  12
ATOM     12  C   LIG    1       -0.018   1.503   0.010  0.00  0.00    +0.530 C 
ATOM     13  F   LIG    1       -0.673   1.954   1.161  0.00  0.00    -0.160 F 
ATOM     14  F   LIG    1       -0.695   1.966  -1.123  0.00  0.00    -0.160 F 
ATOM     15  F   LIG    1        1.294   1.987   0.000  0.00  0.00    -0.160 F 
ENDBRANCH  10  12
ENDBRANCH   5   6
BRANCH   1  17
ATOM     16  O   LIG    1       -1.987  -3.883   2.163  0.00  0.00    -0.430 OA
ATOM     17  C   LIG    1       -2.902  -3.088   2.164  0.00  0.00    +0.510 C 
ATOM     18  N   LIG    1       -3.622  -2.890   3.286  0.00  0.00    -0.630 N 
ATOM     19  H   LIG    1       -4.354  -2.253   3.286  0.00  0.00    +0.420 HD
BRANCH  18  20
ATOM     20  C   LIG    1       -3.317  -3.595   4.438  0.00  0.00    +0.340 A 
ATOM     21  N   LIG    1       -2.371  -4.464   4.540  0.00  0.00    -0.470 NA
ATOM     22  C   LIG    1       -2.193  -5.066   5.732  0.00  0.00    +0.110 A 
ATOM     23  C   LIG    1       -1.237  -6.037   6.097  0.00  0.00    +0.070 A 
ATOM     24  C   LIG    1       -1.214  -6.545   7.372  0.00  0.00    +0.040 A 
ATOM     25  C   LIG    1       -2.128  -6.112   8.321  0.00  0.00    +0.030 A 
ATOM     26  C   LIG    1       -3.071  -5.165   7.988  0.00  0.00    +0.060 A 
ATOM     27  C   LIG    1       -3.109  -4.639   6.699  0.00  0.00    -0.180 A 
ATOM     28  S   LIG    1       -4.170  -3.437   5.967  0.00  0.00    +0.060 S 
ENDBRANCH  18  20
ENDBRANCH   1  17
TORSDOF 4
