REMARK  Name = ZINCkj000005hsO9.0
REMARK                            x       y       z     vdW  Elec       q    Type
REMARK                         _______ _______ _______ _____ _____    ______ ____
ROOT
ATOM      1  N   LIG    1       -0.784   2.456   0.894  0.00  0.00    -0.520 NA
ATOM      2  C   LIG    1       -2.204   2.085   0.851  0.00  0.00    +0.200 C 
ATOM      3  C   LIG    1       -2.817   2.248   2.244  0.00  0.00    +0.060 C 
ATOM      4  C   LIG    1       -2.664   3.702   2.697  0.00  0.00    +0.140 C 
ATOM      5  C   LIG    1       -1.179   4.078   2.687  0.00  0.00    +0.050 C 
ATOM      6  C   LIG    1       -0.614   3.862   1.281  0.00  0.00    +0.210 C 
ENDROOT
BRANCH   4   7
ATOM      7  N   LIG    1       -3.198   3.851   4.058  0.00  0.00    -0.550 N 
ATOM      8  H   LIG    1       -3.018   4.787   4.389  0.00  0.00    +0.450 HD
ATOM      9  H   LIG    1       -2.750   3.186   4.670  0.00  0.00    +0.410 HD
BRANCH   7  10
ATOM     10  C   LIG    1       -4.646   3.607   4.044  0.00  0.00    +0.170 C 
ATOM     11  C   LIG    1       -5.196   3.744   5.465  0.00  0.00    +0.060 C 
ATOM     12  C   LIG    1       -5.011   5.197   5.937  0.00  0.00    +0.010 C 
ATOM     13  C   LIG    1       -3.575   5.627   5.559  0.00  0.00    +0.010 C 
ATOM     14  C   LIG    1       -3.652   6.162   4.117  0.00  0.00    +0.000 C 
ATOM     15  C   LIG    1       -5.132   6.032   3.686  0.00  0.00    +0.010 C 
ATOM     16  C   LIG    1       -5.909   6.077   5.028  0.00  0.00    +0.060 C 
ATOM     17  C   LIG    1       -5.322   4.616   3.114  0.00  0.00    +0.060 C 
ENDBRANCH   7  10
ENDBRANCH   4   7
BRANCH   1  18
ATOM     18  C   LIG    1       -0.129   2.181  -0.392  0.00  0.00    +0.210 C 
BRANCH  18  22
ATOM     19  C   LIG    1        0.464  -1.241  -2.003  0.00  0.00    +0.290 C 
ATOM     20  N   LIG    1        0.445   0.204  -1.764  0.00  0.00    -0.730 N 
ATOM     21  H   LIG    1        0.833   0.809  -2.416  0.00  0.00    +0.400 HD
ATOM     22  C   LIG    1       -0.110   0.694  -0.638  0.00  0.00    +0.510 C 
ATOM     23  O   LIG    1       -0.594  -0.062   0.178  0.00  0.00    -0.520 OA
ENDBRANCH  18  22
ENDBRANCH   1  18
TORSDOF 4
