REMARK  Name = ZINCtV00001bB3iE.0
REMARK                            x       y       z     vdW  Elec       q    Type
REMARK                         _______ _______ _______ _____ _____    ______ ____
ROOT
ATOM      1  C   LIG    1        1.350   2.561   1.698  0.00  0.00    +0.150 A 
ATOM      2  C   LIG    1        2.314   1.673   1.238  0.00  0.00    -0.080 A 
ATOM      3  C   LIG    1        3.478   2.149   0.674  0.00  0.00    +0.100 A 
ATOM      4  C   LIG    1        3.693   3.524   0.576  0.00  0.00    -0.090 A 
ATOM      5  C   LIG    1        2.724   4.413   1.045  0.00  0.00    +0.100 A 
ATOM      6  C   LIG    1        1.560   3.930   1.601  0.00  0.00    -0.020 A 
ENDROOT
BRANCH   4   7
ATOM      7  C   LIG    1        4.945   4.039  -0.022  0.00  0.00    +0.220 C 
ATOM      8  N   LIG    1        5.009   5.271  -0.440  0.00  0.00    -0.330 NA
BRANCH   7   9
ATOM      9  C   LIG    1        6.126   3.153  -0.146  0.00  0.00    -0.050 A 
ATOM     10  C   LIG    1        6.434   2.252   0.873  0.00  0.00    +0.000 A 
ATOM     11  C   LIG    1        7.532   1.423   0.752  0.00  0.00    +0.050 A 
ATOM     12  C   LIG    1        8.334   1.492  -0.372  0.00  0.00    -0.060 A 
ATOM     13  C   LIG    1        8.038   2.390  -1.388  0.00  0.00    +0.120 A 
ATOM     14  C   LIG    1        6.936   3.221  -1.279  0.00  0.00    +0.030 A 
BRANCH  13  15
ATOM     15  O   LIG    1        8.830   2.453  -2.491  0.00  0.00    -0.320 OA
ATOM     16  C   LIG    1        9.949   1.567  -2.538  0.00  0.00    +0.250 C 
ENDBRANCH  13  15
ENDBRANCH   7   9
BRANCH   8  17
ATOM     17  O   LIG    1        6.242   5.804  -0.888  0.00  0.00    -0.230 OA
ATOM     18  C   LIG    1        6.166   7.165  -1.316  0.00  0.00    +0.240 C 
ENDBRANCH   8  17
ENDBRANCH   4   7
BRANCH   1  19
ATOM     19  O   LIG    1        0.201   2.088   2.247  0.00  0.00    -0.310 OA
BRANCH  19  20
ATOM     20  C   LIG    1        0.050   0.669   2.315  0.00  0.00    +0.180 C 
BRANCH  20  21
ATOM     21  C   LIG    1       -1.295   0.329   2.959  0.00  0.00    +0.020 C 
BRANCH  21  22
ATOM     22  C   LIG    1       -1.457  -1.190   3.032  0.00  0.00    +0.020 C 
BRANCH  22  23
ATOM     23  C   LIG    1       -2.803  -1.530   3.676  0.00  0.00    +0.000 C 
BRANCH  23  24
ATOM     24  C   LIG    1       -2.964  -3.050   3.749  0.00  0.00    +0.000 C 
BRANCH  24  25
ATOM     25  C   LIG    1       -4.310  -3.389   4.393  0.00  0.00    +0.000 C 
BRANCH  25  26
ATOM     26  C   LIG    1       -4.472  -4.909   4.466  0.00  0.00    +0.000 C 
BRANCH  26  27
ATOM     27  C   LIG    1       -5.817  -5.248   5.110  0.00  0.00    +0.000 C 
BRANCH  27  29
ATOM     28  C   LIG    1       -7.324  -7.108   5.827  0.00  0.00    +0.000 C 
ATOM     29  C   LIG    1       -5.979  -6.768   5.183  0.00  0.00    -0.010 C 
ENDBRANCH  27  29
ENDBRANCH  26  27
ENDBRANCH  25  26
ENDBRANCH  24  25
ENDBRANCH  23  24
ENDBRANCH  22  23
ENDBRANCH  21  22
ENDBRANCH  20  21
ENDBRANCH  19  20
ENDBRANCH   1  19
TORSDOF 14
