REMARK  Name = ZINCpk00000eakh4.0
REMARK                            x       y       z     vdW  Elec       q    Type
REMARK                         _______ _______ _______ _____ _____    ______ ____
ROOT
ATOM      1  C   LIG    1       -1.250  -1.803  -1.092  0.00  0.00    +0.170 C 
ATOM      2  C   LIG    1       -0.414  -0.541  -1.385  0.00  0.00    +0.070 C 
ATOM      3  C   LIG    1        0.002  -0.004   0.002  0.00  0.00    +0.220 C 
ATOM      4  N   LIG    1       -1.023  -0.541   0.934  0.00  0.00    -0.480 NA
ATOM      5  C   LIG    1       -1.270  -1.923   0.447  0.00  0.00    +0.170 C 
ENDROOT
BRANCH   3   6
ATOM      6  C   LIG    1       -0.018   1.503   0.010  0.00  0.00    +0.170 A 
ATOM      7  N   LIG    1       -1.086   2.262   0.019  0.00  0.00    -0.210 NA
ATOM      8  N   LIG    1       -0.749   3.505   0.027  0.00  0.00    -0.250 NA
ATOM      9  C   LIG    1        0.568   3.599   0.015  0.00  0.00    +0.120 A 
ATOM     10  C   LIG    1        1.478   4.674   0.012  0.00  0.00    +0.410 A 
ATOM     11  N   LIG    1        2.767   4.431  -0.001  0.00  0.00    -0.450 NA
ATOM     12  C   LIG    1        3.240   3.182  -0.011  0.00  0.00    +0.240 A 
ATOM     13  C   LIG    1        2.411   2.117  -0.009  0.00  0.00    +0.190 A 
ATOM     14  N   LIG    1        1.059   2.313   0.004  0.00  0.00    -0.370 N 
ENDBRANCH   3   6
BRANCH   1  16
ATOM     15  C   LIG    1       -1.556  -3.974  -2.060  0.00  0.00    +0.210 C 
ATOM     16  O   LIG    1       -0.634  -2.953  -1.673  0.00  0.00    -0.380 OA
ENDBRANCH   1  16
BRANCH   4  17
ATOM     17  C   LIG    1       -0.524  -0.551   2.316  0.00  0.00    +0.260 C 
BRANCH  17  18
ATOM     18  C   LIG    1       -1.659  -0.865   3.257  0.00  0.00    -0.230 A 
ATOM     19  C   LIG    1       -2.035  -2.098   3.666  0.00  0.00    +0.090 A 
ATOM     20  N   LIG    1       -3.086  -1.952   4.500  0.00  0.00    -0.370 N 
ATOM     21  N   LIG    1       -3.365  -0.583   4.607  0.00  0.00    -0.300 NA
ATOM     22  C   LIG    1       -3.808  -3.034   5.175  0.00  0.00    +0.350 C 
ATOM     23  C   LIG    1       -1.396  -3.402   3.263  0.00  0.00    +0.140 C 
ATOM     24  C   LIG    1       -2.505   0.068   3.866  0.00  0.00    +0.100 A 
ATOM     25  C   LIG    1       -2.440   1.563   3.695  0.00  0.00    +0.150 C 
ENDBRANCH  17  18
ENDBRANCH   4  17
TORSDOF 4
