REMARK  Name = ZINCpk00000y6tFa.0
REMARK                            x       y       z     vdW  Elec       q    Type
REMARK                         _______ _______ _______ _____ _____    ______ ____
ROOT
ATOM      1  C   LIG    1        8.381   2.828   7.513  0.00  0.00    +0.100 C 
ATOM      2  C   LIG    1        7.111   2.607   6.733  0.00  0.00    +0.510 C 
ATOM      3  N   LIG    1        6.452   3.658   6.205  0.00  0.00    -0.620 N 
ATOM      4  C   LIG    1        7.004   5.022   6.277  0.00  0.00    +0.250 C 
ATOM      5  C   LIG    1        6.970   5.643   4.878  0.00  0.00    +0.220 C 
ATOM      6  O   LIG    1        5.653   5.509   4.331  0.00  0.00    -0.370 OA
ATOM      7  C   LIG    1        5.243   4.155   4.157  0.00  0.00    +0.150 C 
ATOM      8  C   LIG    1        3.876   4.077   3.478  0.00  0.00    +0.050 C 
ATOM      9  C   LIG    1        3.510   2.602   3.271  0.00  0.00    +0.270 C 
ATOM     10  N   LIG    1        3.604   1.895   4.555  0.00  0.00    -0.620 N 
ATOM     11  C   LIG    1        4.840   2.007   5.346  0.00  0.00    +0.330 C 
ATOM     12  C   LIG    1        2.571   1.156   5.004  0.00  0.00    +0.600 C 
ATOM     13  O   LIG    1        2.632   0.627   6.098  0.00  0.00    -0.530 OA
ATOM     14  C   LIG    1        5.156   3.488   5.535  0.00  0.00    +0.190 C 
ATOM     15  O   LIG    1        6.681   1.483   6.580  0.00  0.00    -0.530 OA
ENDROOT
BRANCH  12  16
ATOM     16  C   LIG    1        1.367   0.989   4.171  0.00  0.00    -0.290 A 
ATOM     17  C   LIG    1        1.332   0.868   2.796  0.00  0.00    +0.270 A 
ATOM     18  N   LIG    1        0.045   0.737   2.437  0.00  0.00    -0.350 N 
ATOM     19  N   LIG    1       -0.744   0.767   3.592  0.00  0.00    -0.290 NA
ATOM     20  C   LIG    1        0.032   0.916   4.630  0.00  0.00    +0.130 A 
ATOM     21  C   LIG    1       -0.416   0.998   6.066  0.00  0.00    +0.160 C 
BRANCH  18  22
ATOM     22  C   LIG    1       -0.450   0.583   1.066  0.00  0.00    +0.180 C 
ATOM     23  C   LIG    1       -1.959   0.832   1.038  0.00  0.00    +0.080 C 
ATOM     24  C   LIG    1        0.251   1.592   0.154  0.00  0.00    +0.070 C 
ATOM     25  C   LIG    1       -0.157  -0.836   0.575  0.00  0.00    +0.050 C 
ENDBRANCH  18  22
ENDBRANCH  12  16
TORSDOF 2
