REMARK  Name = ZINCpk00000y0YyE.0
REMARK                            x       y       z     vdW  Elec       q    Type
REMARK                         _______ _______ _______ _____ _____    ______ ____
ROOT
ATOM      1  C   LIG    1        0.631   2.055  -1.025  0.00  0.00    +0.040 C 
ATOM      2  C   LIG    1        0.257   1.616   0.367  0.00  0.00    +0.270 C 
ATOM      3  N   LIG    1        1.164   1.242   1.206  0.00  0.00    -0.470 NA
ATOM      4  C   LIG    1        2.467   1.245   0.885  0.00  0.00    +0.500 C 
ATOM      5  N   LIG    1        2.921   1.913  -0.191  0.00  0.00    -0.670 N 
ATOM      6  H   LIG    1        3.856   1.850  -0.440  0.00  0.00    +0.430 HD
ATOM      7  S   LIG    1        3.575   0.386   1.867  0.00  0.00    -0.490 S 
ATOM      8  C   LIG    1       -1.191   1.613   0.784  0.00  0.00    +0.170 C 
ATOM      9  C   LIG    1        2.004   2.732  -0.990  0.00  0.00    +0.300 C 
ENDROOT
BRANCH   9  10
ATOM     10  C   LIG    1        2.539   2.864  -2.392  0.00  0.00    -0.080 A 
ATOM     11  C   LIG    1        3.201   1.801  -2.980  0.00  0.00    +0.010 A 
ATOM     12  C   LIG    1        3.688   1.913  -4.266  0.00  0.00    +0.100 A 
ATOM     13  C   LIG    1        3.522   3.108  -4.970  0.00  0.00    -0.100 A 
ATOM     14  C   LIG    1        2.859   4.179  -4.368  0.00  0.00    +0.090 A 
ATOM     15  C   LIG    1        2.371   4.051  -3.084  0.00  0.00    +0.040 A 
BRANCH  13  16
ATOM     16  C   LIG    1        4.047   3.238  -6.345  0.00  0.00    +0.510 C 
ATOM     17  O   LIG    1        3.900   4.278  -6.955  0.00  0.00    -0.500 OA
BRANCH  16  18
ATOM     18  O   LIG    1        4.687   2.203  -6.922  0.00  0.00    -0.350 OA
ATOM     19  C   LIG    1        5.175   2.401  -8.275  0.00  0.00    +0.280 C 
ENDBRANCH  16  18
ENDBRANCH  13  16
ENDBRANCH   9  10
BRANCH   1  20
ATOM     20  C   LIG    1        0.686   0.854  -1.935  0.00  0.00    +0.480 C 
ATOM     21  O   LIG    1        1.124  -0.195  -1.525  0.00  0.00    -0.490 OA
BRANCH  20  22
ATOM     22  O   LIG    1        0.248   0.950  -3.200  0.00  0.00    -0.330 OA
BRANCH  22  23
ATOM     23  C   LIG    1        0.331  -0.246  -4.019  0.00  0.00    +0.240 C 
BRANCH  23  24
ATOM     24  C   LIG    1       -0.210   0.055  -5.418  0.00  0.00    +0.200 C 
BRANCH  24  26
ATOM     25  C   LIG    1        0.217   1.364  -7.380  0.00  0.00    +0.190 C 
ATOM     26  O   LIG    1        0.636   1.011  -6.060  0.00  0.00    -0.380 OA
ENDBRANCH  24  26
ENDBRANCH  23  24
ENDBRANCH  22  23
ENDBRANCH  20  22
ENDBRANCH   1  20
TORSDOF 8
