REMARK  Name = ZINCpk00000xIgNL.0
REMARK                            x       y       z     vdW  Elec       q    Type
REMARK                         _______ _______ _______ _____ _____    ______ ____
ROOT
ATOM      1  N   LIG    1       -5.700  -1.134  -3.707  0.00  0.00    -0.670 N 
ATOM      2  H   LIG    1       -5.599  -0.190  -3.901  0.00  0.00    +0.410 HD
ATOM      3  C   LIG    1       -4.787  -1.766  -2.942  0.00  0.00    +0.520 C 
ATOM      4  O   LIG    1       -4.965  -2.921  -2.615  0.00  0.00    -0.510 OA
ENDROOT
BRANCH   1   9
ATOM      5  C   LIG    1       -7.801  -3.913  -4.913  0.00  0.00    -0.110 A 
ATOM      6  C   LIG    1       -8.974  -3.228  -5.236  0.00  0.00    +0.070 A 
ATOM      7  C   LIG    1       -9.049  -1.863  -5.050  0.00  0.00    +0.030 A 
ATOM      8  C   LIG    1       -7.968  -1.170  -4.538  0.00  0.00    -0.080 A 
ATOM      9  C   LIG    1       -6.794  -1.842  -4.219  0.00  0.00    +0.130 A 
ATOM     10  C   LIG    1       -8.061   0.320  -4.331  0.00  0.00    +0.110 C 
ATOM     11  C   LIG    1       -6.708  -3.213  -4.402  0.00  0.00    +0.100 A 
BRANCH   5  12
ATOM     12  C   LIG    1       -7.718  -5.375  -5.111  0.00  0.00    +0.510 C 
ATOM     13  O   LIG    1       -6.697  -5.969  -4.829  0.00  0.00    -0.500 OA
BRANCH  12  15
ATOM     14  C   LIG    1       -8.622  -7.483  -5.773  0.00  0.00    +0.260 C 
ATOM     15  O   LIG    1       -8.775  -6.049  -5.605  0.00  0.00    -0.360 OA
ENDBRANCH  12  15
ENDBRANCH   5  12
ENDBRANCH   1   9
BRANCH   3  16
ATOM     16  C   LIG    1       -3.546  -1.038  -2.494  0.00  0.00    +0.050 C 
BRANCH  16  17
ATOM     17  C   LIG    1       -2.684  -1.975  -1.645  0.00  0.00    +0.350 C 
BRANCH  17  18
ATOM     18  N   LIG    1       -1.478  -1.267  -1.210  0.00  0.00    -0.580 N 
ATOM     19  C   LIG    1       -0.330  -1.244  -1.897  0.00  0.00    +0.700 C 
ATOM     20  N   LIG    1        0.628  -0.524  -1.278  0.00  0.00    -0.720 N 
ATOM     21  H   LIG    1        1.534  -0.371  -1.590  0.00  0.00    +0.440 HD
ATOM     22  C   LIG    1        0.027  -0.013  -0.034  0.00  0.00    +0.120 C 
ATOM     23  C   LIG    1        0.782  -0.544   1.186  0.00  0.00    +0.090 C 
ATOM     24  C   LIG    1        0.013   1.517  -0.032  0.00  0.00    +0.090 C 
ATOM     25  O   LIG    1       -0.168  -1.810  -2.961  0.00  0.00    -0.540 OA
ATOM     26  C   LIG    1       -1.386  -0.559  -0.066  0.00  0.00    +0.530 C 
ATOM     27  O   LIG    1       -2.254  -0.395   0.764  0.00  0.00    -0.460 OA
ENDBRANCH  17  18
ENDBRANCH  16  17
ENDBRANCH   3  16
TORSDOF 6
