REMARK  Name = ZINCvU0000000G5Q.0
REMARK                            x       y       z     vdW  Elec       q    Type
REMARK                         _______ _______ _______ _____ _____    ______ ____
ROOT
ATOM      1  N   LIG    1        1.070  -4.035  -0.030  0.00  0.00    -0.660 N 
ATOM      2  H   LIG    1        0.385  -4.717   0.054  0.00  0.00    +0.420 HD
ATOM      3  C   LIG    1        2.365  -4.391  -0.146  0.00  0.00    +0.560 C 
ATOM      4  O   LIG    1        3.232  -3.538  -0.150  0.00  0.00    -0.490 OA
ENDROOT
BRANCH   1  17
ATOM      5  C   LIG    1       -0.472  -2.276   0.586  0.00  0.00    +0.090 A 
ATOM      6  C   LIG    1       -0.827  -0.941   0.588  0.00  0.00    +0.010 A 
ATOM      7  C   LIG    1        0.000  -0.004  -0.027  0.00  0.00    -0.100 A 
ATOM      8  C   LIG    1        1.191  -0.408  -0.646  0.00  0.00    +0.080 A 
ATOM      9  O   LIG    1        1.800   0.685  -1.160  0.00  0.00    -0.200 OA
ATOM     10  C   LIG    1        1.086   1.808  -0.921  0.00  0.00    +0.090 A 
ATOM     11  C   LIG    1        1.304   3.141  -1.248  0.00  0.00    +0.020 A 
ATOM     12  C   LIG    1        0.391   4.103  -0.871  0.00  0.00    +0.060 A 
ATOM     13  C   LIG    1       -0.750   3.755  -0.166  0.00  0.00    -0.010 A 
ATOM     14  C   LIG    1       -0.986   2.436   0.163  0.00  0.00    +0.070 A 
ATOM     15  C   LIG    1        1.538  -1.753  -0.642  0.00  0.00    +0.070 A 
ATOM     16  C   LIG    1       -0.069   1.458  -0.208  0.00  0.00    -0.120 A 
ATOM     17  C   LIG    1        0.714  -2.681  -0.030  0.00  0.00    +0.170 A 
BRANCH   5  19
ATOM     18  C   LIG    1       -2.473  -2.709   1.797  0.00  0.00    +0.250 C 
ATOM     19  O   LIG    1       -1.276  -3.195   1.185  0.00  0.00    -0.320 OA
ENDBRANCH   5  19
ENDBRANCH   1  17
BRANCH   3  20
ATOM     20  C   LIG    1        2.730  -5.815  -0.268  0.00  0.00    -0.180 A 
ATOM     21  C   LIG    1        1.738  -6.798  -0.264  0.00  0.00    +0.090 A 
ATOM     22  C   LIG    1        2.086  -8.126  -0.379  0.00  0.00    -0.040 A 
ATOM     23  C   LIG    1        3.416  -8.492  -0.498  0.00  0.00    +0.080 A 
ATOM     24  C   LIG    1        4.407  -7.531  -0.504  0.00  0.00    -0.080 A 
ATOM     25  C   LIG    1        4.075  -6.189  -0.395  0.00  0.00    +0.190 A 
BRANCH  25  26
ATOM     26  O   LIG    1        5.048  -5.243  -0.406  0.00  0.00    -0.270 OA
BRANCH  26  27
ATOM     27  C   LIG    1        6.395  -5.700  -0.538  0.00  0.00    +0.180 C 
BRANCH  27  28
ATOM     28  C   LIG    1        7.343  -4.499  -0.530  0.00  0.00    +0.170 C 
ATOM     29  C   LIG    1        8.790  -4.973  -0.788  0.00  0.00    +0.020 C 
ATOM     30  C   LIG    1        9.609  -4.072   0.177  0.00  0.00    +0.010 C 
ATOM     31  C   LIG    1        8.618  -3.932   1.361  0.00  0.00    +0.190 C 
ATOM     32  O   LIG    1        7.317  -3.868   0.755  0.00  0.00    -0.360 OA
ENDBRANCH  27  28
ENDBRANCH  26  27
ENDBRANCH  25  26
ENDBRANCH   3  20
TORSDOF 6
