REMARK  Name = ZINCqH0000037Fwq.0
REMARK                            x       y       z     vdW  Elec       q    Type
REMARK                         _______ _______ _______ _____ _____    ______ ____
ROOT
ATOM      1  N   LIG    1       -0.663   1.291  -3.741  0.00  0.00    -0.630 N 
ATOM      2  H   LIG    1       -1.613   1.488  -3.771  0.00  0.00    +0.420 HD
ATOM      3  C   LIG    1        0.059   1.617  -2.652  0.00  0.00    +0.500 C 
ATOM      4  O   LIG    1        1.246   1.370  -2.614  0.00  0.00    -0.500 OA
ENDROOT
BRANCH   1   8
ATOM      5  C   LIG    1        2.832  -0.789  -6.643  0.00  0.00    +0.150 C 
ATOM      6  C   LIG    1        1.519  -0.262  -6.122  0.00  0.00    +0.100 A 
ATOM      7  C   LIG    1        1.315   0.322  -4.920  0.00  0.00    -0.080 A 
ATOM      8  C   LIG    1       -0.044   0.665  -4.831  0.00  0.00    +0.310 A 
ATOM      9  N   LIG    1       -0.634   0.292  -5.942  0.00  0.00    -0.310 NA
ATOM     10  N   LIG    1        0.329  -0.290  -6.776  0.00  0.00    -0.320 N 
BRANCH  10  11
ATOM     11  C   LIG    1        0.103  -0.815  -8.055  0.00  0.00    +0.170 A 
ATOM     12  C   LIG    1        0.693  -2.015  -8.429  0.00  0.00    +0.020 A 
ATOM     13  C   LIG    1        0.469  -2.530  -9.691  0.00  0.00    +0.070 A 
ATOM     14  C   LIG    1       -0.342  -1.852 -10.582  0.00  0.00    +0.030 A 
ATOM     15  C   LIG    1       -0.931  -0.655 -10.213  0.00  0.00    -0.020 A 
ATOM     16 CL   LIG    1       -1.950   0.193 -11.335  0.00  0.00    -0.050 Cl
ATOM     17  C   LIG    1       -0.715  -0.138  -8.950  0.00  0.00    +0.040 A 
ENDBRANCH  10  11
ENDBRANCH   1   8
BRANCH   3  18
ATOM     18  C   LIG    1       -0.607   2.291  -1.480  0.00  0.00    +0.140 C 
ATOM     19  C   LIG    1       -0.657   3.801  -1.719  0.00  0.00    +0.100 C 
BRANCH  18  20
ATOM     20  O   LIG    1       -1.937   1.788  -1.334  0.00  0.00    -0.540 OA
ATOM     21  H   LIG    1       -1.982   0.834  -1.179  0.00  0.00    +0.380 HD
ENDBRANCH  18  20
BRANCH  18  22
ATOM     22  C   LIG    1        0.189   2.002  -0.205  0.00  0.00    +0.090 C 
BRANCH  22  23
ATOM     23  C   LIG    1       -0.478   2.675   0.967  0.00  0.00    -0.080 A 
ATOM     24  C   LIG    1       -0.121   3.964   1.319  0.00  0.00    +0.010 A 
ATOM     25  C   LIG    1       -0.736   4.583   2.391  0.00  0.00    +0.000 A 
ATOM     26  C   LIG    1       -1.700   3.910   3.118  0.00  0.00    +0.000 A 
ATOM     27  C   LIG    1       -2.053   2.619   2.769  0.00  0.00    +0.000 A 
ATOM     28  C   LIG    1       -1.442   2.002   1.694  0.00  0.00    +0.020 A 
ENDBRANCH  22  23
ENDBRANCH  18  22
ENDBRANCH   3  18
TORSDOF 6
