REMARK  Name = ZINCpe000000U3zu.0
REMARK                            x       y       z     vdW  Elec       q    Type
REMARK                         _______ _______ _______ _____ _____    ______ ____
ROOT
ATOM      1  N   LIG    1        1.078   2.103   0.093  0.00  0.00    -0.730 N 
ATOM      2  H   LIG    1        1.921   1.637  -0.016  0.00  0.00    +0.410 HD
ATOM      3  C   LIG    1       -0.069   1.404   0.208  0.00  0.00    +0.710 C 
ATOM      4  N   LIG    1       -0.035   0.058   0.263  0.00  0.00    -0.630 N 
ATOM      5  C   LIG    1        1.230  -0.667   0.084  0.00  0.00    +0.280 C 
ATOM      6  C   LIG    1        1.056  -1.708  -1.020  0.00  0.00    +0.030 C 
ATOM      7  C   LIG    1       -0.141  -2.604  -0.688  0.00  0.00    +0.240 C 
ATOM      8  C   LIG    1       -1.412  -1.754  -0.617  0.00  0.00    +0.030 C 
ATOM      9  C   LIG    1       -1.264  -0.713   0.497  0.00  0.00    +0.310 C 
ATOM     10  O   LIG    1       -1.134   1.988   0.258  0.00  0.00    -0.580 OA
ENDROOT
BRANCH   7  11
ATOM     11  N   LIG    1       -0.292  -3.622  -1.730  0.00  0.00    -0.460 N 
ATOM     12  C   LIG    1       -0.237  -4.979  -1.554  0.00  0.00    +0.110 A 
ATOM     13  C   LIG    1       -0.425  -5.536  -2.766  0.00  0.00    +0.140 A 
ATOM     14  N   LIG    1       -0.589  -4.548  -3.657  0.00  0.00    -0.490 NA
ATOM     15  C   LIG    1       -0.517  -3.398  -3.043  0.00  0.00    +0.380 A 
ENDBRANCH   7  11
BRANCH   1  16
ATOM     16  C   LIG    1        1.050   3.567   0.131  0.00  0.00    +0.260 C 
BRANCH  16  17
ATOM     17  C   LIG    1        2.389   4.083   0.594  0.00  0.00    +0.520 C 
ATOM     18  N   LIG    1        2.513   5.359   1.008  0.00  0.00    -0.610 N 
ATOM     19  C   LIG    1        1.337   6.238   1.117  0.00  0.00    +0.260 C 
ATOM     20  C   LIG    1        1.349   6.884   2.511  0.00  0.00    +0.220 C 
ATOM     21  O   LIG    1        2.622   7.497   2.733  0.00  0.00    -0.380 OA
ATOM     22  C   LIG    1        3.720   6.581   2.737  0.00  0.00    +0.220 C 
ATOM     23  C   LIG    1        3.828   5.917   1.359  0.00  0.00    +0.260 C 
ATOM     24  O   LIG    1        3.354   3.349   0.593  0.00  0.00    -0.530 OA
ENDBRANCH  16  17
BRANCH  16  26
ATOM     25  C   LIG    1       -0.665   3.700  -1.681  0.00  0.00    +0.030 C 
ATOM     26  C   LIG    1        0.751   4.109  -1.268  0.00  0.00    +0.020 C 
ENDBRANCH  16  26
ENDBRANCH   1  16
TORSDOF 4
