REMARK  Name = ZINCqH0000008pvS.0
REMARK                            x       y       z     vdW  Elec       q    Type
REMARK                         _______ _______ _______ _____ _____    ______ ____
ROOT
ATOM      1  N   LIG    1        2.340   5.090   0.894  0.00  0.00    -0.720 N 
ATOM      2  H   LIG    1        1.469   5.470   1.089  0.00  0.00    +0.400 HD
ATOM      3  C   LIG    1        3.447   5.624   1.447  0.00  0.00    +0.520 C 
ATOM      4  O   LIG    1        4.536   5.149   1.203  0.00  0.00    -0.510 OA
ENDROOT
BRANCH   3   5
ATOM      5  C   LIG    1        3.332   6.812   2.367  0.00  0.00    +0.180 C 
ATOM      6  C   LIG    1        2.561   6.435   3.654  0.00  0.00    +0.110 C 
ATOM      7  C   LIG    1        3.289   7.249   4.706  0.00  0.00    -0.160 A 
ATOM      8  C   LIG    1        2.961   7.595   5.998  0.00  0.00    +0.080 A 
ATOM      9  C   LIG    1        3.829   8.371   6.747  0.00  0.00    -0.060 A 
ATOM     10  C   LIG    1        5.024   8.795   6.193  0.00  0.00    +0.080 A 
ATOM     11  C   LIG    1        5.355   8.445   4.900  0.00  0.00    +0.020 A 
ATOM     12 CL   LIG    1        3.420   8.811   8.376  0.00  0.00    -0.060 Cl
ATOM     13  C   LIG    1        4.489   7.663   4.141  0.00  0.00    +0.110 A 
ATOM     14  O   LIG    1        4.623   7.193   2.870  0.00  0.00    -0.270 OA
ENDBRANCH   3   5
BRANCH   1  16
ATOM     15  C   LIG    1        2.750   4.418  -1.421  0.00  0.00    +0.040 C 
ATOM     16  C   LIG    1        2.452   3.935  -0.000  0.00  0.00    +0.290 C 
BRANCH  16  17
ATOM     17  C   LIG    1        1.156   3.166   0.007  0.00  0.00    -0.100 A 
ATOM     18  C   LIG    1        1.174   1.783   0.000  0.00  0.00    +0.060 A 
ATOM     19  C   LIG    1       -0.013   1.076   0.008  0.00  0.00    +0.010 A 
ATOM     20  C   LIG    1       -1.224   1.754   0.017  0.00  0.00    +0.140 A 
ATOM     21  C   LIG    1       -1.238   3.142   0.029  0.00  0.00    +0.000 A 
ATOM     22  C   LIG    1       -0.049   3.844   0.022  0.00  0.00    +0.040 A 
BRANCH  20  23
ATOM     23  N   LIG    1       -2.430   1.039   0.019  0.00  0.00    -0.410 N 
ATOM     24  C   LIG    1       -3.693   1.571   0.034  0.00  0.00    +0.120 A 
ATOM     25  C   LIG    1       -4.553   0.534   0.027  0.00  0.00    +0.160 A 
ATOM     26  N   LIG    1       -3.840  -0.601   0.018  0.00  0.00    -0.480 NA
ATOM     27  C   LIG    1       -2.567  -0.313   0.013  0.00  0.00    +0.400 A 
ENDBRANCH  20  23
ENDBRANCH  16  17
ENDBRANCH   1  16
TORSDOF 4
