REMARK  Name = ZINCpe00000R8QnO.0
REMARK                            x       y       z     vdW  Elec       q    Type
REMARK                         _______ _______ _______ _____ _____    ______ ____
ROOT
ATOM      1  N   LIG    1        1.857   4.747   1.384  0.00  0.00    -0.740 N 
ATOM      2  H   LIG    1        1.565   4.185   2.118  0.00  0.00    +0.400 HD
ATOM      3  C   LIG    1        2.622   5.830   1.627  0.00  0.00    +0.710 C 
ATOM      4  N   LIG    1        2.895   6.191   2.896  0.00  0.00    -0.630 N 
ATOM      5  C   LIG    1        2.461   5.358   4.028  0.00  0.00    +0.290 C 
ATOM      6  C   LIG    1        1.717   6.248   5.030  0.00  0.00    +0.190 C 
ATOM      7  N   LIG    1        2.566   7.391   5.389  0.00  0.00    -0.530 NA
ATOM      8  C   LIG    1        2.844   8.237   4.221  0.00  0.00    +0.270 C 
ATOM      9  C   LIG    1        1.962   8.175   6.475  0.00  0.00    +0.200 C 
ATOM     10  C   LIG    1        3.640   7.426   3.186  0.00  0.00    +0.340 C 
ATOM     11  O   LIG    1        3.066   6.481   0.701  0.00  0.00    -0.580 OA
ENDROOT
BRANCH   8  12
ATOM     12  C   LIG    1        3.652   9.435   4.649  0.00  0.00    +0.190 A 
ATOM     13  N   LIG    1        3.451  10.680   4.292  0.00  0.00    -0.470 NA
ATOM     14  C   LIG    1        4.408  11.394   4.912  0.00  0.00    +0.200 A 
ATOM     15  N   LIG    1        5.129  10.561   5.601  0.00  0.00    -0.380 NA
ATOM     16  O   LIG    1        4.708   9.431   5.468  0.00  0.00    +0.100 OA
BRANCH  14  17
ATOM     17  C   LIG    1        4.607  12.885   4.824  0.00  0.00    +0.060 C 
ATOM     18  C   LIG    1        5.877  13.466   5.448  0.00  0.00    +0.050 C 
ATOM     19  C   LIG    1        4.523  13.687   6.125  0.00  0.00    +0.050 C 
ENDBRANCH  14  17
ENDBRANCH   8  12
BRANCH   1  20
ATOM     20  C   LIG    1        1.469   4.418   0.010  0.00  0.00    +0.390 C 
BRANCH  20  26
ATOM     21  C   LIG    1        2.473   1.446  -0.016  0.00  0.00    +0.330 C 
ATOM     22  N   LIG    1        1.073   1.879   0.000  0.00  0.00    -0.450 N 
ATOM     23  C   LIG    1       -0.013   1.076   0.007  0.00  0.00    +0.400 A 
ATOM     24  N   LIG    1       -1.084   1.822   0.018  0.00  0.00    -0.490 NA
ATOM     25  C   LIG    1       -0.723   3.114   0.026  0.00  0.00    +0.180 A 
ATOM     26  C   LIG    1        0.622   3.171   0.012  0.00  0.00    -0.060 A 
ENDBRANCH  20  26
ENDBRANCH   1  20
TORSDOF 4
