REMARK  Name = ZINCrD00000F5LG1.0
REMARK                            x       y       z     vdW  Elec       q    Type
REMARK                         _______ _______ _______ _____ _____    ______ ____
ROOT
ATOM      1  N   LIG    1       -5.586   1.090  -0.071  0.00  0.00    -0.720 N 
ATOM      2  H   LIG    1       -5.421   0.795   0.839  0.00  0.00    +0.400 HD
ATOM      3  C   LIG    1       -6.495   0.450  -0.833  0.00  0.00    +0.600 C 
ATOM      4  O   LIG    1       -6.702   0.820  -1.973  0.00  0.00    -0.520 OA
ENDROOT
BRANCH   1  13
ATOM      5  C   LIG    1        1.280   1.980   0.001  0.00  0.00    +0.090 C 
ATOM      6  C   LIG    1       -0.014   1.209   0.009  0.00  0.00    +0.530 C 
ATOM      7  N   LIG    1       -1.191   1.867   0.018  0.00  0.00    -0.630 N 
ATOM      8  C   LIG    1       -1.360   3.343   0.033  0.00  0.00    +0.270 C 
ATOM      9  C   LIG    1       -2.751   3.545  -0.580  0.00  0.00    -0.010 C 
ATOM     10  C   LIG    1       -3.474   4.828  -0.235  0.00  0.00    +0.030 C 
ATOM     11  C   LIG    1       -4.874   4.754  -0.869  0.00  0.00    +0.020 C 
ATOM     12  C   LIG    1       -5.645   3.528  -0.391  0.00  0.00    +0.010 C 
ATOM     13  C   LIG    1       -4.848   2.232  -0.616  0.00  0.00    +0.260 C 
ATOM     14  C   LIG    1       -3.529   2.390   0.113  0.00  0.00    -0.030 C 
ATOM     15  C   LIG    1       -2.534   1.240   0.021  0.00  0.00    +0.260 C 
ATOM     16  O   LIG    1        0.002  -0.004   0.002  0.00  0.00    -0.540 OA
ENDBRANCH   1  13
BRANCH   3  17
ATOM     17  C   LIG    1       -7.234  -0.693  -0.287  0.00  0.00    -0.320 A 
ATOM     18  C   LIG    1       -8.183  -1.427  -0.945  0.00  0.00    +0.320 A 
ATOM     19  N   LIG    1       -8.691  -2.399  -0.234  0.00  0.00    -0.470 NA
ATOM     20  C   LIG    1       -8.250  -2.541   0.985  0.00  0.00    +0.090 A 
ATOM     21  S   LIG    1       -7.064  -1.361   1.334  0.00  0.00    +0.230 S 
BRANCH  20  22
ATOM     22  C   LIG    1       -8.711  -3.578   1.931  0.00  0.00    -0.070 A 
ATOM     23  C   LIG    1       -9.688  -4.496   1.544  0.00  0.00    +0.110 A 
ATOM     24  C   LIG    1      -10.114  -5.462   2.432  0.00  0.00    +0.010 A 
ATOM     25  C   LIG    1       -9.576  -5.522   3.706  0.00  0.00    +0.070 A 
ATOM     26  C   LIG    1       -8.607  -4.616   4.098  0.00  0.00    +0.000 A 
ATOM     27  C   LIG    1       -8.167  -3.647   3.217  0.00  0.00    +0.110 A 
ATOM     28  F   LIG    1       -7.216  -2.765   3.599  0.00  0.00    -0.130 F 
ENDBRANCH  20  22
ENDBRANCH   3  17
TORSDOF 3
