REMARK  Name = ZINCnE00000hdanT.1
REMARK                            x       y       z     vdW  Elec       q    Type
REMARK                         _______ _______ _______ _____ _____    ______ ____
ROOT
ATOM      1  N   LIG    1        8.581   4.920   0.790  0.00  0.00    -0.490 N 
ATOM      2  C   LIG    1        8.137   5.070  -0.601  0.00  0.00    +0.190 C 
ATOM      3  C   LIG    1        6.610   5.152  -0.644  0.00  0.00    +0.030 C 
ATOM      4  C   LIG    1        6.018   3.878  -0.035  0.00  0.00    +0.250 C 
ATOM      5  C   LIG    1        6.534   3.719   1.397  0.00  0.00    +0.020 C 
ATOM      6  C   LIG    1        8.064   3.679   1.381  0.00  0.00    +0.180 C 
ENDROOT
BRANCH   1  11
ATOM      7  C   LIG    1       11.975   4.904   2.200  0.00  0.00    -0.060 A 
ATOM      8  C   LIG    1       12.733   5.080   1.057  0.00  0.00    -0.030 A 
ATOM      9  C   LIG    1       12.116   5.202  -0.174  0.00  0.00    +0.030 A 
ATOM     10  C   LIG    1       10.739   5.145  -0.267  0.00  0.00    -0.050 A 
ATOM     11  C   LIG    1        9.974   4.974   0.880  0.00  0.00    +0.120 A 
ATOM     12  C   LIG    1       10.598   4.851   2.115  0.00  0.00    -0.020 A 
BRANCH   7  14
ATOM     13  C   LIG    1       12.948   3.296   3.817  0.00  0.00    +0.020 C 
ATOM     14  C   LIG    1       12.652   4.771   3.540  0.00  0.00    +0.060 C 
ENDBRANCH   7  14
ENDBRANCH   1  11
BRANCH   4  15
ATOM     15  N   LIG    1        4.556   3.976  -0.021  0.00  0.00    -0.740 N 
ATOM     16  H   LIG    1        4.128   4.846  -0.012  0.00  0.00    +0.390 HD
ATOM     17  C   LIG    1        3.806   2.856  -0.019  0.00  0.00    +0.650 C 
ATOM     18  N   LIG    1        2.461   2.946  -0.006  0.00  0.00    -0.710 NA
ATOM     19  O   LIG    1        4.342   1.765  -0.030  0.00  0.00    -0.630 OA
BRANCH  18  20
ATOM     20  C   LIG    1        1.688   1.791  -0.004  0.00  0.00    +0.360 A 
ATOM     21  N   LIG    1        2.157   0.583  -0.015  0.00  0.00    -0.570 NA
ATOM     22  C   LIG    1        1.276  -0.401  -0.012  0.00  0.00    +0.230 A 
ATOM     23  C   LIG    1        0.002  -0.004   0.002  0.00  0.00    -0.220 A 
ATOM     24  S   LIG    1       -0.022   1.758   0.012  0.00  0.00    -0.000 S 
ENDBRANCH  18  20
ENDBRANCH   4  15
TORSDOF 4
