REMARK  Name = ZINCpk00000y6xuO.0
REMARK                            x       y       z     vdW  Elec       q    Type
REMARK                         _______ _______ _______ _____ _____    ______ ____
ROOT
ATOM      1  C   LIG    1       -2.606  -2.708   0.260  0.00  0.00    +0.140 C 
ATOM      2  C   LIG    1       -1.258  -2.064  -0.128  0.00  0.00    +0.180 C 
ATOM      3  N   LIG    1       -1.626  -0.748  -0.711  0.00  0.00    -0.490 NA
ATOM      4  C   LIG    1       -2.736  -0.264   0.150  0.00  0.00    +0.180 C 
ATOM      5  C   LIG    1       -3.578  -1.524   0.443  0.00  0.00    +0.000 C 
ATOM      6  C   LIG    1       -4.110  -1.486   1.877  0.00  0.00    +0.050 C 
ENDROOT
BRANCH   1  12
ATOM      7  C   LIG    1       -0.767  -7.490   3.946  0.00  0.00    +0.100 C 
ATOM      8  C   LIG    1       -2.124  -6.889   3.685  0.00  0.00    +0.510 C 
ATOM      9  N   LIG    1       -2.226  -5.612   3.266  0.00  0.00    -0.620 N 
ATOM     10  C   LIG    1       -3.540  -4.968   3.123  0.00  0.00    +0.300 C 
ATOM     11  C   LIG    1       -3.626  -4.344   1.726  0.00  0.00    +0.180 C 
ATOM     12  N   LIG    1       -2.473  -3.457   1.517  0.00  0.00    -0.520 NA
ATOM     13  C   LIG    1       -1.211  -4.208   1.551  0.00  0.00    +0.160 C 
ATOM     14  C   LIG    1       -1.026  -4.826   2.941  0.00  0.00    +0.280 C 
ATOM     15  O   LIG    1       -3.124  -7.555   3.850  0.00  0.00    -0.550 OA
ENDBRANCH   1  12
BRANCH   3  16
ATOM     16  C   LIG    1       -0.488   0.180  -0.675  0.00  0.00    +0.300 C 
ATOM     17  C   LIG    1       -0.983   1.604  -0.939  0.00  0.00    +0.080 C 
BRANCH  16  18
ATOM     18  C   LIG    1        0.167   0.119   0.680  0.00  0.00    +0.150 A 
ATOM     19  N   LIG    1        1.454   0.056   0.923  0.00  0.00    -0.470 NA
ATOM     20  C   LIG    1        1.568   0.020   2.263  0.00  0.00    +0.200 A 
ATOM     21  N   LIG    1        0.367   0.062   2.757  0.00  0.00    -0.380 NA
ATOM     22  O   LIG    1       -0.452   0.126   1.865  0.00  0.00    +0.080 OA
BRANCH  20  23
ATOM     23  C   LIG    1        2.853  -0.057   3.047  0.00  0.00    +0.060 C 
ATOM     24  C   LIG    1        2.747  -0.293   4.555  0.00  0.00    +0.050 C 
ATOM     25  C   LIG    1        3.154   1.083   4.022  0.00  0.00    +0.050 C 
ENDBRANCH  20  23
ENDBRANCH  16  18
ENDBRANCH   3  16
TORSDOF 4
