REMARK  Name = ZINCrH000004sVio.0
REMARK                            x       y       z     vdW  Elec       q    Type
REMARK                         _______ _______ _______ _____ _____    ______ ____
ROOT
ATOM      1  N   LIG    1        3.712  -0.244   3.176  0.00  0.00    -0.480 N 
ATOM      2  C   LIG    1        3.489   1.205   3.084  0.00  0.00    +0.200 C 
ATOM      3  C   LIG    1        1.986   1.488   3.029  0.00  0.00    +0.070 C 
ATOM      4  C   LIG    1        1.383   0.780   1.812  0.00  0.00    -0.010 C 
ATOM      5  C   LIG    1        1.671  -0.720   1.908  0.00  0.00    +0.050 C 
ATOM      6  C   LIG    1        3.184  -0.939   1.996  0.00  0.00    +0.210 C 
ENDROOT
BRANCH   1  11
ATOM      7  C   LIG    1        4.895  -3.082   7.750  0.00  0.00    +0.140 C 
ATOM      8  C   LIG    1        5.458  -2.432   6.513  0.00  0.00    -0.180 A 
ATOM      9  C   LIG    1        4.733  -1.805   5.607  0.00  0.00    -0.060 A 
ATOM     10  C   LIG    1        5.488  -1.253   4.498  0.00  0.00    -0.140 A 
ATOM     11  C   LIG    1        5.054  -0.527   3.360  0.00  0.00    +0.400 A 
ATOM     12  N   LIG    1        5.953  -0.131   2.471  0.00  0.00    -0.550 NA
ATOM     13  C   LIG    1        7.238  -0.389   2.636  0.00  0.00    +0.520 A 
ATOM     14  N   LIG    1        7.689  -1.057   3.672  0.00  0.00    -0.490 NA
ATOM     15  C   LIG    1        6.857  -1.505   4.621  0.00  0.00    +0.090 A 
ATOM     16  C   LIG    1        3.236  -1.672   5.716  0.00  0.00    +0.140 C 
ATOM     17  S   LIG    1        7.161  -2.410   6.096  0.00  0.00    +0.170 S 
ENDBRANCH   1  11
BRANCH   4  18
ATOM     18  C   LIG    1       -0.107   1.006   1.785  0.00  0.00    +0.520 C 
ATOM     19  N   LIG    1       -0.852   0.473   0.796  0.00  0.00    -0.610 N 
ATOM     20  C   LIG    1       -0.213  -0.326  -0.253  0.00  0.00    +0.290 C 
ATOM     21  O   LIG    1       -0.636   1.667   2.654  0.00  0.00    -0.530 OA
BRANCH  19  22
ATOM     22  C   LIG    1       -2.300   0.692   0.771  0.00  0.00    +0.420 C 
BRANCH  22  23
ATOM     23  C   LIG    1       -2.988  -0.407   1.539  0.00  0.00    -0.040 A 
ATOM     24  C   LIG    1       -3.269  -0.390   2.854  0.00  0.00    -0.030 A 
ATOM     25  C   LIG    1       -3.915  -1.613   3.151  0.00  0.00    -0.070 A 
ATOM     26  C   LIG    1       -3.982  -2.307   2.001  0.00  0.00    +0.160 A 
ATOM     27  O   LIG    1       -3.420  -1.572   1.028  0.00  0.00    -0.180 OA
ENDBRANCH  22  23
ENDBRANCH  19  22
ENDBRANCH   4  18
TORSDOF 4
