REMARK  Name = ZINCrD00000F5LAk.0
REMARK                            x       y       z     vdW  Elec       q    Type
REMARK                         _______ _______ _______ _____ _____    ______ ____
ROOT
ATOM      1  N   LIG    1       -2.439  -0.149   0.026  0.00  0.00    -0.710 N 
ATOM      2  H   LIG    1       -2.471   0.821   0.032  0.00  0.00    +0.400 HD
ATOM      3  C   LIG    1       -1.250  -0.783   0.011  0.00  0.00    +0.570 C 
ATOM      4  O   LIG    1       -1.210  -1.999   0.004  0.00  0.00    -0.530 OA
ENDROOT
BRANCH   3   5
ATOM      5  C   LIG    1        0.002  -0.004   0.002  0.00  0.00    -0.140 A 
ATOM      6  C   LIG    1       -0.017   1.388   0.010  0.00  0.00    +0.070 A 
ATOM      7  C   LIG    1        1.154   2.139   0.003  0.00  0.00    +0.000 A 
ATOM      8  C   LIG    1        2.379   1.542  -0.013  0.00  0.00    -0.040 A 
ATOM      9  C   LIG    1        3.799   2.059  -0.024  0.00  0.00    +0.100 C 
ATOM     10  C   LIG    1        4.693   0.801  -0.039  0.00  0.00    +0.100 C 
ATOM     11  C   LIG    1        3.737  -0.367  -0.036  0.00  0.00    -0.080 A 
ATOM     12  C   LIG    1        3.881  -1.722  -0.046  0.00  0.00    +0.030 A 
ATOM     13  C   LIG    1        2.758  -2.551  -0.040  0.00  0.00    +0.030 A 
ATOM     14  C   LIG    1        1.485  -2.054  -0.025  0.00  0.00    +0.050 A 
ATOM     15  C   LIG    1        2.446   0.152  -0.021  0.00  0.00    -0.090 A 
ATOM     16  C   LIG    1        1.304  -0.666  -0.014  0.00  0.00    -0.000 A 
ENDBRANCH   3   5
BRANCH   1  19
ATOM     17  C   LIG    1       -5.711  -0.789   0.653  0.00  0.00    +0.270 C 
ATOM     18  C   LIG    1       -4.380  -0.957   1.407  0.00  0.00    +0.010 C 
ATOM     19  C   LIG    1       -3.682  -0.923   0.035  0.00  0.00    +0.260 C 
ATOM     20  C   LIG    1       -4.896  -0.140  -0.466  0.00  0.00    -0.120 C 
ATOM     21  C   LIG    1       -5.346  -0.227  -1.925  0.00  0.00    +0.040 C 
ATOM     22  C   LIG    1       -5.878   1.208  -1.756  0.00  0.00    +0.010 C 
ATOM     23  C   LIG    1       -4.845   1.380  -0.628  0.00  0.00    +0.040 C 
BRANCH  17  26
ATOM     24  O   LIG    1       -7.892  -1.557   2.039  0.00  0.00    -0.510 OA
ATOM     25  C   LIG    1       -7.710  -0.360   1.979  0.00  0.00    +0.500 C 
ATOM     26  N   LIG    1       -6.647   0.128   1.309  0.00  0.00    -0.720 N 
ATOM     27  H   LIG    1       -6.501   1.086   1.262  0.00  0.00    +0.400 HD
BRANCH  25  28
ATOM     28  C   LIG    1       -8.672   0.583   2.654  0.00  0.00    +0.170 C 
ATOM     29 CL   LIG    1       -9.977  -0.365   3.459  0.00  0.00    -0.130 Cl
ENDBRANCH  25  28
ENDBRANCH  17  26
ENDBRANCH   1  19
TORSDOF 4
