REMARK  Name = ZINCb70000002ye9.0
REMARK                            x       y       z     vdW  Elec       q    Type
REMARK                         _______ _______ _______ _____ _____    ______ ____
ROOT
ATOM      1  C   LIG    1       -1.186   3.037   1.186  0.00  0.00    +0.130 C 
ATOM      2  C   LIG    1       -0.176   3.944   0.533  0.00  0.00    +0.070 C 
ATOM      3  C   LIG    1       -0.446   3.993  -0.990  0.00  0.00    +0.080 C 
ATOM      4  C   LIG    1        0.003   2.766  -1.643  0.00  0.00    +0.250 C 
ATOM      5  N   LIG    1       -0.695   1.556  -1.175  0.00  0.00    -0.500 N 
ATOM      6  C   LIG    1       -0.013   1.086   0.008  0.00  0.00    +0.240 C 
ATOM      7  H   LIG    1       -1.654   1.780  -0.952  0.00  0.00    +0.430 HD
ATOM      8  H   LIG    1       -0.667   0.847  -1.892  0.00  0.00    +0.430 HD
ATOM      9  C   LIG    1       -0.715   1.573   1.287  0.00  0.00    +0.050 C 
ENDROOT
BRANCH   1  10
ATOM     10  O   LIG    1       -2.397   3.077   0.428  0.00  0.00    -0.570 OA
ATOM     11  H   LIG    1       -3.101   2.517   0.782  0.00  0.00    +0.400 HD
ENDBRANCH   1  10
BRANCH   1  12
ATOM     12  C   LIG    1       -1.476   3.558   2.595  0.00  0.00    +0.170 C 
BRANCH  12  14
ATOM     13  C   LIG    1       -2.678   3.041   4.603  0.00  0.00    +0.220 C 
ATOM     14  O   LIG    1       -2.343   2.646   3.271  0.00  0.00    -0.400 OA
ENDBRANCH  12  14
ENDBRANCH   1  12
TORSDOF 3
