REMARK  Name = ZINCtV00000L6jss.0
REMARK                            x       y       z     vdW  Elec       q    Type
REMARK                         _______ _______ _______ _____ _____    ______ ____
ROOT
ATOM      1  C   LIG    1       -2.002  -2.448  -2.110  0.00  0.00    +0.530 C 
ATOM      2  N   LIG    1       -1.147  -1.457  -1.790  0.00  0.00    -0.540 N 
ATOM      3  C   LIG    1        0.132  -1.419  -2.363  0.00  0.00    +0.120 A 
ATOM      4  C   LIG    1        0.780  -2.588  -2.728  0.00  0.00    +0.020 A 
ATOM      5  C   LIG    1        2.033  -2.524  -3.312  0.00  0.00    -0.030 A 
ATOM      6  C   LIG    1        2.648  -1.301  -3.536  0.00  0.00    +0.120 A 
ATOM      7  C   LIG    1        2.010  -0.123  -3.168  0.00  0.00    +0.080 A 
ATOM      8  C   LIG    1        0.759  -0.190  -2.580  0.00  0.00    -0.020 A 
ATOM      9  C   LIG    1        0.042   1.069  -2.154  0.00  0.00    -0.100 A 
ATOM     10  C   LIG    1       -1.068   0.932  -1.356  0.00  0.00    -0.070 A 
ATOM     11  S   LIG    1       -1.825   2.426  -0.997  0.00  0.00    +0.110 S 
ATOM     12  S   LIG    1       -0.490   3.610  -2.043  0.00  0.00    +0.120 S 
ATOM     13  C   LIG    1        0.495   2.320  -2.586  0.00  0.00    +0.050 A 
ATOM     14  S   LIG    1        1.888   2.537  -3.556  0.00  0.00    -0.330 S 
ATOM     15  C   LIG    1       -1.551  -0.414  -0.840  0.00  0.00    +0.240 C 
ATOM     16  C   LIG    1       -3.075  -0.398  -0.714  0.00  0.00    +0.090 C 
ATOM     17  C   LIG    1       -0.923  -0.694   0.527  0.00  0.00    +0.070 C 
ATOM     18  O   LIG    1       -3.056  -2.554  -1.520  0.00  0.00    -0.500 OA
ENDROOT
BRANCH   6  19
ATOM     19  O   LIG    1        3.877  -1.255  -4.117  0.00  0.00    -0.310 OA
ATOM     20  C   LIG    1        4.475  -2.504  -4.470  0.00  0.00    +0.240 C 
ENDBRANCH   6  19
BRANCH   1  21
ATOM     21  C   LIG    1       -1.648  -3.426  -3.201  0.00  0.00    +0.030 C 
BRANCH  21  22
ATOM     22  C   LIG    1       -2.752  -3.456  -4.226  0.00  0.00    -0.080 A 
ATOM     23  C   LIG    1       -4.031  -3.827  -3.853  0.00  0.00    +0.040 A 
ATOM     24  C   LIG    1       -5.045  -3.851  -4.792  0.00  0.00    +0.000 A 
ATOM     25  C   LIG    1       -4.779  -3.512  -6.106  0.00  0.00    +0.000 A 
ATOM     26  C   LIG    1       -3.499  -3.146  -6.479  0.00  0.00    +0.000 A 
ATOM     27  C   LIG    1       -2.486  -3.118  -5.539  0.00  0.00    +0.010 A 
ENDBRANCH  21  22
BRANCH  21  29
ATOM     28  C   LIG    1       -0.929  -5.773  -3.666  0.00  0.00    +0.030 C 
ATOM     29  C   LIG    1       -1.473  -4.821  -2.598  0.00  0.00    +0.040 C 
ENDBRANCH  21  29
ENDBRANCH   1  21
TORSDOF 4
