REMARK  Name = ZINCrH00000lv1ek.0
REMARK                            x       y       z     vdW  Elec       q    Type
REMARK                         _______ _______ _______ _____ _____    ______ ____
ROOT
ATOM      1  C   LIG    1       -4.099  -5.034   0.016  0.00  0.00    -0.300 C 
ATOM      2  C   LIG    1       -4.798  -4.472  -1.224  0.00  0.00    +0.130 C 
ENDROOT
BRANCH   1   6
ATOM      3  C   LIG    1       -4.728  -8.551   0.408  0.00  0.00    +0.220 A 
ATOM      4  N   LIG    1       -3.811  -8.522  -0.523  0.00  0.00    -0.360 NA
ATOM      5  O   LIG    1       -3.497  -7.376  -0.763  0.00  0.00    +0.100 OA
ATOM      6  C   LIG    1       -4.197  -6.538   0.009  0.00  0.00    +0.180 A 
ATOM      7  N   LIG    1       -4.979  -7.270   0.761  0.00  0.00    -0.440 NA
BRANCH   3  12
ATOM      8  C   LIG    1       -7.220 -13.254   2.615  0.00  0.00    +0.110 C 
ATOM      9  C   LIG    1       -6.568 -12.024   2.037  0.00  0.00    -0.090 A 
ATOM     10  C   LIG    1       -6.932 -10.772   2.495  0.00  0.00    +0.050 A 
ATOM     11  C   LIG    1       -6.334  -9.642   1.974  0.00  0.00    +0.060 A 
ATOM     12  C   LIG    1       -5.370  -9.764   0.976  0.00  0.00    -0.010 A 
ATOM     13  C   LIG    1       -5.005 -11.027   0.516  0.00  0.00    +0.040 A 
ATOM     14  C   LIG    1       -5.606 -12.153   1.048  0.00  0.00    +0.100 A 
ATOM     15  F   LIG    1       -5.254 -13.379   0.605  0.00  0.00    -0.130 F 
ENDBRANCH   3  12
ENDBRANCH   1   6
BRANCH   1  16
ATOM     16  S   LIG    1       -2.353  -4.542   0.001  0.00  0.00    +2.420 S 
ATOM     17  O   LIG    1       -1.754  -4.963   1.219  0.00  0.00    -0.910 OA
ATOM     18  O   LIG    1       -1.778  -4.949  -1.233  0.00  0.00    -0.900 OA
BRANCH  16  19
ATOM     19  C   LIG    1       -2.474  -2.732   0.012  0.00  0.00    -0.320 C 
BRANCH  19  20
ATOM     20  C   LIG    1       -1.069  -2.126   0.001  0.00  0.00    +0.230 C 
BRANCH  20  21
ATOM     21  O   LIG    1       -1.165  -0.701   0.010  0.00  0.00    -0.300 OA
BRANCH  21  22
ATOM     22  C   LIG    1        0.002  -0.004   0.002  0.00  0.00    +0.120 A 
ATOM     23  C   LIG    1       -0.017   1.383   0.010  0.00  0.00    -0.020 A 
ATOM     24  C   LIG    1        1.171   2.089   0.002  0.00  0.00    +0.050 A 
ATOM     25  C   LIG    1        2.377   1.414  -0.013  0.00  0.00    -0.020 A 
ATOM     26  C   LIG    1        2.399   0.031  -0.021  0.00  0.00    +0.050 A 
ATOM     27  C   LIG    1        1.214  -0.679  -0.013  0.00  0.00    -0.080 A 
ENDBRANCH  21  22
ENDBRANCH  20  21
ENDBRANCH  19  20
ENDBRANCH  16  19
ENDBRANCH   1  16
TORSDOF 7
