REMARK  Name = ZINCkj0000059CmC.1
REMARK                            x       y       z     vdW  Elec       q    Type
REMARK                         _______ _______ _______ _____ _____    ______ ____
ROOT
ATOM      1  C   LIG    1       -2.031   2.003  -0.700  0.00  0.00    +0.510 C 
ATOM      2  N   LIG    1       -2.862   2.456  -1.659  0.00  0.00    -0.620 N 
ATOM      3  H   LIG    1       -2.699   2.231  -2.589  0.00  0.00    +0.420 HD
ATOM      4  O   LIG    1       -2.277   2.219   0.468  0.00  0.00    -0.500 OA
ENDROOT
BRANCH   1  10
ATOM      5  C   LIG    1       -1.988  -0.193   0.448  0.00  0.00    +0.330 C 
ATOM      6  N   LIG    1       -0.776  -0.064  -0.373  0.00  0.00    -0.380 N 
ATOM      7  C   LIG    1        0.420  -0.111   0.495  0.00  0.00    +0.270 C 
ATOM      8  C   LIG    1        1.417   0.883  -0.151  0.00  0.00    +0.080 C 
ATOM      9  C   LIG    1        0.466   2.007  -0.641  0.00  0.00    +0.100 C 
ATOM     10  C   LIG    1       -0.794   1.230  -1.079  0.00  0.00    +0.170 C 
ATOM     11  H   LIG    1       -0.738  -0.817  -1.044  0.00  0.00    +0.430 HD
ENDBRANCH   1  10
BRANCH   2  12
ATOM     12  C   LIG    1       -3.963   3.249  -1.315  0.00  0.00    +0.080 A 
ATOM     13  C   LIG    1       -4.579   3.102  -0.077  0.00  0.00    +0.100 A 
ATOM     14  C   LIG    1       -5.666   3.911   0.220  0.00  0.00    +0.000 A 
ATOM     15  C   LIG    1       -6.101   4.831  -0.714  0.00  0.00    +0.310 A 
ATOM     16  N   LIG    1       -5.498   4.950  -1.882  0.00  0.00    -0.480 NA
ATOM     17  C   LIG    1       -4.455   4.204  -2.205  0.00  0.00    +0.360 A 
BRANCH  17  18
ATOM     18  N   LIG    1       -3.844   4.369  -3.453  0.00  0.00    -0.340 N 
ATOM     19  C   LIG    1       -4.433   4.863  -4.573  0.00  0.00    +0.280 A 
ATOM     20  C   LIG    1       -3.505   4.859  -5.558  0.00  0.00    -0.100 A 
ATOM     21  C   LIG    1       -2.315   4.348  -5.028  0.00  0.00    +0.280 A 
ATOM     22  N   LIG    1       -2.515   4.060  -3.768  0.00  0.00    -0.320 NA
ENDBRANCH  17  18
ENDBRANCH   2  12
TORSDOF 3
