REMARK  Name = ZINCkj0000059CmC.2
REMARK                            x       y       z     vdW  Elec       q    Type
REMARK                         _______ _______ _______ _____ _____    ______ ____
ROOT
ATOM      1  C   LIG    1       -0.681  -0.519  -1.238  0.00  0.00    +0.510 C 
ATOM      2  N   LIG    1       -0.774  -1.846  -1.455  0.00  0.00    -0.620 N 
ATOM      3  H   LIG    1       -0.341  -2.468  -0.850  0.00  0.00    +0.430 HD
ATOM      4  O   LIG    1       -1.137   0.261  -2.047  0.00  0.00    -0.510 OA
ENDROOT
BRANCH   1  10
ATOM      5  C   LIG    1       -0.727   1.945   1.226  0.00  0.00    +0.320 C 
ATOM      6  N   LIG    1       -0.035   1.469   0.021  0.00  0.00    -0.380 N 
ATOM      7  C   LIG    1        1.359   1.962   0.021  0.00  0.00    +0.270 C 
ATOM      8  C   LIG    1        2.189   0.800   0.623  0.00  0.00    +0.080 C 
ATOM      9  C   LIG    1        1.468  -0.439   0.030  0.00  0.00    +0.110 C 
ATOM     10  C   LIG    1       -0.012  -0.005   0.011  0.00  0.00    +0.170 C 
ATOM     11  H   LIG    1       -0.514   1.807  -0.800  0.00  0.00    +0.430 HD
ENDBRANCH   1  10
BRANCH   2  12
ATOM     12  C   LIG    1       -1.495  -2.327  -2.554  0.00  0.00    +0.090 A 
ATOM     13  C   LIG    1       -2.511  -1.566  -3.119  0.00  0.00    +0.100 A 
ATOM     14  C   LIG    1       -3.195  -2.082  -4.210  0.00  0.00    +0.010 A 
ATOM     15  C   LIG    1       -2.855  -3.331  -4.693  0.00  0.00    +0.310 A 
ATOM     16  N   LIG    1       -1.889  -4.035  -4.135  0.00  0.00    -0.480 NA
ATOM     17  C   LIG    1       -1.208  -3.581  -3.096  0.00  0.00    +0.360 A 
BRANCH  17  18
ATOM     18  N   LIG    1       -0.192  -4.363  -2.537  0.00  0.00    -0.330 N 
ATOM     19  C   LIG    1       -0.099  -5.716  -2.597  0.00  0.00    +0.280 A 
ATOM     20  C   LIG    1        1.026  -6.079  -1.939  0.00  0.00    -0.100 A 
ATOM     21  C   LIG    1        1.635  -4.917  -1.453  0.00  0.00    +0.280 A 
ATOM     22  N   LIG    1        0.908  -3.889  -1.810  0.00  0.00    -0.320 NA
ENDBRANCH  17  18
ENDBRANCH   2  12
TORSDOF 3
