REMARK  Name = ZINCkj000005mmmS.0
REMARK                            x       y       z     vdW  Elec       q    Type
REMARK                         _______ _______ _______ _____ _____    ______ ____
ROOT
ATOM      1  N   LIG    1       -2.043  -3.718  -1.385  0.00  0.00    -0.510 N 
ATOM      2  H   LIG    1       -1.227  -4.060  -1.871  0.00  0.00    +0.430 HD
ATOM      3  H   LIG    1       -2.391  -2.894  -1.853  0.00  0.00    +0.430 HD
ENDROOT
BRANCH   1   4
ATOM      4  C   LIG    1       -1.684  -3.380  -0.002  0.00  0.00    +0.330 C 
BRANCH   4  14
ATOM      5  C   LIG    1        0.726  -2.699  -0.020  0.00  0.00    -0.040 A 
ATOM      6  C   LIG    1        1.729  -1.785  -0.025  0.00  0.00    +0.130 A 
ATOM      7  C   LIG    1        1.416  -0.409  -0.014  0.00  0.00    -0.210 A 
ATOM      8  C   LIG    1        2.157   0.758  -0.015  0.00  0.00    +0.310 A 
ATOM      9  N   LIG    1        1.302   1.789  -0.001  0.00  0.00    -0.410 N 
ATOM     10  H   LIG    1        1.557   2.725   0.002  0.00  0.00    +0.450 HD
ATOM     11  N   LIG    1       -0.016   1.316   0.009  0.00  0.00    -0.290 NA
ATOM     12  C   LIG    1        0.002  -0.004   0.002  0.00  0.00    +0.090 A 
ATOM     13  C   LIG    1       -0.988  -1.010   0.006  0.00  0.00    +0.090 A 
ATOM     14  C   LIG    1       -0.617  -2.315  -0.005  0.00  0.00    -0.110 A 
ENDBRANCH   4  14
ENDBRANCH   1   4
BRANCH   1  15
ATOM     15  C   LIG    1       -3.082  -4.755  -1.382  0.00  0.00    +0.250 C 
BRANCH  15  16
ATOM     16  C   LIG    1       -3.456  -5.107  -2.823  0.00  0.00    +0.040 C 
BRANCH  16  17
ATOM     17  C   LIG    1       -4.539  -6.189  -2.820  0.00  0.00    +0.200 C 
BRANCH  17  18
ATOM     18  N   LIG    1       -4.898  -6.526  -4.204  0.00  0.00    -0.540 NA
ATOM     19  C   LIG    1       -5.550  -5.390  -4.871  0.00  0.00    +0.140 C 
ATOM     20  C   LIG    1       -5.852  -5.764  -6.324  0.00  0.00    +0.220 C 
ATOM     21  O   LIG    1       -6.661  -6.944  -6.349  0.00  0.00    -0.380 OA
ATOM     22  C   LIG    1       -6.057  -8.070  -5.708  0.00  0.00    +0.220 C 
ATOM     23  C   LIG    1       -5.756  -7.719  -4.249  0.00  0.00    +0.160 C 
ENDBRANCH  17  18
ENDBRANCH  16  17
ENDBRANCH  15  16
ENDBRANCH   1  15
TORSDOF 6
