REMARK  Name = ZINCvU0000000E9V.0
REMARK                            x       y       z     vdW  Elec       q    Type
REMARK                         _______ _______ _______ _____ _____    ______ ____
ROOT
ATOM      1  C   LIG    1        5.395   5.125  -0.023  0.00  0.00    +0.580 C 
ATOM      2  N   LIG    1        4.047   5.105  -0.009  0.00  0.00    -0.460 N 
ATOM      3  N   LIG    1        3.254   3.959  -0.008  0.00  0.00    -0.230 NA
ATOM      4  C   LIG    1        1.985   4.197   0.006  0.00  0.00    +0.180 C 
ATOM      5  C   LIG    1        1.753   5.691   0.010  0.00  0.00    +0.100 C 
ATOM      6  C   LIG    1        3.174   6.289   0.006  0.00  0.00    +0.310 C 
ATOM      7  O   LIG    1        5.986   6.185  -0.023  0.00  0.00    -0.490 OA
ENDROOT
BRANCH   4   8
ATOM      8  C   LIG    1        0.932   3.177   0.010  0.00  0.00    -0.160 A 
ATOM      9  C   LIG    1        1.140   1.829   0.001  0.00  0.00    +0.070 A 
ATOM     10  C   LIG    1       -0.013   1.076   0.008  0.00  0.00    +0.010 A 
ATOM     11  C   LIG    1       -1.151   1.777   0.017  0.00  0.00    -0.030 A 
ATOM     12  S   LIG    1       -0.797   3.499   0.029  0.00  0.00    +0.160 S 
ENDBRANCH   4   8
BRANCH   6  13
ATOM     13  C   LIG    1        3.392   7.125  -1.229  0.00  0.00    -0.200 A 
ATOM     14  C   LIG    1        3.393   8.458  -1.265  0.00  0.00    +0.030 A 
ATOM     15  C   LIG    1        3.618   9.008  -2.515  0.00  0.00    +0.000 A 
ATOM     16  C   LIG    1        3.790   8.121  -3.497  0.00  0.00    -0.030 A 
ATOM     17  S   LIG    1        3.675   6.491  -2.845  0.00  0.00    +0.110 S 
ENDBRANCH   6  13
BRANCH   1  18
ATOM     18  C   LIG    1        6.168   3.832  -0.038  0.00  0.00    +0.130 C 
BRANCH  18  19
ATOM     19  S   LIG    1        7.942   4.190  -0.054  0.00  0.00    +0.150 S 
BRANCH  19  23
ATOM     20  C   LIG    1        9.920   0.852  -0.092  0.00  0.00    +0.220 A 
ATOM     21  N   LIG    1        8.679   0.429  -0.083  0.00  0.00    -0.260 NA
ATOM     22  N   LIG    1        7.883   1.439  -0.069  0.00  0.00    -0.280 NA
ATOM     23  C   LIG    1        8.585   2.549  -0.070  0.00  0.00    +0.120 A 
ATOM     24  O   LIG    1        9.886   2.203  -0.090  0.00  0.00    -0.200 OA
BRANCH  20  29
ATOM     25  C   LIG    1       14.640  -2.438  -0.158  0.00  0.00    +0.100 C 
ATOM     26  C   LIG    1       13.404  -1.576  -0.140  0.00  0.00    -0.060 A 
ATOM     27  C   LIG    1       12.152  -2.167  -0.130  0.00  0.00    +0.020 A 
ATOM     28  C   LIG    1       11.017  -1.384  -0.115  0.00  0.00    +0.080 A 
ATOM     29  C   LIG    1       11.132   0.007  -0.109  0.00  0.00    -0.040 A 
ATOM     30  C   LIG    1       12.397   0.597  -0.124  0.00  0.00    +0.050 A 
ATOM     31  C   LIG    1       13.525  -0.198  -0.134  0.00  0.00    +0.010 A 
ENDBRANCH  20  29
ENDBRANCH  19  23
ENDBRANCH  18  19
ENDBRANCH   1  18
TORSDOF 6
