REMARK  Name = ZINCrD0000072g1h.0
REMARK                            x       y       z     vdW  Elec       q    Type
REMARK                         _______ _______ _______ _____ _____    ______ ____
ROOT
ATOM      1  N   LIG    1        3.416  11.315  -1.226  0.00  0.00    -0.740 N 
ATOM      2  H   LIG    1        3.946  10.945  -0.502  0.00  0.00    +0.390 HD
ATOM      3  C   LIG    1        2.134  10.933  -1.385  0.00  0.00    +0.710 C 
ATOM      4  N   LIG    1        1.614   9.972  -0.596  0.00  0.00    -0.630 N 
ATOM      5  C   LIG    1        2.396   9.410   0.513  0.00  0.00    +0.260 C 
ATOM      6  C   LIG    1        2.428   7.885   0.371  0.00  0.00    +0.050 C 
ATOM      7  C   LIG    1        0.995   7.355   0.280  0.00  0.00    +0.010 C 
ATOM      8  C   LIG    1        0.309   7.941  -0.956  0.00  0.00    +0.030 C 
ATOM      9  C   LIG    1        0.254   9.467  -0.829  0.00  0.00    +0.300 C 
ATOM     10  O   LIG    1        1.446  11.455  -2.241  0.00  0.00    -0.580 OA
ENDROOT
BRANCH   7  11
ATOM     11  C   LIG    1        1.021   5.852   0.174  0.00  0.00    +0.510 C 
ATOM     12  N   LIG    1       -0.133   5.162   0.082  0.00  0.00    -0.660 N 
ATOM     13  H   LIG    1       -0.977   5.636   0.011  0.00  0.00    +0.420 HD
ATOM     14  O   LIG    1        2.081   5.263   0.171  0.00  0.00    -0.460 OA
BRANCH  12  15
ATOM     15  C   LIG    1       -0.115   3.768   0.090  0.00  0.00    +0.310 A 
ATOM     16  C   LIG    1       -1.310   3.055   0.102  0.00  0.00    +0.190 A 
ATOM     17  N   LIG    1       -1.289   1.736   0.109  0.00  0.00    -0.410 NA
ATOM     18  C   LIG    1       -0.135   1.091   0.105  0.00  0.00    +0.180 A 
ATOM     19  C   LIG    1        1.054   1.797   0.099  0.00  0.00    +0.260 A 
ATOM     20  N   LIG    1        1.041   3.118   0.086  0.00  0.00    -0.440 NA
ENDBRANCH  12  15
ENDBRANCH   7  11
BRANCH   1  21
ATOM     21  C   LIG    1        4.010  12.289  -2.145  0.00  0.00    +0.320 C 
BRANCH  21  22
ATOM     22  C   LIG    1        5.505  12.103  -2.177  0.00  0.00    -0.100 A 
ATOM     23  C   LIG    1        6.220  11.845  -1.080  0.00  0.00    -0.060 A 
ATOM     24  S   LIG    1        7.919  11.690  -1.506  0.00  0.00    +0.110 S 
ATOM     25  C   LIG    1        7.554  12.002  -3.198  0.00  0.00    -0.170 A 
ATOM     26  C   LIG    1        8.568  12.047  -4.312  0.00  0.00    +0.140 C 
ATOM     27  C   LIG    1        6.242  12.192  -3.345  0.00  0.00    +0.010 A 
ENDBRANCH  21  22
BRANCH  21  29
ATOM     28  C   LIG    1        2.172  13.936  -1.754  0.00  0.00    +0.020 C 
ATOM     29  C   LIG    1        3.682  13.705  -1.668  0.00  0.00    +0.000 C 
ENDBRANCH  21  29
ENDBRANCH   1  21
TORSDOF 5
