REMARK  Name = ZINCbw00000004BV.0
REMARK                            x       y       z     vdW  Elec       q    Type
REMARK                         _______ _______ _______ _____ _____    ______ ____
ROOT
ATOM      1  N   LIG    1       -2.039   1.824   1.365  0.00  0.00    -0.360 N 
ATOM      2  N   LIG    1       -2.282   2.252   2.677  0.00  0.00    -0.290 NA
ATOM      3  C   LIG    1       -1.143   2.264   3.320  0.00  0.00    +0.110 A 
ATOM      4  C   LIG    1       -0.140   1.840   2.442  0.00  0.00    -0.250 A 
ATOM      5 BR   LIG    1        1.699   1.671   2.851  0.00  0.00    -0.020 Br
ATOM      6  C   LIG    1       -0.945   2.666   4.759  0.00  0.00    +0.160 C 
ATOM      7  C   LIG    1       -0.718   1.572   1.248  0.00  0.00    +0.130 A 
ATOM      8  C   LIG    1       -0.013   1.086   0.008  0.00  0.00    +0.160 C 
ENDROOT
BRANCH   1   9
ATOM      9  C   LIG    1       -3.043   1.673   0.308  0.00  0.00    +0.330 C 
BRANCH   9  11
ATOM     10  C   LIG    1       -4.664   0.098  -0.756  0.00  0.00    +0.030 C 
ATOM     11  C   LIG    1       -3.616   0.255   0.348  0.00  0.00    +0.000 C 
ENDBRANCH   9  11
ENDBRANCH   1   9
TORSDOF 2
