REMARK  Name = ZINCrH000004motf.0
REMARK                            x       y       z     vdW  Elec       q    Type
REMARK                         _______ _______ _______ _____ _____    ______ ____
ROOT
ATOM      1  N   LIG    1        3.604  -0.343  -0.105  0.00  0.00    -0.620 N 
ATOM      2  H   LIG    1        3.914  -1.262  -0.089  0.00  0.00    +0.420 HD
ATOM      3  C   LIG    1        4.494   0.669  -0.092  0.00  0.00    +0.510 C 
ATOM      4  O   LIG    1        4.107   1.818  -0.113  0.00  0.00    -0.490 OA
ENDROOT
BRANCH   1   8
ATOM      5  C   LIG    1        0.051  -0.513  -0.192  0.00  0.00    +0.130 A 
ATOM      6  C   LIG    1       -0.083   0.825  -0.208  0.00  0.00    -0.260 A 
ATOM      7  S   LIG    1        1.528   1.540  -0.174  0.00  0.00    +0.200 S 
ATOM      8  C   LIG    1        2.242  -0.069  -0.142  0.00  0.00    +0.270 A 
ATOM      9  C   LIG    1       -1.385   1.583  -0.252  0.00  0.00    +0.150 C 
ATOM     10  N   LIG    1        1.299  -0.959  -0.158  0.00  0.00    -0.490 NA
BRANCH   5  14
ATOM     11  C   LIG    1       -3.299  -3.133  -0.251  0.00  0.00    +0.130 A 
ATOM     12  C   LIG    1       -2.130  -3.489  -0.909  0.00  0.00    -0.020 A 
ATOM     13  C   LIG    1       -1.042  -2.642  -0.892  0.00  0.00    +0.080 A 
ATOM     14  C   LIG    1       -1.117  -1.427  -0.213  0.00  0.00    -0.060 A 
ATOM     15  C   LIG    1       -2.291  -1.075   0.453  0.00  0.00    +0.070 A 
ATOM     16  C   LIG    1       -3.377  -1.924   0.426  0.00  0.00    -0.080 A 
BRANCH  11  18
ATOM     17  C   LIG    1       -5.540  -3.542   0.429  0.00  0.00    +0.250 C 
ATOM     18  O   LIG    1       -4.370  -3.970  -0.269  0.00  0.00    -0.320 OA
ENDBRANCH  11  18
ENDBRANCH   5  14
ENDBRANCH   1   8
BRANCH   3  19
ATOM     19  C   LIG    1        5.971   0.372  -0.053  0.00  0.00    +0.270 C 
BRANCH  19  20
ATOM     20  C   LIG    1        6.386   0.039   1.382  0.00  0.00    +0.000 C 
ATOM     21  C   LIG    1        6.138   1.254   2.299  0.00  0.00    +0.010 C 
ATOM     22  C   LIG    1        7.329   1.233   3.288  0.00  0.00    +0.020 C 
ATOM     23  C   LIG    1        8.512   0.794   2.390  0.00  0.00    +0.010 C 
ATOM     24  C   LIG    1        7.896  -0.254   1.439  0.00  0.00    +0.020 C 
ENDBRANCH  19  20
BRANCH  19  25
ATOM     25  N   LIG    1        6.718   1.544  -0.518  0.00  0.00    -0.710 N 
ATOM     26  H   LIG    1        7.027   2.206   0.120  0.00  0.00    +0.410 HD
ATOM     27  C   LIG    1        6.975   1.702  -1.831  0.00  0.00    +0.520 C 
ATOM     28  O   LIG    1        6.517   0.919  -2.637  0.00  0.00    -0.540 OA
ATOM     29  C   LIG    1        7.831   2.850  -2.299  0.00  0.00    +0.110 C 
ENDBRANCH  19  25
ENDBRANCH   3  19
TORSDOF 6
