REMARK  Name = ZINCpe000000TIsr.0
REMARK                            x       y       z     vdW  Elec       q    Type
REMARK                         _______ _______ _______ _____ _____    ______ ____
ROOT
ATOM      1  N   LIG    1       -0.670   3.054  -1.286  0.00  0.00    -0.720 N 
ATOM      2  H   LIG    1       -0.536   3.563  -0.471  0.00  0.00    +0.410 HD
ATOM      3  C   LIG    1       -0.779   3.692  -2.469  0.00  0.00    +0.620 C 
ATOM      4  O   LIG    1       -0.946   3.054  -3.490  0.00  0.00    -0.530 OA
ENDROOT
BRANCH   3   5
ATOM      5  C   LIG    1       -0.695   5.163  -2.524  0.00  0.00    -0.100 A 
ATOM      6  C   LIG    1       -0.785   5.927  -3.653  0.00  0.00    +0.310 A 
ATOM      7  N   LIG    1       -0.663   7.215  -3.265  0.00  0.00    -0.300 N 
ATOM      8  N   LIG    1       -0.488   7.203  -1.874  0.00  0.00    -0.040 NA
ATOM      9  N   LIG    1       -0.513   5.980  -1.472  0.00  0.00    -0.200 NA
BRANCH   7  10
ATOM     10  C   LIG    1       -0.698   8.345  -4.094  0.00  0.00    +0.120 A 
ATOM     11  C   LIG    1       -0.873   8.198  -5.463  0.00  0.00    +0.020 A 
ATOM     12  C   LIG    1       -0.913   9.314  -6.276  0.00  0.00    +0.040 A 
ATOM     13  C   LIG    1       -0.767  10.576  -5.729  0.00  0.00    +0.040 A 
ATOM     14  C   LIG    1       -0.586  10.725  -4.366  0.00  0.00    +0.040 A 
ATOM     15  C   LIG    1       -0.551   9.613  -3.547  0.00  0.00    -0.060 A 
BRANCH  15  16
ATOM     16  C   LIG    1       -0.355   9.776  -2.062  0.00  0.00    +0.070 C 
ATOM     17  C   LIG    1        1.129   9.620  -1.723  0.00  0.00    +0.020 C 
ENDBRANCH  15  16
ENDBRANCH   7  10
ENDBRANCH   3   5
BRANCH   1  18
ATOM     18  C   LIG    1       -0.753   1.593  -1.232  0.00  0.00    +0.240 C 
ATOM     19  C   LIG    1       -2.221   1.167  -1.159  0.00  0.00    +0.060 C 
BRANCH  18  20
ATOM     20  C   LIG    1       -0.013   1.086   0.008  0.00  0.00    +0.270 C 
BRANCH  20  21
ATOM     21  C   LIG    1        1.401   1.607  -0.003  0.00  0.00    +0.430 C 
ATOM     22  O   LIG    1        1.768   2.375   0.855  0.00  0.00    -0.490 OA
BRANCH  21  23
ATOM     23  O   LIG    1        2.252   1.219  -0.965  0.00  0.00    -0.350 OA
BRANCH  23  25
ATOM     24  C   LIG    1        4.417   1.210  -2.082  0.00  0.00    +0.070 C 
ATOM     25  C   LIG    1        3.598   1.762  -0.913  0.00  0.00    +0.200 C 
ENDBRANCH  23  25
ENDBRANCH  21  23
ENDBRANCH  20  21
BRANCH  20  26
ATOM     26  O   LIG    1       -0.682   1.547   1.184  0.00  0.00    -0.520 OA
ATOM     27  H   LIG    1       -0.732   2.510   1.256  0.00  0.00    +0.380 HD
ENDBRANCH  20  26
ENDBRANCH  18  20
ENDBRANCH   1  18
TORSDOF 9
