REMARK  Name = ZINCqH000000925O.0
REMARK                            x       y       z     vdW  Elec       q    Type
REMARK                         _______ _______ _______ _____ _____    ______ ____
ROOT
ATOM      1  C   LIG    1        3.441  -1.678  -1.464  0.00  0.00    +0.530 C 
ATOM      2  N   LIG    1        2.472  -2.326  -2.140  0.00  0.00    -0.610 N 
ATOM      3  C   LIG    1        2.698  -2.782  -3.519  0.00  0.00    +0.260 C 
ATOM      4  C   LIG    1        2.377  -4.277  -3.607  0.00  0.00    +0.010 C 
ATOM      5  C   LIG    1        0.959  -4.522  -3.088  0.00  0.00    +0.010 C 
ATOM      6  C   LIG    1        0.869  -4.093  -1.622  0.00  0.00    +0.020 C 
ATOM      7  C   LIG    1        1.172  -2.596  -1.512  0.00  0.00    +0.220 C 
ATOM      8  O   LIG    1        3.284  -1.405  -0.293  0.00  0.00    -0.520 OA
ENDROOT
BRANCH   1  10
ATOM      9  C   LIG    1        5.590  -2.533  -2.357  0.00  0.00    +0.060 C 
ATOM     10  C   LIG    1        4.718  -1.291  -2.163  0.00  0.00    -0.030 C 
BRANCH  10  11
ATOM     11  C   LIG    1        5.473  -0.265  -1.315  0.00  0.00    +0.320 C 
BRANCH  11  12
ATOM     12  N   LIG    1        6.654   0.201  -2.048  0.00  0.00    -0.710 N 
ATOM     13  H   LIG    1        6.844  -0.149  -2.933  0.00  0.00    +0.400 HD
ATOM     14  C   LIG    1        7.475   1.113  -1.492  0.00  0.00    +0.650 C 
ATOM     15  O   LIG    1        7.236   1.551  -0.384  0.00  0.00    -0.560 OA
BRANCH  14  16
ATOM     16  O   LIG    1        8.560   1.541  -2.166  0.00  0.00    -0.370 OA
BRANCH  16  17
ATOM     17  C   LIG    1        9.399   2.525  -1.506  0.00  0.00    +0.140 C 
ATOM     18  C   LIG    1        8.577   3.781  -1.211  0.00  0.00    +0.040 C 
ATOM     19  C   LIG    1       10.573   2.887  -2.418  0.00  0.00    +0.080 C 
ATOM     20  C   LIG    1        9.931   1.945  -0.194  0.00  0.00    +0.040 C 
ENDBRANCH  16  17
ENDBRANCH  14  16
ENDBRANCH  11  12
ENDBRANCH  10  11
ENDBRANCH   1  10
BRANCH   7  21
ATOM     21  C   LIG    1        1.221  -2.189  -0.038  0.00  0.00    +0.120 C 
BRANCH  21  22
ATOM     22  C   LIG    1       -0.116  -2.461   0.603  0.00  0.00    -0.090 A 
ATOM     23  C   LIG    1       -0.390  -3.709   1.128  0.00  0.00    +0.000 A 
ATOM     24  C   LIG    1       -1.616  -3.959   1.716  0.00  0.00    +0.000 A 
ATOM     25  C   LIG    1       -2.569  -2.959   1.778  0.00  0.00    -0.010 A 
ATOM     26  C   LIG    1       -2.295  -1.710   1.252  0.00  0.00    +0.000 A 
ATOM     27  C   LIG    1       -1.069  -1.461   0.664  0.00  0.00    +0.000 A 
ENDBRANCH  21  22
ENDBRANCH   7  21
TORSDOF 7
