REMARK  Name = ZINCkj00000a7St6.0
REMARK                            x       y       z     vdW  Elec       q    Type
REMARK                         _______ _______ _______ _____ _____    ______ ____
ROOT
ATOM      1  O   LIG    1       -2.435   4.106  -0.037  0.00  0.00    -0.500 OA
ATOM      2  C   LIG    1       -1.361   3.540   0.040  0.00  0.00    +0.580 C 
ATOM      3  N   LIG    1       -0.225   4.259   0.130  0.00  0.00    -0.740 N 
ATOM      4  H   LIG    1        0.635   3.811   0.115  0.00  0.00    +0.400 HD
ENDROOT
BRANCH   3   5
ATOM      5  C   LIG    1       -0.289   5.718   0.248  0.00  0.00    +0.170 C 
ATOM      6  C   LIG    1       -0.531   6.336  -1.104  0.00  0.00    +0.070 C 
ATOM      7  C   LIG    1        0.861   6.356  -1.784  0.00  0.00    +0.060 C 
ATOM      8  C   LIG    1        1.877   5.920  -0.679  0.00  0.00    +0.070 C 
ATOM      9  C   LIG    1       -1.031   6.102   1.506  0.00  0.00    +0.100 C 
ATOM     10  C   LIG    1        0.068   5.994   2.606  0.00  0.00    +0.280 C 
ATOM     11  N   LIG    1        1.356   5.708   1.889  0.00  0.00    -0.500 N 
ATOM     12  H   LIG    1        1.510   4.713   1.814  0.00  0.00    +0.420 HD
ATOM     13  H   LIG    1        2.131   6.154   2.356  0.00  0.00    +0.440 HD
ATOM     14  C   LIG    1        1.139   6.294   0.586  0.00  0.00    +0.140 C 
ENDBRANCH   3   5
BRANCH   2  15
ATOM     15  C   LIG    1       -1.302   2.068   0.034  0.00  0.00    -0.150 A 
ATOM     16  C   LIG    1       -0.083   1.403   0.016  0.00  0.00    +0.120 A 
ATOM     17  C   LIG    1       -0.069   0.006   0.011  0.00  0.00    -0.040 A 
ATOM     18  C   LIG    1       -1.216  -0.707   0.029  0.00  0.00    +0.350 A 
ATOM     19  N   LIG    1       -2.436  -0.102   0.053  0.00  0.00    -0.290 N 
ATOM     20  N   LIG    1       -3.742  -0.607   0.074  0.00  0.00    -0.300 NA
ATOM     21  C   LIG    1       -4.587   0.399   0.092  0.00  0.00    +0.290 A 
ATOM     22  C   LIG    1       -3.871   1.589   0.083  0.00  0.00    -0.080 A 
ATOM     23  C   LIG    1       -2.527   1.267   0.059  0.00  0.00    +0.120 A 
ENDBRANCH   2  15
TORSDOF 2
