REMARK  Name = ZINCqH0000004Si1.0
REMARK                            x       y       z     vdW  Elec       q    Type
REMARK                         _______ _______ _______ _____ _____    ______ ____
ROOT
ATOM      1  N   LIG    1       -1.223   8.632  -2.487  0.00  0.00    -0.450 N 
ATOM      2  C   LIG    1       -0.766   7.773  -1.529  0.00  0.00    +0.130 A 
ATOM      3  N   LIG    1       -0.254   8.502  -0.563  0.00  0.00    -0.260 NA
ATOM      4  N   LIG    1       -0.363   9.751  -0.848  0.00  0.00    -0.260 NA
ATOM      5  C   LIG    1       -0.951   9.895  -2.013  0.00  0.00    +0.230 A 
ENDROOT
BRANCH   5   6
ATOM      6  C   LIG    1       -1.260  11.173  -2.689  0.00  0.00    -0.030 A 
ATOM      7  C   LIG    1       -0.934  11.350  -4.035  0.00  0.00    +0.020 A 
ATOM      8  C   LIG    1       -1.225  12.545  -4.660  0.00  0.00    +0.010 A 
ATOM      9  C   LIG    1       -1.838  13.566  -3.956  0.00  0.00    +0.030 A 
ATOM     10  C   LIG    1       -2.164  13.397  -2.622  0.00  0.00    +0.010 A 
ATOM     11  C   LIG    1       -1.883  12.206  -1.986  0.00  0.00    -0.040 A 
ATOM     12  C   LIG    1       -2.243  12.021  -0.534  0.00  0.00    +0.090 C 
ENDBRANCH   5   6
BRANCH   1  14
ATOM     13  C   LIG    1       -3.389   8.322  -3.580  0.00  0.00    +0.060 C 
ATOM     14  C   LIG    1       -1.869   8.283  -3.755  0.00  0.00    +0.300 C 
ENDBRANCH   1  14
BRANCH   2  15
ATOM     15  S   LIG    1       -0.843   6.013  -1.582  0.00  0.00    +0.050 S 
BRANCH  15  16
ATOM     16  C   LIG    1       -0.051   5.617  -0.003  0.00  0.00    +0.080 C 
BRANCH  16  17
ATOM     17  C   LIG    1        0.107   4.123   0.118  0.00  0.00    -0.090 A 
ATOM     18  C   LIG    1       -0.964   3.291  -0.148  0.00  0.00    +0.050 A 
ATOM     19  C   LIG    1       -0.820   1.921  -0.037  0.00  0.00    +0.000 A 
ATOM     20  C   LIG    1        0.398   1.382   0.341  0.00  0.00    +0.110 A 
ATOM     21  C   LIG    1        1.468   2.216   0.614  0.00  0.00    +0.000 A 
ATOM     22  F   LIG    1        0.539   0.043   0.451  0.00  0.00    -0.130 F 
ATOM     23  C   LIG    1        1.323   3.586   0.496  0.00  0.00    +0.080 A 
ENDBRANCH  16  17
BRANCH  16  24
ATOM     24  C   LIG    1       -0.906   6.125   1.129  0.00  0.00    +0.530 C 
ATOM     25  O   LIG    1       -0.525   7.056   1.806  0.00  0.00    -0.490 OA
ATOM     26  N   LIG    1       -2.095   5.545   1.389  0.00  0.00    -0.850 N 
ATOM     27  H   LIG    1       -2.681   5.922   2.063  0.00  0.00    +0.410 HD
ATOM     28  H   LIG    1       -2.364   4.750   0.902  0.00  0.00    +0.400 HD
ENDBRANCH  16  24
ENDBRANCH  15  16
ENDBRANCH   2  15
TORSDOF 6
