REMARK  Name = ZINC5500000040dg.0
REMARK                            x       y       z     vdW  Elec       q    Type
REMARK                         _______ _______ _______ _____ _____    ______ ____
ROOT
ATOM      1  N   LIG    1       -0.011   0.966   0.007  0.00  0.00    -0.850 N 
ATOM      2  H   LIG    1        0.822   1.462   0.002  0.00  0.00    +0.400 HD
ATOM      3  H   LIG    1        0.002  -0.004   0.002  0.00  0.00    +0.410 HD
ATOM      4  C   LIG    1       -1.187   1.624   0.017  0.00  0.00    +0.490 C 
ATOM      5  O   LIG    1       -2.229   1.003   0.018  0.00  0.00    -0.520 OA
ENDROOT
BRANCH   4   6
ATOM      6  C   LIG    1       -1.208   3.131   0.025  0.00  0.00    +0.270 C 
ATOM      7  F   LIG    1       -2.533   3.579   0.034  0.00  0.00    -0.190 F 
ENDBRANCH   4   6
TORSDOF 1
