REMARK  Name = ZINCrD000000ACE5.0
REMARK                            x       y       z     vdW  Elec       q    Type
REMARK                         _______ _______ _______ _____ _____    ______ ____
ROOT
ATOM      1  C   LIG    1       -2.502   0.991   0.016  0.00  0.00    +0.070 A 
ATOM      2  N   LIG    1       -3.039   0.491   1.075  0.00  0.00    -0.450 NA
ATOM      3  C   LIG    1       -4.018  -0.385   0.900  0.00  0.00    +0.110 A 
ATOM      4  C   LIG    1       -4.312  -0.630  -0.393  0.00  0.00    -0.070 A 
ATOM      5  S   LIG    1       -3.243   0.355  -1.387  0.00  0.00    +0.150 S 
ENDROOT
BRANCH   3   6
ATOM      6  C   LIG    1       -4.726  -1.039   2.027  0.00  0.00    +0.010 A 
ATOM      7  C   LIG    1       -5.675  -2.029   1.776  0.00  0.00    +0.000 A 
ATOM      8  C   LIG    1       -6.334  -2.636   2.826  0.00  0.00    +0.040 A 
ATOM      9  C   LIG    1       -6.056  -2.267   4.128  0.00  0.00    -0.020 A 
ATOM     10  C   LIG    1       -5.111  -1.282   4.388  0.00  0.00    +0.160 A 
ATOM     11  C   LIG    1       -4.442  -0.670   3.339  0.00  0.00    +0.040 A 
BRANCH  10  12
ATOM     12  N   LIG    1       -4.831  -0.911   5.708  0.00  0.00    -0.560 N 
ATOM     13  C   LIG    1       -5.564  -1.405   6.880  0.00  0.00    +0.260 C 
ATOM     14  C   LIG    1       -4.656  -1.094   8.092  0.00  0.00    +0.060 C 
ATOM     15  C   LIG    1       -3.836   0.108   7.569  0.00  0.00    +0.070 C 
ATOM     16  C   LIG    1       -3.861  -0.052   6.065  0.00  0.00    +0.510 C 
ATOM     17  O   LIG    1       -3.114   0.512   5.294  0.00  0.00    -0.500 OA
ENDBRANCH  10  12
ENDBRANCH   3   6
BRANCH   1  18
ATOM     18  C   LIG    1       -1.381   1.998   0.015  0.00  0.00    +0.180 C 
BRANCH  18  20
ATOM     19  O   LIG    1       -0.027   0.066  -0.011  0.00  0.00    -0.520 OA
ATOM     20  C   LIG    1       -0.058   1.278  -0.002  0.00  0.00    +0.520 C 
ATOM     21  N   LIG    1        1.092   1.981  -0.011  0.00  0.00    -0.730 N 
ATOM     22  H   LIG    1        1.068   2.951  -0.003  0.00  0.00    +0.410 HD
BRANCH  21  23
ATOM     23  C   LIG    1        2.379   1.281  -0.033  0.00  0.00    +0.390 C 
BRANCH  23  24
ATOM     24  C   LIG    1        3.499   2.288  -0.040  0.00  0.00    -0.040 A 
ATOM     25  C   LIG    1        4.094   2.810   1.048  0.00  0.00    -0.030 A 
ATOM     26  C   LIG    1        5.086   3.704   0.583  0.00  0.00    -0.070 A 
ATOM     27  C   LIG    1        5.032   3.682  -0.761  0.00  0.00    +0.180 A 
ATOM     28  O   LIG    1        4.069   2.822  -1.132  0.00  0.00    -0.170 OA
ENDBRANCH  23  24
ENDBRANCH  21  23
ENDBRANCH  18  20
ENDBRANCH   1  18
TORSDOF 6
