REMARK  Name = ZINCrD000000gT9h.0
REMARK                            x       y       z     vdW  Elec       q    Type
REMARK                         _______ _______ _______ _____ _____    ______ ____
ROOT
ATOM      1  N   LIG    1       -1.238   2.075   0.019  0.00  0.00    -0.660 N 
ATOM      2  H   LIG    1       -2.071   1.584  -0.061  0.00  0.00    +0.420 HD
ATOM      3  C   LIG    1       -1.256   3.418   0.128  0.00  0.00    +0.550 C 
ATOM      4  O   LIG    1       -0.212   4.042   0.127  0.00  0.00    -0.500 OA
ENDROOT
BRANCH   1   9
ATOM      5  C   LIG    1        2.302   1.275   0.621  0.00  0.00    -0.050 A 
ATOM      6  C   LIG    1        2.400   0.036   0.015  0.00  0.00    +0.010 A 
ATOM      7  C   LIG    1        1.294  -0.532  -0.590  0.00  0.00    +0.010 A 
ATOM      8  C   LIG    1        0.083   0.140  -0.590  0.00  0.00    +0.070 A 
ATOM      9  C   LIG    1       -0.017   1.388   0.021  0.00  0.00    +0.120 A 
ATOM     10  C   LIG    1        1.097   1.952   0.626  0.00  0.00    +0.040 A 
BRANCH   5  12
ATOM     11  C   LIG    1        4.705   0.943   1.133  0.00  0.00    +0.030 C 
ATOM     12  C   LIG    1        3.511   1.889   1.278  0.00  0.00    -0.030 C 
ATOM     13  C   LIG    1        3.222   2.121   2.763  0.00  0.00    +0.040 C 
ATOM     14  C   LIG    1        3.834   3.225   0.606  0.00  0.00    +0.040 C 
ENDBRANCH   5  12
BRANCH   8  15
ATOM     15  O   LIG    1       -1.005  -0.417  -1.185  0.00  0.00    -0.500 OA
ATOM     16  H   LIG    1       -1.103  -0.188  -2.119  0.00  0.00    +0.390 HD
ENDBRANCH   8  15
ENDBRANCH   1   9
BRANCH   3  17
ATOM     17  C   LIG    1       -2.544   4.133   0.250  0.00  0.00    -0.080 A 
ATOM     18  C   LIG    1       -3.744   3.420   0.246  0.00  0.00    +0.030 A 
ATOM     19  C   LIG    1       -4.943   4.093   0.365  0.00  0.00    +0.120 A 
ATOM     20  C   LIG    1       -4.957   5.472   0.477  0.00  0.00    -0.650 A 
ATOM     21  C   LIG    1       -3.772   6.185   0.476  0.00  0.00    +0.130 A 
ATOM     22  C   LIG    1       -2.566   5.524   0.363  0.00  0.00    +0.070 A 
BRANCH  20  23
ATOM     23  S   LIG    1       -6.493   6.323   0.623  0.00  0.00    +2.700 S 
ATOM     24  O   LIG    1       -6.206   7.563   1.255  0.00  0.00    -0.950 OA
ATOM     25  O   LIG    1       -7.425   5.384   1.141  0.00  0.00    -0.950 OA
BRANCH  23  26
ATOM     26  N   LIG    1       -6.999   6.687  -0.911  0.00  0.00    -1.090 NA
ATOM     27  H   LIG    1       -7.066   7.613  -1.193  0.00  0.00    +0.420 HD
BRANCH  26  28
ATOM     28  C   LIG    1       -7.345   5.611  -1.843  0.00  0.00    +0.220 C 
ATOM     29  C   LIG    1       -7.045   5.837  -3.326  0.00  0.00    +0.010 C 
ATOM     30  C   LIG    1       -8.490   5.868  -2.825  0.00  0.00    +0.030 C 
ENDBRANCH  26  28
ENDBRANCH  23  26
ENDBRANCH  20  23
ENDBRANCH   3  17
TORSDOF 7
