REMARK  Name = ZINCpk00000ebEeK.0
REMARK                            x       y       z     vdW  Elec       q    Type
REMARK                         _______ _______ _______ _____ _____    ______ ____
ROOT
ATOM      1  C   LIG    1       -0.030   1.853  -0.197  0.00  0.00    +0.250 C 
ATOM      2  C   LIG    1       -0.121   0.328  -0.090  0.00  0.00    +0.030 C 
ATOM      3  C   LIG    1        0.401  -0.306  -1.386  0.00  0.00    +0.180 C 
ATOM      4  C   LIG    1        1.729   0.329  -1.716  0.00  0.00    +0.190 A 
ATOM      5  N   LIG    1        2.642  -0.085  -2.542  0.00  0.00    -0.280 NA
ATOM      6  N   LIG    1        3.636   0.735  -2.544  0.00  0.00    -0.260 NA
ATOM      7  C   LIG    1        3.399   1.725  -1.706  0.00  0.00    +0.220 A 
ATOM      8  N   LIG    1        2.176   1.491  -1.159  0.00  0.00    -0.470 N 
ATOM      9  C   LIG    1        1.441   2.283  -0.175  0.00  0.00    +0.300 C 
ENDROOT
BRANCH   1  18
ATOM     10  O   LIG    1       -2.695   2.263  -0.093  0.00  0.00    -0.580 OA
ATOM     11  C   LIG    1       -2.066   2.668   0.865  0.00  0.00    +0.710 C 
ATOM     12  N   LIG    1       -2.698   3.321   1.861  0.00  0.00    -0.630 N 
ATOM     13  C   LIG    1       -4.162   3.466   1.861  0.00  0.00    +0.280 C 
ATOM     14  C   LIG    1       -4.689   3.016   3.232  0.00  0.00    +0.220 C 
ATOM     15  O   LIG    1       -3.982   3.716   4.259  0.00  0.00    -0.380 OA
ATOM     16  C   LIG    1       -2.578   3.446   4.291  0.00  0.00    +0.220 C 
ATOM     17  C   LIG    1       -1.944   3.914   2.977  0.00  0.00    +0.240 C 
ATOM     18  N   LIG    1       -0.735   2.464   0.932  0.00  0.00    -0.740 N 
ATOM     19  H   LIG    1       -0.244   2.723   1.728  0.00  0.00    +0.400 HD
ENDBRANCH   1  18
BRANCH   7  20
ATOM     20  C   LIG    1        4.291   2.869  -1.418  0.00  0.00    -0.060 A 
ATOM     21  C   LIG    1        4.521   3.263  -0.100  0.00  0.00    +0.060 A 
ATOM     22  C   LIG    1        5.354   4.331   0.163  0.00  0.00    +0.010 A 
ATOM     23  C   LIG    1        5.961   5.013  -0.876  0.00  0.00    +0.070 A 
ATOM     24  C   LIG    1        5.738   4.629  -2.187  0.00  0.00    +0.000 A 
ATOM     25  C   LIG    1        4.912   3.557  -2.464  0.00  0.00    +0.140 A 
ATOM     26  F   LIG    1        4.699   3.179  -3.744  0.00  0.00    -0.120 F 
ENDBRANCH   7  20
TORSDOF 2
