REMARK  Name = ZINCqH0000007GvM.0
REMARK                            x       y       z     vdW  Elec       q    Type
REMARK                         _______ _______ _______ _____ _____    ______ ____
ROOT
ATOM      1  N   LIG    1       -4.148  -4.890   0.988  0.00  0.00    -0.490 N 
ATOM      2  C   LIG    1       -5.254  -3.935   1.137  0.00  0.00    +0.190 C 
ATOM      3  C   LIG    1       -5.187  -2.899   0.011  0.00  0.00    +0.300 C 
ATOM      4  N   LIG    1       -3.844  -2.299   0.007  0.00  0.00    -0.610 N 
ATOM      5  C   LIG    1       -2.680  -3.198  -0.009  0.00  0.00    +0.290 C 
ATOM      6  C   LIG    1       -3.684  -0.961   0.014  0.00  0.00    +0.520 C 
ATOM      7  O   LIG    1       -4.655  -0.234   0.023  0.00  0.00    -0.510 OA
ATOM      8  C   LIG    1       -2.846  -4.223   1.125  0.00  0.00    +0.190 C 
ENDROOT
BRANCH   1  13
ATOM      9  C   LIG    1       -3.443  -7.999   2.822  0.00  0.00    +0.150 A 
ATOM     10  C   LIG    1       -4.515  -8.029   3.704  0.00  0.00    -0.100 A 
ATOM     11  C   LIG    1       -5.459  -7.020   3.681  0.00  0.00    +0.080 A 
ATOM     12  C   LIG    1       -5.340  -5.978   2.782  0.00  0.00    -0.080 A 
ATOM     13  C   LIG    1       -4.269  -5.943   1.897  0.00  0.00    +0.150 A 
ATOM     14  C   LIG    1       -3.323  -6.958   1.914  0.00  0.00    -0.040 A 
BRANCH   9  16
ATOM     15  C   LIG    1       -2.706 -10.035   3.803  0.00  0.00    +0.250 C 
ATOM     16  O   LIG    1       -2.515  -8.991   2.846  0.00  0.00    -0.320 OA
ENDBRANCH   9  16
ENDBRANCH   1  13
BRANCH   6  17
ATOM     17  C   LIG    1       -2.299  -0.367   0.011  0.00  0.00    +0.240 C 
BRANCH  17  18
ATOM     18  O   LIG    1       -2.391   1.059   0.019  0.00  0.00    -0.270 OA
BRANCH  18  19
ATOM     19  C   LIG    1       -1.222   1.753   0.017  0.00  0.00    +0.140 A 
ATOM     20  C   LIG    1       -0.013   1.076   0.008  0.00  0.00    -0.040 A 
ATOM     21  C   LIG    1        1.175   1.783   0.000  0.00  0.00    +0.090 A 
ATOM     22  C   LIG    1        1.157   3.167   0.008  0.00  0.00    -0.060 A 
ATOM     23  C   LIG    1       -0.049   3.845   0.024  0.00  0.00    +0.090 A 
ATOM     24 CL   LIG    1        2.650   4.052  -0.001  0.00  0.00    -0.050 Cl
ATOM     25  C   LIG    1       -1.239   3.141   0.031  0.00  0.00    -0.060 A 
ATOM     26 CL   LIG    1       -2.752   3.993   0.050  0.00  0.00    -0.030 Cl
ENDBRANCH  18  19
ENDBRANCH  17  18
ENDBRANCH   6  17
TORSDOF 5
