REMARK  Name = ZINC5b0000002huN.0
REMARK                            x       y       z     vdW  Elec       q    Type
REMARK                         _______ _______ _______ _____ _____    ______ ____
ROOT
ATOM      1  C   LIG    1        1.691   1.726  -0.005  0.00  0.00    +0.180 A 
ATOM      2  N   LIG    1        2.117   0.504  -0.015  0.00  0.00    -0.260 NA
ATOM      3  N   LIG    1        1.234  -0.400  -0.012  0.00  0.00    -0.260 NA
ATOM      4  C   LIG    1        0.002  -0.004   0.002  0.00  0.00    +0.180 A 
ATOM      5  S   LIG    1       -0.021   1.708   0.011  0.00  0.00    +0.180 S 
ENDROOT
TORSDOF 0
