REMARK  Name = ZINCvU0000000HG8.0
REMARK                            x       y       z     vdW  Elec       q    Type
REMARK                         _______ _______ _______ _____ _____    ______ ____
ROOT
ATOM      1  N   LIG    1        2.663   2.057   0.237  0.00  0.00    -0.480 N 
ATOM      2  C   LIG    1        2.102   1.768  -0.954  0.00  0.00    +0.580 C 
ATOM      3  O   LIG    1        2.802   1.627  -1.938  0.00  0.00    -0.480 OA
ENDROOT
BRANCH   1   4
ATOM      4  C   LIG    1        1.868   2.180   1.365  0.00  0.00    +0.320 A 
ATOM      5  N   LIG    1        1.262   3.259   1.724  0.00  0.00    -0.430 NA
ATOM      6  C   LIG    1        0.523   3.223   2.850  0.00  0.00    +0.080 A 
ATOM      7  C   LIG    1       -0.227   4.257   3.448  0.00  0.00    +0.090 A 
ATOM      8  C   LIG    1       -0.923   4.030   4.608  0.00  0.00    +0.030 A 
ATOM      9  C   LIG    1       -0.902   2.781   5.211  0.00  0.00    +0.050 A 
ATOM     10  C   LIG    1       -0.177   1.756   4.646  0.00  0.00    +0.060 A 
ATOM     11  C   LIG    1        0.536   1.968   3.469  0.00  0.00    -0.150 A 
ATOM     12  S   LIG    1        1.543   0.886   2.510  0.00  0.00    +0.060 S 
ENDBRANCH   1   4
BRANCH   1  16
ATOM     13  C   LIG    1        6.787   2.580   0.526  0.00  0.00    -0.070 A 
ATOM     14  C   LIG    1        6.055   3.344  -0.365  0.00  0.00    +0.030 A 
ATOM     15  C   LIG    1        4.688   3.173  -0.463  0.00  0.00    +0.040 A 
ATOM     16  C   LIG    1        4.048   2.233   0.334  0.00  0.00    +0.120 A 
ATOM     17  C   LIG    1        4.785   1.472   1.232  0.00  0.00    +0.010 A 
ATOM     18  C   LIG    1        6.153   1.644   1.321  0.00  0.00    +0.030 A 
BRANCH  13  20
ATOM     19  C   LIG    1        8.640   3.188   2.057  0.00  0.00    +0.030 C 
ATOM     20  C   LIG    1        8.278   2.770   0.631  0.00  0.00    +0.020 C 
ATOM     21  C   LIG    1        8.984   1.456   0.290  0.00  0.00    +0.030 C 
ENDBRANCH  13  20
ENDBRANCH   1  16
BRANCH   2  22
ATOM     22  C   LIG    1        0.636   1.623  -1.065  0.00  0.00    -0.150 A 
ATOM     23  C   LIG    1       -0.054   0.784  -0.188  0.00  0.00    +0.100 A 
ATOM     24  C   LIG    1       -1.424   0.658  -0.293  0.00  0.00    +0.000 A 
ATOM     25  C   LIG    1       -2.113   1.352  -1.272  0.00  0.00    +0.150 A 
ATOM     26  C   LIG    1       -1.434   2.181  -2.148  0.00  0.00    -0.660 A 
ATOM     27  C   LIG    1       -0.066   2.321  -2.050  0.00  0.00    +0.180 A 
BRANCH  26  28
ATOM     28  S   LIG    1       -2.322   3.061  -3.390  0.00  0.00    +2.500 S 
ATOM     29  O   LIG    1       -1.515   4.200  -3.656  0.00  0.00    -0.930 OA
ATOM     30  O   LIG    1       -3.631   3.200  -2.854  0.00  0.00    -0.930 OA
ATOM     31  C   LIG    1       -2.333   1.941  -4.817  0.00  0.00    -0.250 C 
ENDBRANCH  26  28
ENDBRANCH   2  22
TORSDOF 5
