REMARK  Name = ZINCrD00000hQ4PD.0
REMARK                            x       y       z     vdW  Elec       q    Type
REMARK                         _______ _______ _______ _____ _____    ______ ____
ROOT
ATOM      1  C   LIG    1        0.706   0.029  -6.825  0.00  0.00    -0.050 C 
ATOM      2  C   LIG    1       -0.125   1.000  -6.529  0.00  0.00    -0.050 C 
ATOM      3  C   LIG    1        0.031   1.884  -5.322  0.00  0.00    +0.310 C 
ATOM      4  N   LIG    1        1.062   1.318  -4.440  0.00  0.00    -0.610 N 
ATOM      5  C   LIG    1        2.293   0.817  -5.073  0.00  0.00    +0.290 C 
ATOM      6  C   LIG    1        0.888   1.265  -3.104  0.00  0.00    +0.600 C 
ATOM      7  O   LIG    1        1.787   0.862  -2.390  0.00  0.00    -0.510 OA
ATOM      8  C   LIG    1        1.904  -0.342  -6.002  0.00  0.00    +0.070 C 
ENDROOT
BRANCH   6   9
ATOM      9  C   LIG    1       -0.388   1.694  -2.510  0.00  0.00    -0.020 A 
ATOM     10  C   LIG    1       -1.025   1.139  -1.434  0.00  0.00    -0.120 A 
ATOM     11  C   LIG    1       -0.650  -0.023  -0.554  0.00  0.00    +0.110 C 
ATOM     12  C   LIG    1       -1.522   0.055   0.710  0.00  0.00    +0.150 C 
ATOM     13  O   LIG    1       -2.889   0.265   0.342  0.00  0.00    -0.370 OA
ATOM     14  C   LIG    1       -3.185   1.578  -0.153  0.00  0.00    +0.260 C 
ATOM     15  C   LIG    1       -4.609   1.613  -0.711  0.00  0.00    +0.070 C 
ATOM     16  C   LIG    1       -1.399  -1.253   1.494  0.00  0.00    +0.060 C 
ATOM     17  C   LIG    1       -2.198   1.888  -1.251  0.00  0.00    +0.000 A 
ATOM     18  N   LIG    1       -2.223   2.811  -2.164  0.00  0.00    -0.240 NA
ATOM     19  N   LIG    1       -1.183   2.732  -2.922  0.00  0.00    -0.390 N 
ATOM     20  H   LIG    1       -0.992   3.319  -3.670  0.00  0.00    +0.450 HD
ENDBRANCH   6   9
BRANCH   1  24
ATOM     21  C   LIG    1       -0.045  -2.214 -10.354  0.00  0.00    +0.130 A 
ATOM     22  C   LIG    1        0.276  -0.866 -10.446  0.00  0.00    -0.020 A 
ATOM     23  C   LIG    1        0.520  -0.135  -9.303  0.00  0.00    +0.060 A 
ATOM     24  C   LIG    1        0.444  -0.751  -8.053  0.00  0.00    -0.100 A 
ATOM     25  C   LIG    1        0.126  -2.107  -7.965  0.00  0.00    +0.070 A 
ATOM     26  C   LIG    1       -0.122  -2.830  -9.113  0.00  0.00    -0.080 A 
BRANCH  21  28
ATOM     27  C   LIG    1       -0.610  -4.313 -11.317  0.00  0.00    +0.250 C 
ATOM     28  O   LIG    1       -0.285  -2.931 -11.483  0.00  0.00    -0.320 OA
ENDBRANCH  21  28
ENDBRANCH   1  24
TORSDOF 3
