REMARK  Name = ZINCrD00000hQ4PD.1
REMARK                            x       y       z     vdW  Elec       q    Type
REMARK                         _______ _______ _______ _____ _____    ______ ____
ROOT
ATOM      1  C   LIG    1        2.432  -5.226   6.098  0.00  0.00    -0.070 C 
ATOM      2  C   LIG    1        1.958  -5.757   4.997  0.00  0.00    -0.040 C 
ATOM      3  C   LIG    1        2.161  -5.159   3.637  0.00  0.00    +0.340 C 
ATOM      4  N   LIG    1        2.723  -3.808   3.778  0.00  0.00    -0.600 N 
ATOM      5  C   LIG    1        3.796  -3.622   4.770  0.00  0.00    +0.290 C 
ATOM      6  C   LIG    1        2.271  -2.780   3.033  0.00  0.00    +0.610 C 
ATOM      7  O   LIG    1        2.795  -1.687   3.124  0.00  0.00    -0.530 OA
ATOM      8  C   LIG    1        3.224  -3.953   6.151  0.00  0.00    +0.080 C 
ENDROOT
BRANCH   6   9
ATOM      9  C   LIG    1        1.139  -2.981   2.106  0.00  0.00    +0.010 A 
ATOM     10  N   LIG    1        0.544  -4.129   1.820  0.00  0.00    -0.260 NA
ATOM     11  N   LIG    1       -0.407  -3.938   0.971  0.00  0.00    -0.360 N 
ATOM     12  H   LIG    1       -0.982  -4.633   0.615  0.00  0.00    +0.450 HD
ATOM     13  C   LIG    1       -0.486  -2.638   0.655  0.00  0.00    -0.020 A 
ATOM     14  C   LIG    1       -1.428  -1.923  -0.280  0.00  0.00    +0.240 C 
ATOM     15  C   LIG    1       -2.858  -2.414  -0.047  0.00  0.00    +0.070 C 
ATOM     16  O   LIG    1       -1.345  -0.519  -0.001  0.00  0.00    -0.360 OA
ATOM     17  C   LIG    1       -0.015   0.005   0.023  0.00  0.00    +0.140 C 
ATOM     18  C   LIG    1       -0.070   1.534   0.061  0.00  0.00    +0.080 C 
ATOM     19  C   LIG    1        0.722  -0.511   1.269  0.00  0.00    +0.120 C 
ATOM     20  C   LIG    1        0.484  -1.994   1.356  0.00  0.00    -0.140 A 
ENDBRANCH   6   9
BRANCH   1  24
ATOM     21  C   LIG    1        1.678  -7.244   9.759  0.00  0.00    +0.130 A 
ATOM     22  C   LIG    1        2.468  -7.845   8.787  0.00  0.00    -0.020 A 
ATOM     23  C   LIG    1        2.715  -7.193   7.598  0.00  0.00    +0.060 A 
ATOM     24  C   LIG    1        2.170  -5.928   7.371  0.00  0.00    -0.090 A 
ATOM     25  C   LIG    1        1.381  -5.326   8.353  0.00  0.00    +0.050 A 
ATOM     26  C   LIG    1        1.135  -5.986   9.537  0.00  0.00    -0.080 A 
BRANCH  21  28
ATOM     27  C   LIG    1        0.618  -7.215  11.886  0.00  0.00    +0.250 C 
ATOM     28  O   LIG    1        1.438  -7.889  10.930  0.00  0.00    -0.320 OA
ENDBRANCH  21  28
ENDBRANCH   1  24
TORSDOF 3
