REMARK  Name = ZINCrD000000AkYL.0
REMARK                            x       y       z     vdW  Elec       q    Type
REMARK                         _______ _______ _______ _____ _____    ______ ____
ROOT
ATOM      1  N   LIG    1       -0.686   1.578   1.213  0.00  0.00    -0.570 N 
ATOM      2  C   LIG    1       -0.410   2.736   1.827  0.00  0.00    +0.710 C 
ATOM      3  N   LIG    1       -1.185   2.941   2.911  0.00  0.00    -0.710 N 
ATOM      4  H   LIG    1       -1.165   3.707   3.506  0.00  0.00    +0.440 HD
ATOM      5  C   LIG    1       -2.058   1.771   3.014  0.00  0.00    +0.170 C 
ATOM      6  C   LIG    1       -1.855   1.037   4.346  0.00  0.00    +0.080 C 
ATOM      7  C   LIG    1       -2.990   1.621   5.216  0.00  0.00    +0.100 C 
ATOM      8  C   LIG    1       -4.055   2.067   4.235  0.00  0.00    -0.070 A 
ATOM      9  C   LIG    1       -5.389   2.372   4.438  0.00  0.00    +0.020 A 
ATOM     10  C   LIG    1       -6.183   2.763   3.377  0.00  0.00    +0.030 A 
ATOM     11  C   LIG    1       -5.644   2.850   2.108  0.00  0.00    +0.010 A 
ATOM     12  C   LIG    1       -4.312   2.546   1.903  0.00  0.00    +0.050 A 
ATOM     13  C   LIG    1       -3.513   2.154   2.963  0.00  0.00    -0.110 A 
ATOM     14  O   LIG    1        0.441   3.517   1.447  0.00  0.00    -0.530 OA
ATOM     15  C   LIG    1       -1.670   0.902   1.847  0.00  0.00    +0.540 C 
ATOM     16  O   LIG    1       -2.139  -0.173   1.541  0.00  0.00    -0.450 OA
ENDROOT
BRANCH   1  17
ATOM     17  C   LIG    1       -0.003   1.101   0.008  0.00  0.00    +0.370 C 
BRANCH  17  19
ATOM     18  O   LIG    1       -1.735   2.271  -1.089  0.00  0.00    -0.500 OA
ATOM     19  C   LIG    1       -0.738   1.591  -1.213  0.00  0.00    +0.510 C 
ATOM     20  N   LIG    1       -0.288   1.272  -2.443  0.00  0.00    -0.670 N 
ATOM     21  H   LIG    1        0.543   0.784  -2.544  0.00  0.00    +0.420 HD
BRANCH  20  22
ATOM     22  C   LIG    1       -1.022   1.647  -3.575  0.00  0.00    +0.160 A 
ATOM     23  C   LIG    1       -1.723   2.845  -3.585  0.00  0.00    +0.060 A 
ATOM     24  C   LIG    1       -2.441   3.215  -4.706  0.00  0.00    +0.070 A 
ATOM     25  C   LIG    1       -2.472   2.387  -5.814  0.00  0.00    -0.040 A 
ATOM     26  C   LIG    1       -1.780   1.189  -5.806  0.00  0.00    +0.070 A 
ATOM     27 CL   LIG    1       -3.381   2.852  -7.218  0.00  0.00    -0.050 Cl
ATOM     28  C   LIG    1       -1.055   0.816  -4.690  0.00  0.00    -0.050 A 
ATOM     29 CL   LIG    1       -0.185  -0.686  -4.679  0.00  0.00    -0.050 Cl
ENDBRANCH  20  22
ENDBRANCH  17  19
ENDBRANCH   1  17
TORSDOF 3
