REMARK  Name = ZINCpk00000AZSzs.0
REMARK                            x       y       z     vdW  Elec       q    Type
REMARK                         _______ _______ _______ _____ _____    ______ ____
ROOT
ATOM      1  C   LIG    1        5.910  -4.503  -3.820  0.00  0.00    +0.040 C 
ATOM      2  C   LIG    1        6.293  -3.042  -3.580  0.00  0.00    -0.060 C 
ATOM      3  C   LIG    1        7.793  -2.949  -3.293  0.00  0.00    +0.030 C 
ATOM      4  C   LIG    1        8.181  -1.487  -3.062  0.00  0.00    +0.030 C 
ATOM      5  C   LIG    1        7.406  -0.938  -1.861  0.00  0.00    +0.060 C 
ATOM      6  C   LIG    1        5.909  -1.049  -2.128  0.00  0.00    +0.130 C 
ATOM      7  N   LIG    1        5.526  -0.204  -3.267  0.00  0.00    -0.720 N 
ATOM      8  H   LIG    1        5.841  -0.283  -4.180  0.00  0.00    +0.440 HD
ATOM      9  C   LIG    1        4.649   0.701  -2.791  0.00  0.00    +0.700 C 
ATOM     10  N   LIG    1        4.416   0.548  -1.482  0.00  0.00    -0.560 N 
ATOM     11  O   LIG    1        4.128   1.561  -3.474  0.00  0.00    -0.540 OA
ATOM     12  C   LIG    1        5.127  -0.478  -0.968  0.00  0.00    +0.540 C 
ATOM     13  O   LIG    1        5.134  -0.861   0.182  0.00  0.00    -0.460 OA
ATOM     14  C   LIG    1        5.960  -2.215  -4.824  0.00  0.00    +0.040 C 
ATOM     15  C   LIG    1        5.511  -2.499  -2.381  0.00  0.00    +0.070 C 
ENDROOT
BRANCH  10  16
ATOM     16  C   LIG    1        3.507   1.392  -0.703  0.00  0.00    +0.360 C 
BRANCH  16  17
ATOM     17  C   LIG    1        2.123   0.798  -0.730  0.00  0.00    +0.500 C 
ATOM     18  N   LIG    1        1.115   1.409  -0.076  0.00  0.00    -0.720 N 
ATOM     19  H   LIG    1        1.281   2.231   0.412  0.00  0.00    +0.410 HD
ATOM     20  O   LIG    1        1.915  -0.229  -1.339  0.00  0.00    -0.520 OA
BRANCH  18  21
ATOM     21  C   LIG    1       -0.231   0.832  -0.102  0.00  0.00    +0.230 C 
ATOM     22  C   LIG    1       -1.020   1.353  -1.324  0.00  0.00    +0.200 C 
ATOM     23  O   LIG    1       -2.374   1.517  -0.846  0.00  0.00    -0.370 OA
ATOM     24  C   LIG    1       -2.244   2.074   0.480  0.00  0.00    +0.210 C 
ATOM     25  C   LIG    1       -1.052   1.317   1.114  0.00  0.00    -0.110 C 
ATOM     26  C   LIG    1       -0.217   2.260   1.983  0.00  0.00    +0.050 C 
ATOM     27  C   LIG    1       -1.548   0.126   1.936  0.00  0.00    +0.040 C 
ENDBRANCH  18  21
ENDBRANCH  16  17
ENDBRANCH  10  16
TORSDOF 3
