REMARK  Name = ZINCpk00000y6yDu.0
REMARK                            x       y       z     vdW  Elec       q    Type
REMARK                         _______ _______ _______ _____ _____    ______ ____
ROOT
ATOM      1  C   LIG    1        0.536  -6.142   1.231  0.00  0.00    +0.430 A 
ATOM      2  N   LIG    1       -0.169  -6.859   2.076  0.00  0.00    -0.540 NA
ATOM      3  C   LIG    1       -1.379  -6.480   2.498  0.00  0.00    +0.180 A 
ATOM      4  C   LIG    1       -2.112  -7.268   3.403  0.00  0.00    +0.030 A 
ATOM      5  C   LIG    1       -3.342  -6.856   3.815  0.00  0.00    +0.050 A 
ATOM      6  C   LIG    1       -3.893  -5.663   3.353  0.00  0.00    -0.010 A 
ATOM      7  C   LIG    1       -3.211  -4.874   2.475  0.00  0.00    +0.070 A 
ATOM      8  C   LIG    1       -1.944  -5.268   2.031  0.00  0.00    -0.120 A 
ATOM      9  C   LIG    1       -1.175  -4.454   1.089  0.00  0.00    -0.030 A 
ATOM     10  C   LIG    1        0.068  -4.930   0.703  0.00  0.00    -0.030 A 
ENDROOT
BRANCH   9  11
ATOM     11  C   LIG    1       -1.707  -3.177   0.564  0.00  0.00    +0.590 C 
ATOM     12  N   LIG    1       -0.902  -2.101   0.465  0.00  0.00    -0.610 N 
ATOM     13  C   LIG    1        0.498  -2.019   0.946  0.00  0.00    +0.280 C 
ATOM     14  C   LIG    1        0.949  -0.590   0.678  0.00  0.00    +0.170 C 
ATOM     15  O   LIG    1        2.295  -0.365   0.314  0.00  0.00    -0.360 OA
ATOM     16  C   LIG    1        2.527   1.037   0.079  0.00  0.00    +0.240 C 
ATOM     17  C   LIG    1        1.569   1.602  -0.965  0.00  0.00    +0.160 C 
ATOM     18  N   LIG    1        0.164   1.246  -0.669  0.00  0.00    -0.510 NA
ATOM     19  C   LIG    1       -0.737   1.744  -1.716  0.00  0.00    +0.200 C 
ATOM     20  C   LIG    1        0.083  -0.203  -0.556  0.00  0.00    +0.090 C 
ATOM     21  C   LIG    1       -1.266  -0.794  -0.142  0.00  0.00    +0.300 C 
ATOM     22  O   LIG    1       -2.870  -3.098   0.220  0.00  0.00    -0.510 OA
ENDBRANCH   9  11
BRANCH   1  24
ATOM     23  C   LIG    1        2.639  -5.774  -0.012  0.00  0.00    +0.300 C 
ATOM     24  N   LIG    1        1.785  -6.603   0.842  0.00  0.00    -0.610 N 
ATOM     25  C   LIG    1        2.250  -7.920   1.284  0.00  0.00    +0.290 C 
ENDBRANCH   1  24
TORSDOF 2
