REMARK  Name = ZINCrD00000724Tz.0
REMARK                            x       y       z     vdW  Elec       q    Type
REMARK                         _______ _______ _______ _____ _____    ______ ____
ROOT
ATOM      1  N   LIG    1        3.589   2.128  -0.021  0.00  0.00    -0.670 N 
ATOM      2  H   LIG    1        3.621   3.030   0.334  0.00  0.00    +0.410 HD
ATOM      3  C   LIG    1        4.703   1.564  -0.528  0.00  0.00    +0.520 C 
ATOM      4  O   LIG    1        4.644   0.475  -1.059  0.00  0.00    -0.490 OA
ENDROOT
BRANCH   1   8
ATOM      5  C   LIG    1        0.006  -0.010   0.019  0.00  0.00    +0.090 A 
ATOM      6  C   LIG    1        1.212  -0.674   0.177  0.00  0.00    -0.010 A 
ATOM      7  C   LIG    1        2.399   0.035   0.164  0.00  0.00    +0.030 A 
ATOM      8  C   LIG    1        2.385   1.412  -0.008  0.00  0.00    +0.150 A 
ATOM      9  C   LIG    1        1.178   2.080  -0.167  0.00  0.00    -0.060 A 
ATOM     10  C   LIG    1       -0.011   1.371  -0.154  0.00  0.00    +0.120 A 
BRANCH   5  11
ATOM     11  O   LIG    1       -1.162  -0.709   0.031  0.00  0.00    -0.300 OA
BRANCH  11  13
ATOM     12  C   LIG    1       -2.473  -2.732   0.199  0.00  0.00    +0.070 C 
ATOM     13  C   LIG    1       -1.070  -2.123   0.213  0.00  0.00    +0.170 C 
ENDBRANCH  11  13
ENDBRANCH   5  11
BRANCH  10  14
ATOM     14  O   LIG    1       -1.194   2.022  -0.316  0.00  0.00    -0.300 OA
BRANCH  14  15
ATOM     15  C   LIG    1       -1.135   3.439  -0.488  0.00  0.00    +0.170 C 
ATOM     16  C   LIG    1       -2.553   3.992  -0.654  0.00  0.00    +0.070 C 
ENDBRANCH  14  15
ENDBRANCH  10  14
ENDBRANCH   1   8
BRANCH   3  17
ATOM     17  C   LIG    1        6.023   2.286  -0.434  0.00  0.00    +0.270 C 
BRANCH  17  18
ATOM     18  O   LIG    1        7.061   1.477  -1.048  0.00  0.00    -0.330 OA
BRANCH  18  19
ATOM     19  C   LIG    1        8.306   1.981  -1.048  0.00  0.00    +0.470 C 
ATOM     20  O   LIG    1        8.520   3.062  -0.552  0.00  0.00    -0.500 OA
BRANCH  19  21
ATOM     21  C   LIG    1        9.435   1.199  -1.666  0.00  0.00    +0.180 C 
BRANCH  21  22
ATOM     22  C   LIG    1       10.717   1.980  -1.536  0.00  0.00    -0.120 A 
ATOM     23  C   LIG    1       11.618   1.668  -0.535  0.00  0.00    +0.050 A 
ATOM     24  C   LIG    1       12.795   2.384  -0.416  0.00  0.00    +0.000 A 
ATOM     25  C   LIG    1       13.071   3.413  -1.296  0.00  0.00    +0.060 A 
ATOM     26  C   LIG    1       12.172   3.727  -2.298  0.00  0.00    -0.010 A 
ATOM     27  C   LIG    1       10.996   3.006  -2.422  0.00  0.00    +0.120 A 
ATOM     28  F   LIG    1       10.119   3.308  -3.405  0.00  0.00    -0.140 F 
ENDBRANCH  21  22
ENDBRANCH  19  21
ENDBRANCH  18  19
ENDBRANCH  17  18
ENDBRANCH   3  17
TORSDOF 10
