REMARK  Name = ZINCvU0000000Iy0.0
REMARK                            x       y       z     vdW  Elec       q    Type
REMARK                         _______ _______ _______ _____ _____    ______ ____
ROOT
ATOM      1  C   LIG    1       -3.009   4.117  -1.369  0.00  0.00    +0.240 A 
ATOM      2  N   LIG    1       -3.755   3.313  -2.081  0.00  0.00    -0.300 NA
ATOM      3  N   LIG    1       -3.937   3.929  -3.330  0.00  0.00    -0.340 N 
ATOM      4  C   LIG    1       -3.265   5.096  -3.278  0.00  0.00    +0.310 A 
ATOM      5  N   LIG    1       -2.719   5.196  -2.094  0.00  0.00    -0.520 NA
ENDROOT
BRANCH   4   6
ATOM      6  C   LIG    1       -3.166   6.110  -4.388  0.00  0.00    +0.070 C 
ATOM      7  C   LIG    1       -1.773   6.753  -4.512  0.00  0.00    +0.100 C 
ATOM      8  C   LIG    1       -2.502   8.078  -4.771  0.00  0.00    -0.160 C 
ATOM      9  C   LIG    1       -1.941   9.495  -4.733  0.00  0.00    +0.040 C 
ATOM     10  C   LIG    1       -2.508   8.927  -6.037  0.00  0.00    +0.050 C 
ATOM     11  C   LIG    1       -3.695   7.502  -4.000  0.00  0.00    +0.100 C 
ENDBRANCH   4   6
BRANCH   3  12
ATOM     12  C   LIG    1       -4.669   3.428  -4.416  0.00  0.00    +0.180 A 
ATOM     13  C   LIG    1       -5.376   4.295  -5.237  0.00  0.00    +0.020 A 
ATOM     14  C   LIG    1       -6.093   3.800  -6.309  0.00  0.00    +0.100 A 
ATOM     15  C   LIG    1       -6.115   2.440  -6.557  0.00  0.00    -0.180 A 
ATOM     16  C   LIG    1       -5.417   1.573  -5.738  0.00  0.00    +0.100 A 
ATOM     17  C   LIG    1       -4.694   2.063  -4.668  0.00  0.00    +0.040 A 
BRANCH  15  18
ATOM     18  C   LIG    1       -6.903   1.901  -7.724  0.00  0.00    +0.510 C 
ATOM     19  F   LIG    1       -6.294   0.735  -8.199  0.00  0.00    -0.170 F 
ATOM     20  F   LIG    1       -6.939   2.858  -8.744  0.00  0.00    -0.170 F 
ATOM     21  F   LIG    1       -8.208   1.611  -7.311  0.00  0.00    -0.170 F 
ENDBRANCH  15  18
ENDBRANCH   3  12
BRANCH   1  22
ATOM     22  C   LIG    1       -2.556   3.865   0.047  0.00  0.00    +0.230 C 
BRANCH  22  26
ATOM     23  C   LIG    1        1.178   1.786   0.000  0.00  0.00    +0.100 A 
ATOM     24  C   LIG    1       -0.013   1.076   0.008  0.00  0.00    -0.040 A 
ATOM     25  C   LIG    1       -1.219   1.751   0.017  0.00  0.00    +0.060 A 
ATOM     26  C   LIG    1       -1.239   3.133   0.030  0.00  0.00    -0.100 A 
ATOM     27  C   LIG    1       -0.054   3.845   0.022  0.00  0.00    +0.050 A 
ATOM     28  C   LIG    1        1.156   3.175   0.008  0.00  0.00    +0.070 A 
ATOM     29  F   LIG    1        2.314   3.870  -0.000  0.00  0.00    -0.130 F 
BRANCH  23  31
ATOM     30  C   LIG    1        2.312  -0.305  -0.020  0.00  0.00    +0.250 C 
ATOM     31  O   LIG    1        2.365   1.123  -0.014  0.00  0.00    -0.310 OA
ENDBRANCH  23  31
ENDBRANCH  22  26
ENDBRANCH   1  22
TORSDOF 6
