REMARK  Name = ZINCtV00000tQPyj.0
REMARK                            x       y       z     vdW  Elec       q    Type
REMARK                         _______ _______ _______ _____ _____    ______ ____
ROOT
ATOM      1  C   LIG    1        1.371   4.115  -1.409  0.00  0.00    +0.040 C 
ATOM      2  C   LIG    1        1.143   3.593   0.011  0.00  0.00    +0.280 C 
ENDROOT
BRANCH   2   3
ATOM      3  C   LIG    1        1.170   2.086   0.002  0.00  0.00    -0.090 A 
ATOM      4  C   LIG    1       -0.017   1.376   0.010  0.00  0.00    +0.030 A 
ATOM      5  C   LIG    1        0.002  -0.004   0.002  0.00  0.00    +0.030 A 
ATOM      6  C   LIG    1        1.219  -0.682  -0.013  0.00  0.00    -0.050 A 
ATOM      7  C   LIG    1        2.412   0.039  -0.021  0.00  0.00    +0.030 A 
ATOM      8  C   LIG    1        2.382   1.419  -0.013  0.00  0.00    +0.010 A 
BRANCH   6   9
ATOM      9  C   LIG    1        1.246  -2.166  -0.021  0.00  0.00    -0.040 A 
ATOM     10  C   LIG    1        0.052  -2.885  -0.013  0.00  0.00    +0.060 A 
ATOM     11  C   LIG    1        0.073  -4.266  -0.021  0.00  0.00    +0.030 A 
ATOM     12  C   LIG    1        1.275  -4.944  -0.037  0.00  0.00    +0.070 A 
ATOM     13  C   LIG    1        2.479  -4.234  -0.045  0.00  0.00    -0.020 A 
ATOM     14  C   LIG    1        2.462  -2.840  -0.042  0.00  0.00    +0.080 A 
BRANCH  13  15
ATOM     15  C   LIG    1        3.726  -4.937  -0.062  0.00  0.00    +0.250 C 
ATOM     16  N   LIG    1        4.716  -5.495  -0.075  0.00  0.00    -0.410 NA
ENDBRANCH  13  15
ENDBRANCH   6   9
ENDBRANCH   2   3
BRANCH   2  17
ATOM     17  N   LIG    1        2.201   4.095   0.891  0.00  0.00    -0.720 N 
ATOM     18  H   LIG    1        2.986   3.552   1.066  0.00  0.00    +0.400 HD
ATOM     19  C   LIG    1        2.084   5.312   1.458  0.00  0.00    +0.600 C 
ATOM     20  O   LIG    1        1.100   5.994   1.239  0.00  0.00    -0.520 OA
BRANCH  19  21
ATOM     21  C   LIG    1        3.143   5.815   2.340  0.00  0.00    -0.270 A 
ATOM     22  C   LIG    1        3.136   7.027   2.962  0.00  0.00    +0.130 A 
ATOM     23  C   LIG    1        4.260   7.250   3.743  0.00  0.00    -0.040 A 
ATOM     24  C   LIG    1        5.161   6.229   3.735  0.00  0.00    -0.030 A 
ATOM     25  S   LIG    1        4.617   4.949   2.748  0.00  0.00    +0.240 S 
BRANCH  23  26
ATOM     26  C   LIG    1        4.466   8.496   4.514  0.00  0.00    +0.040 A 
ATOM     27  C   LIG    1        5.540   8.781   5.296  0.00  0.00    -0.040 A 
ATOM     28  C   LIG    1        5.322  10.067   5.833  0.00  0.00    -0.060 A 
ATOM     29  C   LIG    1        4.134  10.494   5.364  0.00  0.00    +0.180 A 
ATOM     30  O   LIG    1        3.620   9.542   4.566  0.00  0.00    -0.170 OA
ENDBRANCH  23  26
ENDBRANCH  19  21
ENDBRANCH   2  17
TORSDOF 6
