REMARK  Name = ZINCvU0000000HAc.0
REMARK                            x       y       z     vdW  Elec       q    Type
REMARK                         _______ _______ _______ _____ _____    ______ ____
ROOT
ATOM      1  C   LIG    1        3.003  -0.604  -3.379  0.00  0.00    +0.130 A 
ATOM      2  C   LIG    1        3.535   0.444  -4.118  0.00  0.00    +0.060 A 
ATOM      3  C   LIG    1        3.832   1.643  -3.501  0.00  0.00    -0.030 A 
ATOM      4  C   LIG    1        3.598   1.802  -2.143  0.00  0.00    +0.100 A 
ATOM      5  C   LIG    1        3.067   0.755  -1.404  0.00  0.00    -0.070 A 
ATOM      6  C   LIG    1        2.775  -0.446  -2.018  0.00  0.00    +0.030 A 
ENDROOT
BRANCH   1   9
ATOM      7  O   LIG    1        4.463  -1.644  -5.349  0.00  0.00    -0.510 OA
ATOM      8  C   LIG    1        3.460  -2.257  -5.029  0.00  0.00    +0.600 C 
ATOM      9  N   LIG    1        2.702  -1.820  -4.004  0.00  0.00    -0.670 N 
ATOM     10  H   LIG    1        1.948  -2.348  -3.699  0.00  0.00    +0.410 HD
BRANCH   8  11
ATOM     11  C   LIG    1        3.080  -3.466  -5.755  0.00  0.00    -0.340 A 
ATOM     12  C   LIG    1        3.768  -4.005  -6.808  0.00  0.00    +0.130 A 
ATOM     13  C   LIG    1        3.194  -5.146  -7.309  0.00  0.00    -0.060 A 
ATOM     14  C   LIG    1        2.056  -5.534  -6.678  0.00  0.00    +0.030 A 
ATOM     15  S   LIG    1        1.673  -4.460  -5.408  0.00  0.00    +0.320 S 
BRANCH  14  16
ATOM     16  N   LIG    1        1.309  -6.656  -7.015  0.00  0.00    -0.630 N 
ATOM     17  H   LIG    1        1.592  -7.224  -7.749  0.00  0.00    +0.420 HD
ATOM     18  C   LIG    1        0.192  -6.955  -6.324  0.00  0.00    +0.540 C 
ATOM     19  O   LIG    1       -0.162  -6.245  -5.406  0.00  0.00    -0.500 OA
BRANCH  18  20
ATOM     20  C   LIG    1       -0.619  -8.172  -6.690  0.00  0.00    -0.070 C 
ATOM     21  C   LIG    1       -2.002  -7.941  -7.302  0.00  0.00    +0.060 C 
ATOM     22  C   LIG    1       -1.876  -8.457  -5.867  0.00  0.00    +0.080 C 
ENDBRANCH  18  20
ENDBRANCH  14  16
ENDBRANCH   8  11
ENDBRANCH   1   9
BRANCH   5  23
ATOM     23  C   LIG    1        2.813   0.928   0.072  0.00  0.00    +0.140 C 
BRANCH  23  24
ATOM     24  C   LIG    1        1.465   1.569   0.278  0.00  0.00    -0.080 A 
ATOM     25  C   LIG    1        0.338   0.779   0.412  0.00  0.00    +0.010 A 
ATOM     26  C   LIG    1       -0.900   1.367   0.597  0.00  0.00    +0.000 A 
ATOM     27  C   LIG    1       -1.009   2.744   0.656  0.00  0.00    +0.000 A 
ATOM     28  C   LIG    1        0.118   3.533   0.523  0.00  0.00    +0.000 A 
ATOM     29  C   LIG    1        1.355   2.946   0.334  0.00  0.00    +0.010 A 
ENDBRANCH  23  24
ENDBRANCH   5  23
BRANCH   4  30
ATOM     30  O   LIG    1        3.891   2.983  -1.537  0.00  0.00    -0.320 OA
BRANCH  30  31
ATOM     31  C   LIG    1        4.436   4.017  -2.359  0.00  0.00    +0.590 C 
ATOM     32  F   LIG    1        3.528   4.331  -3.376  0.00  0.00    -0.200 F 
ATOM     33  F   LIG    1        5.637   3.578  -2.925  0.00  0.00    -0.200 F 
ENDBRANCH  30  31
ENDBRANCH   4  30
TORSDOF 8
