REMARK  Name = ZINCpk000005cWis.0
REMARK                            x       y       z     vdW  Elec       q    Type
REMARK                         _______ _______ _______ _____ _____    ______ ____
ROOT
ATOM      1  C   LIG    1        0.307  -0.406   2.832  0.00  0.00    +0.290 C 
ATOM      2  N   LIG    1        0.320   0.979   2.354  0.00  0.00    -0.610 N 
ATOM      3  C   LIG    1        1.022   1.916   3.022  0.00  0.00    +0.560 C 
ATOM      4  O   LIG    1        1.096   3.048   2.585  0.00  0.00    -0.520 OA
ENDROOT
BRANCH   3   5
ATOM      5  C   LIG    1        1.702   1.567   4.284  0.00  0.00    -0.050 A 
ATOM      6  C   LIG    1        1.561   2.394   5.422  0.00  0.00    -0.140 A 
ATOM      7  C   LIG    1        0.858   3.593   5.672  0.00  0.00    +0.270 A 
ATOM      8  N   LIG    1        1.065   3.947   6.909  0.00  0.00    -0.240 NA
ATOM      9  N   LIG    1        1.902   3.015   7.534  0.00  0.00    -0.500 N 
ATOM     10  H   LIG    1        2.207   3.050   8.454  0.00  0.00    +0.440 HD
ATOM     11  C   LIG    1        2.217   2.044   6.616  0.00  0.00    +0.120 A 
ATOM     12  C   LIG    1        2.996   0.892   6.666  0.00  0.00    +0.010 A 
ATOM     13  C   LIG    1        3.126   0.094   5.549  0.00  0.00    +0.070 A 
ATOM     14  C   LIG    1        2.482   0.419   4.367  0.00  0.00    +0.020 A 
ENDBRANCH   3   5
BRANCH   2  15
ATOM     15  C   LIG    1       -0.430   1.346   1.150  0.00  0.00    +0.280 C 
BRANCH  15  16
ATOM     16  C   LIG    1        0.467   1.184  -0.079  0.00  0.00    +0.270 C 
BRANCH  16  17
ATOM     17  N   LIG    1       -0.283   1.551  -1.282  0.00  0.00    -0.710 N 
ATOM     18  H   LIG    1       -1.205   1.842  -1.209  0.00  0.00    +0.410 HD
BRANCH  17  19
ATOM     19  C   LIG    1        0.326   1.483  -2.525  0.00  0.00    +0.480 A 
ATOM     20  C   LIG    1       -0.374   1.829  -3.682  0.00  0.00    -0.130 A 
ATOM     21  N   LIG    1       -1.651   2.270  -3.960  0.00  0.00    -0.580 N 
ATOM     22  H   LIG    1       -2.357   2.432  -3.315  0.00  0.00    +0.430 HD
ATOM     23  C   LIG    1       -1.733   2.436  -5.299  0.00  0.00    +0.530 A 
ATOM     24  N   LIG    1       -0.597   2.127  -5.860  0.00  0.00    -0.490 NA
ATOM     25  C   LIG    1        0.286   1.744  -4.919  0.00  0.00    +0.320 A 
ATOM     26  N   LIG    1        1.559   1.336  -4.939  0.00  0.00    -0.520 NA
ATOM     27  C   LIG    1        2.178   1.021  -3.823  0.00  0.00    +0.560 A 
ATOM     28  N   LIG    1        1.592   1.092  -2.642  0.00  0.00    -0.570 NA
ENDBRANCH  17  19
ENDBRANCH  16  17
ENDBRANCH  15  16
ENDBRANCH   2  15
TORSDOF 5
