REMARK  Name = ZINCvU0000000GDF.0
REMARK                            x       y       z     vdW  Elec       q    Type
REMARK                         _______ _______ _______ _____ _____    ______ ____
ROOT
ATOM      1  C   LIG    1       -2.476   0.797   0.133  0.00  0.00    +0.100 C 
ENDROOT
BRANCH   1   2
ATOM      2  C   LIG    1       -1.203   1.595   0.017  0.00  0.00    +0.530 C 
ATOM      3  N   LIG    1       -0.011   0.966   0.007  0.00  0.00    -0.660 N 
ATOM      4  H   LIG    1        0.025  -0.004   0.007  0.00  0.00    +0.410 HD
ATOM      5  O   LIG    1       -1.251   2.804  -0.067  0.00  0.00    -0.510 OA
BRANCH   3   6
ATOM      6  C   LIG    1        1.175   1.712  -0.008  0.00  0.00    +0.110 A 
ATOM      7  C   LIG    1        1.234   2.909  -0.709  0.00  0.00    +0.050 A 
ATOM      8  C   LIG    1        2.401   3.647  -0.719  0.00  0.00    -0.020 A 
ATOM      9  C   LIG    1        3.519   3.186  -0.037  0.00  0.00    +0.100 A 
ATOM     10  C   LIG    1        3.463   1.986   0.659  0.00  0.00    +0.010 A 
ATOM     11  C   LIG    1        2.294   1.251   0.673  0.00  0.00    +0.020 A 
BRANCH   9  12
ATOM     12  N   LIG    1        4.704   3.930  -0.052  0.00  0.00    -0.490 N 
ATOM     13  C   LIG    1        5.152   4.233   1.313  0.00  0.00    +0.180 C 
ATOM     14  C   LIG    1        6.520   4.919   1.261  0.00  0.00    +0.020 C 
ATOM     15  C   LIG    1        6.408   6.208   0.443  0.00  0.00    +0.010 C 
ATOM     16  C   LIG    1        5.893   5.871  -0.959  0.00  0.00    +0.020 C 
ATOM     17  C   LIG    1        4.544   5.157  -0.843  0.00  0.00    +0.180 C 
ENDBRANCH   9  12
ENDBRANCH   3   6
ENDBRANCH   1   2
BRANCH   1  18
ATOM     18  S   LIG    1       -3.895   1.920   0.117  0.00  0.00    +0.080 S 
BRANCH  18  22
ATOM     19  C   LIG    1       -5.578  -2.891   0.538  0.00  0.00    +0.190 C 
ATOM     20  C   LIG    1       -5.928  -1.428   0.449  0.00  0.00    +0.350 A 
ATOM     21  N   LIG    1       -4.953  -0.544   0.342  0.00  0.00    -0.530 NA
ATOM     22  C   LIG    1       -5.209   0.754   0.261  0.00  0.00    +0.190 A 
ATOM     23  C   LIG    1       -6.560   1.189   0.298  0.00  0.00    -0.160 A 
ATOM     24  C   LIG    1       -7.550   0.215   0.405  0.00  0.00    +0.100 A 
ATOM     25  S   LIG    1       -9.130   0.980   0.421  0.00  0.00    +0.170 S 
ATOM     26  C   LIG    1       -8.437   2.587   0.279  0.00  0.00    -0.170 A 
ATOM     27  C   LIG    1       -9.251   3.868   0.226  0.00  0.00    +0.120 C 
ATOM     28  C   LIG    1       -8.327   5.053   0.519  0.00  0.00    +0.030 C 
ATOM     29  C   LIG    1       -7.087   4.949  -0.375  0.00  0.00    +0.030 C 
ATOM     30  C   LIG    1       -6.226   3.777   0.097  0.00  0.00    +0.110 C 
ATOM     31  C   LIG    1       -7.105   2.539   0.222  0.00  0.00    -0.070 A 
ATOM     32  N   LIG    1       -7.192  -1.075   0.481  0.00  0.00    -0.490 NA
ENDBRANCH  18  22
ENDBRANCH   1  18
TORSDOF 5
