REMARK  Name = ZINCqH0000037DAP.0
REMARK                            x       y       z     vdW  Elec       q    Type
REMARK                         _______ _______ _______ _____ _____    ______ ____
ROOT
ATOM      1  N   LIG    1       -2.844   8.339  -4.068  0.00  0.00    -0.660 N 
ATOM      2  H   LIG    1       -2.094   8.097  -3.502  0.00  0.00    +0.410 HD
ATOM      3  C   LIG    1       -4.010   7.671  -3.964  0.00  0.00    +0.560 C 
ATOM      4  O   LIG    1       -4.979   8.037  -4.601  0.00  0.00    -0.510 OA
ENDROOT
BRANCH   1   7
ATOM      5  C   LIG    1       -0.776  10.248  -3.659  0.00  0.00    +0.110 C 
ATOM      6  C   LIG    1       -1.719  10.334  -4.831  0.00  0.00    -0.100 A 
ATOM      7  C   LIG    1       -2.715   9.380  -4.993  0.00  0.00    +0.170 A 
ATOM      8  C   LIG    1       -3.587   9.465  -6.072  0.00  0.00    +0.040 A 
ATOM      9  C   LIG    1       -3.460  10.494  -6.984  0.00  0.00    +0.060 A 
ATOM     10  C   LIG    1       -2.466  11.441  -6.828  0.00  0.00    +0.000 A 
ATOM     11  C   LIG    1       -1.592  11.362  -5.753  0.00  0.00    +0.140 A 
BRANCH  11  12
ATOM     12  N   LIG    1       -0.583  12.325  -5.595  0.00  0.00    -0.320 N 
ATOM     13  C   LIG    1       -0.405  13.451  -6.319  0.00  0.00    +0.470 A 
ATOM     14  N   LIG    1        0.650  14.057  -5.839  0.00  0.00    -0.330 NA
ATOM     15  N   LIG    1        1.150  13.391  -4.862  0.00  0.00    -0.040 NA
ATOM     16  N   LIG    1        0.455  12.326  -4.647  0.00  0.00    -0.080 NA
ENDBRANCH  11  12
ENDBRANCH   1   7
BRANCH   3  17
ATOM     17  C   LIG    1       -4.111   6.494  -3.076  0.00  0.00    -0.130 A 
ATOM     18  C   LIG    1       -5.317   5.800  -2.965  0.00  0.00    +0.100 A 
ATOM     19  C   LIG    1       -5.404   4.702  -2.135  0.00  0.00    +0.040 A 
ATOM     20  C   LIG    1       -4.299   4.288  -1.412  0.00  0.00    -0.040 A 
ATOM     21  C   LIG    1       -3.102   4.975  -1.513  0.00  0.00    +0.060 A 
ATOM     22  C   LIG    1       -3.000   6.071  -2.344  0.00  0.00    +0.040 A 
BRANCH  20  23
ATOM     23  C   LIG    1       -4.402   3.088  -0.506  0.00  0.00    +0.160 C 
ATOM     24  S   LIG    1       -3.222   1.786  -1.016  0.00  0.00    -0.230 S 
ATOM     25  C   LIG    1       -2.680   1.117   0.582  0.00  0.00    +0.130 C 
ATOM     26  C   LIG    1       -3.421   1.803   1.735  0.00  0.00    +0.140 C 
ATOM     27  S   LIG    1       -3.828   3.499   1.190  0.00  0.00    -0.230 S 
ENDBRANCH  20  23
ENDBRANCH   3  17
TORSDOF 4
