REMARK  Name = ZINCpe00000gMRvt.0
REMARK                            x       y       z     vdW  Elec       q    Type
REMARK                         _______ _______ _______ _____ _____    ______ ____
ROOT
ATOM      1  C   LIG    1       -1.485   0.039  -1.974  0.00  0.00    +0.180 C 
ATOM      2  C   LIG    1       -2.628   0.801  -1.300  0.00  0.00    +0.080 C 
ENDROOT
BRANCH   1   3
ATOM      3  C   LIG    1       -0.686  -0.695  -0.928  0.00  0.00    +0.520 C 
ATOM      4  N   LIG    1        0.002  -0.004   0.002  0.00  0.00    -0.610 N 
ATOM      5  C   LIG    1       -0.018   1.465   0.010  0.00  0.00    +0.260 C 
ATOM      6  C   LIG    1        1.426   1.978  -0.001  0.00  0.00    +0.020 C 
ATOM      7  C   LIG    1        2.194   1.353   1.166  0.00  0.00    +0.040 C 
ATOM      8  C   LIG    1        2.220  -0.169   1.005  0.00  0.00    -0.030 C 
ATOM      9  C   LIG    1        0.786  -0.706   1.028  0.00  0.00    +0.310 C 
ATOM     10  O   LIG    1       -0.661  -1.908  -0.924  0.00  0.00    -0.510 OA
BRANCH   8  11
ATOM     11  C   LIG    1        3.004  -0.780   2.138  0.00  0.00    +0.530 C 
ATOM     12  O   LIG    1        2.470  -1.568   2.889  0.00  0.00    -0.540 OA
ATOM     13  N   LIG    1        4.299  -0.452   2.316  0.00  0.00    -0.850 N 
ATOM     14  H   LIG    1        4.804  -0.846   3.044  0.00  0.00    +0.400 HD
ATOM     15  H   LIG    1        4.727   0.178   1.714  0.00  0.00    +0.400 HD
ENDBRANCH   8  11
ENDBRANCH   1   3
BRANCH   1  16
ATOM     16  O   LIG    1       -2.033  -0.914  -2.922  0.00  0.00    -0.330 OA
BRANCH  16  17
ATOM     17  C   LIG    1       -2.217  -0.485  -4.181  0.00  0.00    +0.460 C 
ATOM     18  O   LIG    1       -1.930   0.650  -4.480  0.00  0.00    -0.500 OA
BRANCH  17  19
ATOM     19  C   LIG    1       -2.781  -1.419  -5.221  0.00  0.00    +0.170 C 
BRANCH  19  24
ATOM     20  C   LIG    1       -3.197   1.354 -10.278  0.00  0.00    +0.090 C 
ATOM     21  C   LIG    1       -3.087   0.631  -8.960  0.00  0.00    -0.100 A 
ATOM     22  C   LIG    1       -4.144   0.652  -8.070  0.00  0.00    +0.030 A 
ATOM     23  C   LIG    1       -4.046  -0.016  -6.863  0.00  0.00    +0.020 A 
ATOM     24  C   LIG    1       -2.887  -0.697  -6.539  0.00  0.00    -0.070 A 
ATOM     25  C   LIG    1       -1.828  -0.721  -7.426  0.00  0.00    +0.010 A 
ATOM     26  C   LIG    1       -1.925  -0.056  -8.640  0.00  0.00    +0.100 A 
BRANCH  26  27
ATOM     27  O   LIG    1       -0.885  -0.078  -9.513  0.00  0.00    -0.500 OA
ATOM     28  H   LIG    1       -0.912  -0.814 -10.140  0.00  0.00    +0.390 HD
ENDBRANCH  26  27
ENDBRANCH  19  24
ENDBRANCH  17  19
ENDBRANCH  16  17
ENDBRANCH   1  16
TORSDOF 7
