REMARK  Name = ZINCvU0000000GcY.0
REMARK                            x       y       z     vdW  Elec       q    Type
REMARK                         _______ _______ _______ _____ _____    ______ ____
ROOT
ATOM      1  C   LIG    1       -1.171   1.740   0.002  0.00  0.00    +0.260 A 
ATOM      2  N   LIG    1       -2.276   1.096   0.216  0.00  0.00    -0.490 NA
ATOM      3  C   LIG    1       -3.397   1.798   0.212  0.00  0.00    +0.140 A 
ATOM      4  C   LIG    1       -3.236   3.138  -0.023  0.00  0.00    -0.220 A 
ATOM      5  S   LIG    1       -1.515   3.450  -0.236  0.00  0.00    +0.230 S 
ENDROOT
BRANCH   4   6
ATOM      6  C   LIG    1       -4.314   4.145  -0.081  0.00  0.00    -0.010 A 
ATOM      7  C   LIG    1       -5.450   3.912  -0.860  0.00  0.00    +0.030 A 
ATOM      8  C   LIG    1       -6.455   4.855  -0.906  0.00  0.00    +0.010 A 
ATOM      9  C   LIG    1       -6.336   6.034  -0.191  0.00  0.00    +0.010 A 
ATOM     10  C   LIG    1       -5.211   6.273   0.578  0.00  0.00    +0.010 A 
ATOM     11  C   LIG    1       -4.200   5.337   0.638  0.00  0.00    +0.010 A 
ENDBRANCH   4   6
BRANCH   3  12
ATOM     12  C   LIG    1       -4.724   1.183   0.443  0.00  0.00    -0.020 A 
ATOM     13  C   LIG    1       -5.652   1.812   1.274  0.00  0.00    +0.030 A 
ATOM     14  C   LIG    1       -6.889   1.236   1.481  0.00  0.00    +0.000 A 
ATOM     15  C   LIG    1       -7.206   0.033   0.876  0.00  0.00    +0.010 A 
ATOM     16  C   LIG    1       -6.287  -0.598   0.055  0.00  0.00    +0.000 A 
ATOM     17  C   LIG    1       -5.049  -0.030  -0.164  0.00  0.00    +0.030 A 
ENDBRANCH   3  12
BRANCH   1  20
ATOM     18  O   LIG    1        1.044   3.128  -0.450  0.00  0.00    -0.490 OA
ATOM     19  C   LIG    1        1.175   1.936  -0.268  0.00  0.00    +0.520 C 
ATOM     20  N   LIG    1        0.093   1.168  -0.030  0.00  0.00    -0.620 N 
ATOM     21  H   LIG    1        0.197   0.215   0.116  0.00  0.00    +0.430 HD
BRANCH  19  22
ATOM     22  C   LIG    1        2.546   1.313  -0.308  0.00  0.00    +0.010 C 
ATOM     23  C   LIG    1        2.848   0.656   1.041  0.00  0.00    +0.030 C 
ATOM     24  C   LIG    1        4.228  -0.005   0.985  0.00  0.00    +0.290 C 
ATOM     25  N   LIG    1        5.217   0.999   0.569  0.00  0.00    -0.610 N 
ATOM     26  C   LIG    1        4.979   1.755  -0.668  0.00  0.00    +0.280 C 
ATOM     27  C   LIG    1        6.322   1.222   1.308  0.00  0.00    +0.550 C 
ATOM     28  O   LIG    1        7.130   2.054   0.954  0.00  0.00    -0.540 OA
ATOM     29  C   LIG    1        3.589   2.396  -0.594  0.00  0.00    +0.050 C 
BRANCH  27  30
ATOM     30  C   LIG    1        6.552   0.439   2.574  0.00  0.00    -0.070 C 
ATOM     31  C   LIG    1        6.462   1.196   3.900  0.00  0.00    +0.060 C 
ATOM     32  C   LIG    1        7.824   0.740   3.370  0.00  0.00    +0.070 C 
ENDBRANCH  27  30
ENDBRANCH  19  22
ENDBRANCH   1  20
TORSDOF 5
