REMARK  Name = ZINCrH000004qM47.0
REMARK                            x       y       z     vdW  Elec       q    Type
REMARK                         _______ _______ _______ _____ _____    ______ ____
ROOT
ATOM      1  N   LIG    1       -2.132   5.489   3.095  0.00  0.00    -0.650 N 
ATOM      2  H   LIG    1       -2.942   5.937   2.805  0.00  0.00    +0.410 HD
ATOM      3  C   LIG    1       -1.136   5.263   2.215  0.00  0.00    +0.490 C 
ATOM      4  O   LIG    1       -0.123   4.703   2.577  0.00  0.00    -0.480 OA
ENDROOT
BRANCH   1   9
ATOM      5  C   LIG    1       -0.276   3.532   7.294  0.00  0.00    +0.160 C 
ATOM      6  C   LIG    1       -1.196   4.213   6.313  0.00  0.00    +0.100 A 
ATOM      7  N   LIG    1       -2.385   4.688   6.583  0.00  0.00    -0.280 NA
ATOM      8  N   LIG    1       -2.917   5.240   5.410  0.00  0.00    -0.340 N 
ATOM      9  C   LIG    1       -1.998   5.078   4.420  0.00  0.00    +0.310 A 
ATOM     10  C   LIG    1       -0.925   4.438   4.961  0.00  0.00    -0.080 A 
BRANCH   8  11
ATOM     11  C   LIG    1       -4.173   5.851   5.280  0.00  0.00    +0.150 A 
ATOM     12  C   LIG    1       -4.334   6.934   4.428  0.00  0.00    +0.020 A 
ATOM     13  C   LIG    1       -5.572   7.531   4.297  0.00  0.00    +0.030 A 
ATOM     14  C   LIG    1       -6.651   7.056   5.024  0.00  0.00    +0.100 A 
ATOM     15  C   LIG    1       -6.491   5.979   5.879  0.00  0.00    +0.020 A 
ATOM     16  F   LIG    1       -7.860   7.645   4.899  0.00  0.00    -0.130 F 
ATOM     17  C   LIG    1       -5.255   5.376   6.009  0.00  0.00    +0.070 A 
ENDBRANCH   8  11
ENDBRANCH   1   9
BRANCH   3  18
ATOM     18  C   LIG    1       -1.281   5.707   0.782  0.00  0.00    +0.280 C 
BRANCH  18  19
ATOM     19  N   LIG    1       -0.017   5.481   0.069  0.00  0.00    -0.470 N 
ATOM     20  C   LIG    1        1.060   6.293   0.640  0.00  0.00    +0.190 C 
ATOM     21  C   LIG    1        2.356   5.998  -0.124  0.00  0.00    +0.040 C 
ATOM     22  C   LIG    1        2.777   4.562   0.197  0.00  0.00    +0.080 C 
ATOM     23  C   LIG    1        1.589   3.643   0.060  0.00  0.00    -0.110 A 
ATOM     24  C   LIG    1        1.824   2.279  -0.016  0.00  0.00    +0.030 A 
ATOM     25  C   LIG    1        0.771   1.393  -0.129  0.00  0.00    -0.020 A 
ATOM     26  C   LIG    1       -0.527   1.866  -0.173  0.00  0.00    +0.020 A 
ATOM     27  C   LIG    1       -0.768   3.221  -0.095  0.00  0.00    -0.040 A 
ATOM     28  C   LIG    1        0.292   4.123   0.016  0.00  0.00    +0.140 A 
ENDBRANCH  18  19
ENDBRANCH   3  18
TORSDOF 4
