REMARK  Name = ZINCkj000005eVEe.0
REMARK                            x       y       z     vdW  Elec       q    Type
REMARK                         _______ _______ _______ _____ _____    ______ ____
ROOT
ATOM      1  N   LIG    1       -3.019   7.311  -4.911  0.00  0.00    -0.730 N 
ATOM      2  H   LIG    1       -3.282   6.682  -5.601  0.00  0.00    +0.400 HD
ATOM      3  C   LIG    1       -2.428   6.868  -3.784  0.00  0.00    +0.710 C 
ATOM      4  N   LIG    1       -2.202   5.550  -3.615  0.00  0.00    -0.750 N 
ATOM      5  H   LIG    1       -2.465   4.920  -4.305  0.00  0.00    +0.400 HD
ATOM      6  O   LIG    1       -2.099   7.656  -2.919  0.00  0.00    -0.580 OA
ENDROOT
BRANCH   1   7
ATOM      7  C   LIG    1       -3.265   8.744  -5.094  0.00  0.00    +0.320 C 
BRANCH   7   8
ATOM      8  C   LIG    1       -3.941   8.977  -6.446  0.00  0.00    -0.250 C 
BRANCH   8   9
ATOM      9  S   LIG    1       -4.245  10.751  -6.673  0.00  0.00    +1.270 S 
ATOM     10  O   LIG    1       -5.157  11.205  -5.683  0.00  0.00    -0.830 OA
BRANCH   9  12
ATOM     11  C   LIG    1       -6.329  10.004  -8.280  0.00  0.00    +0.030 C 
ATOM     12  C   LIG    1       -5.038  10.824  -8.303  0.00  0.00    -0.380 C 
ATOM     13  C   LIG    1       -4.089  10.250  -9.358  0.00  0.00    +0.080 C 
ATOM     14  C   LIG    1       -5.363  12.279  -8.647  0.00  0.00    +0.070 C 
ENDBRANCH   9  12
ENDBRANCH   8   9
ENDBRANCH   7   8
ENDBRANCH   1   7
BRANCH   4  15
ATOM     15  C   LIG    1       -1.560   5.067  -2.390  0.00  0.00    +0.290 C 
BRANCH  15  16
ATOM     16  C   LIG    1       -1.422   3.545  -2.452  0.00  0.00    +0.260 C 
BRANCH  16  17
ATOM     17  N   LIG    1       -0.778   3.061  -1.224  0.00  0.00    -0.380 N 
ATOM     18  C   LIG    1       -0.755   1.594  -1.230  0.00  0.00    +0.250 C 
ATOM     19  C   LIG    1       -0.013   1.086   0.008  0.00  0.00    +0.050 C 
ATOM     20  C   LIG    1       -0.731   1.581   1.267  0.00  0.00    +0.040 C 
ATOM     21  C   LIG    1       -0.817   3.109   1.226  0.00  0.00    +0.050 C 
ATOM     22  C   LIG    1       -1.529   3.542  -0.057  0.00  0.00    +0.250 C 
ATOM     23  H   LIG    1        0.167   3.412  -1.181  0.00  0.00    +0.430 HD
ENDBRANCH  16  17
ENDBRANCH  15  16
ENDBRANCH   4  15
TORSDOF 7
