REMARK  Name = ZINCpk00000ebnTO.0
REMARK                            x       y       z     vdW  Elec       q    Type
REMARK                         _______ _______ _______ _____ _____    ______ ____
ROOT
ATOM      1  N   LIG    1       -2.852   1.610   0.036  0.00  0.00    -0.470 N 
ATOM      2  C   LIG    1       -2.207   1.109  -1.184  0.00  0.00    +0.230 C 
ATOM      3  C   LIG    1       -0.756   1.594  -1.230  0.00  0.00    +0.050 C 
ATOM      4  C   LIG    1       -0.013   1.086   0.008  0.00  0.00    +0.120 C 
ATOM      5  C   LIG    1       -0.732   1.581   1.266  0.00  0.00    +0.060 C 
ATOM      6  C   LIG    1       -2.185   1.096   1.239  0.00  0.00    +0.200 C 
ENDROOT
BRANCH   1  11
ATOM      7  C   LIG    1       -6.022   0.316  -0.996  0.00  0.00    +0.100 A 
ATOM      8  C   LIG    1       -6.864   0.678   0.050  0.00  0.00    +0.020 A 
ATOM      9  C   LIG    1       -6.343   1.377   1.131  0.00  0.00    +0.090 A 
ATOM     10  C   LIG    1       -4.997   1.690   1.128  0.00  0.00    -0.020 A 
ATOM     11  C   LIG    1       -4.207   1.298   0.047  0.00  0.00    +0.310 A 
ATOM     12  N   LIG    1       -4.733   0.638  -0.969  0.00  0.00    -0.500 NA
BRANCH   7  16
ATOM     13  N   LIG    1       -5.757  -0.783  -3.170  0.00  0.00    -0.830 N 
ATOM     14  H   LIG    1       -6.114  -1.272  -3.928  0.00  0.00    +0.410 HD
ATOM     15  H   LIG    1       -4.816  -0.549  -3.144  0.00  0.00    +0.410 HD
ATOM     16  C   LIG    1       -6.567  -0.430  -2.153  0.00  0.00    +0.580 C 
ATOM     17  O   LIG    1       -7.746  -0.724  -2.186  0.00  0.00    -0.530 OA
ENDBRANCH   7  16
ENDBRANCH   1  11
BRANCH   4  18
ATOM     18  C   LIG    1        1.401   1.609  -0.003  0.00  0.00    +0.190 A 
ATOM     19  N   LIG    1        2.498   0.892  -0.017  0.00  0.00    -0.480 NA
ATOM     20  C   LIG    1        3.510   1.778  -0.022  0.00  0.00    +0.180 A 
ATOM     21  N   LIG    1        2.985   2.967  -0.011  0.00  0.00    -0.370 NA
ATOM     22  O   LIG    1        1.775   2.892  -0.005  0.00  0.00    +0.090 OA
BRANCH  20  23
ATOM     23  C   LIG    1        4.981   1.453  -0.037  0.00  0.00    +0.090 C 
ATOM     24  C   LIG    1        5.696   2.117   1.165  0.00  0.00    +0.020 C 
ATOM     25  C   LIG    1        7.020   2.606   0.526  0.00  0.00    +0.220 C 
ATOM     26  O   LIG    1        6.619   3.035  -0.793  0.00  0.00    -0.370 OA
ATOM     27  C   LIG    1        5.659   2.078  -1.272  0.00  0.00    +0.210 C 
ENDBRANCH  20  23
ENDBRANCH   4  18
TORSDOF 4
