REMARK  Name = ZINCrD00000kZNEx.0
REMARK                            x       y       z     vdW  Elec       q    Type
REMARK                         _______ _______ _______ _____ _____    ______ ____
ROOT
ATOM      1  N   LIG    1        3.503   5.573  -1.454  0.00  0.00    -0.600 N 
ATOM      2  C   LIG    1        2.428   6.239  -1.918  0.00  0.00    +0.600 C 
ATOM      3  O   LIG    1        1.525   6.539  -1.161  0.00  0.00    -0.520 OA
ATOM      4  C   LIG    1        4.592   5.212  -2.366  0.00  0.00    +0.300 C 
ENDROOT
BRANCH   2   5
ATOM      5  C   LIG    1        2.346   6.604  -3.345  0.00  0.00    -0.250 A 
ATOM      6  C   LIG    1        1.802   5.838  -4.356  0.00  0.00    +0.140 A 
ATOM      7  N   LIG    1        1.925   6.535  -5.498  0.00  0.00    -0.340 N 
ATOM      8  N   LIG    1        2.560   7.748  -5.211  0.00  0.00    -0.230 NA
ATOM      9  C   LIG    1        1.476   6.096  -6.821  0.00  0.00    +0.380 C 
ATOM     10  C   LIG    1        1.181   4.474  -4.207  0.00  0.00    +0.170 C 
ATOM     11  C   LIG    1        2.815   7.800  -3.933  0.00  0.00    +0.020 A 
BRANCH  11  12
ATOM     12  C   LIG    1        3.493   8.935  -3.210  0.00  0.00    +0.550 C 
ATOM     13  F   LIG    1        3.019   8.999  -1.895  0.00  0.00    -0.160 F 
ATOM     14  F   LIG    1        3.212  10.139  -3.865  0.00  0.00    -0.160 F 
ATOM     15  F   LIG    1        4.875   8.722  -3.198  0.00  0.00    -0.160 F 
ENDBRANCH  11  12
ENDBRANCH   2   5
BRANCH   1  16
ATOM     16  C   LIG    1        3.585   5.210  -0.037  0.00  0.00    +0.420 C 
BRANCH  16  25
ATOM     17  N   LIG    1        1.867   3.424   0.537  0.00  0.00    -0.470 N 
ATOM     18  C   LIG    1        1.838   2.045   0.586  0.00  0.00    +0.050 A 
ATOM     19  C   LIG    1        0.866   1.109   0.909  0.00  0.00    +0.010 A 
ATOM     20  C   LIG    1        1.167  -0.235   0.855  0.00  0.00    +0.030 A 
ATOM     21  C   LIG    1        2.434  -0.658   0.481  0.00  0.00    +0.000 A 
ATOM     22  C   LIG    1        3.405   0.249   0.161  0.00  0.00    +0.070 A 
ATOM     23  C   LIG    1        3.122   1.617   0.208  0.00  0.00    +0.040 A 
ATOM     24  N   LIG    1        3.852   2.733  -0.047  0.00  0.00    -0.480 NA
ATOM     25  C   LIG    1        3.118   3.789   0.146  0.00  0.00    +0.260 A 
BRANCH  17  27
ATOM     26  C   LIG    1        0.713   4.579   2.358  0.00  0.00    +0.030 C 
ATOM     27  C   LIG    1        0.757   4.327   0.849  0.00  0.00    +0.300 C 
ENDBRANCH  17  27
ENDBRANCH  16  25
ENDBRANCH   1  16
TORSDOF 5
