REMARK  Name = ZINCqH0000005j43.0
REMARK                            x       y       z     vdW  Elec       q    Type
REMARK                         _______ _______ _______ _____ _____    ______ ____
ROOT
ATOM      1  C   LIG    1       -0.018   1.465   0.010  0.00  0.00    +0.200 C 
ATOM      2  N   LIG    1        0.002  -0.004   0.002  0.00  0.00    -0.530 NA
ENDROOT
BRANCH   2   3
ATOM      3  C   LIG    1        0.706  -0.527   1.180  0.00  0.00    +0.210 C 
BRANCH   3   4
ATOM      4  C   LIG    1        2.185  -0.143   1.103  0.00  0.00    +0.150 C 
ATOM      5  C   LIG    1        2.932  -0.713   2.317  0.00  0.00    +0.230 C 
ATOM      6  O   LIG    1        4.311  -0.346   2.207  0.00  0.00    -0.310 OA
ATOM      7  C   LIG    1        4.898  -0.530   0.992  0.00  0.00    +0.040 A 
ATOM      8  C   LIG    1        6.281  -0.543   0.899  0.00  0.00    +0.020 A 
ATOM      9  C   LIG    1        6.891  -0.724  -0.329  0.00  0.00    +0.010 A 
ATOM     10  C   LIG    1        6.124  -0.893  -1.466  0.00  0.00    +0.020 A 
ATOM     11  C   LIG    1        4.744  -0.883  -1.380  0.00  0.00    +0.020 A 
ATOM     12  C   LIG    1        4.126  -0.702  -0.152  0.00  0.00    +0.050 A 
ATOM     13  O   LIG    1        2.767  -0.697  -0.082  0.00  0.00    -0.280 OA
ENDBRANCH   3   4
ENDBRANCH   2   3
BRANCH   2  14
ATOM     14  C   LIG    1       -1.360  -0.549  -0.083  0.00  0.00    +0.290 C 
BRANCH  14  15
ATOM     15  C   LIG    1       -1.962  -0.191  -1.417  0.00  0.00    -0.000 A 
ATOM     16  C   LIG    1       -1.965  -0.965  -2.517  0.00  0.00    +0.180 A 
ATOM     17  O   LIG    1       -2.601  -0.278  -3.488  0.00  0.00    -0.190 OA
ATOM     18  C   LIG    1       -2.978   0.905  -2.971  0.00  0.00    +0.230 A 
ATOM     19  N   LIG    1       -2.595   0.954  -1.717  0.00  0.00    -0.460 NA
BRANCH  18  20
ATOM     20  C   LIG    1       -3.706   1.969  -3.693  0.00  0.00    -0.030 A 
ATOM     21  C   LIG    1       -4.046   3.154  -3.038  0.00  0.00    +0.110 A 
ATOM     22  C   LIG    1       -4.721   4.146  -3.717  0.00  0.00    +0.000 A 
ATOM     23  C   LIG    1       -5.072   3.963  -5.046  0.00  0.00    +0.120 A 
ATOM     24  C   LIG    1       -4.743   2.787  -5.700  0.00  0.00    +0.000 A 
ATOM     25  F   LIG    1       -5.738   4.936  -5.706  0.00  0.00    -0.130 F 
ATOM     26  C   LIG    1       -4.063   1.790  -5.031  0.00  0.00    +0.080 A 
ENDBRANCH  18  20
ENDBRANCH  14  15
ENDBRANCH   2  14
TORSDOF 5
