REMARK  Name = ZINCbu0000000GLa.0
REMARK                            x       y       z     vdW  Elec       q    Type
REMARK                         _______ _______ _______ _____ _____    ______ ____
ROOT
ATOM      1  C   LIG    1       -1.587   2.850  -0.707  0.00  0.00    +0.180 C 
ATOM      2  C   LIG    1       -1.237   3.024   0.786  0.00  0.00    +0.050 C 
ATOM      3  C   LIG    1       -0.790   1.611   1.241  0.00  0.00    +0.050 C 
ATOM      4  C   LIG    1       -0.013   1.086   0.008  0.00  0.00    +0.050 C 
ATOM      5  C   LIG    1       -0.808   1.621  -1.197  0.00  0.00    -0.080 C 
ATOM      6  C   LIG    1       -1.778   0.551  -1.692  0.00  0.00    +0.040 C 
ATOM      7  C   LIG    1       -0.990  -0.675  -2.159  0.00  0.00    +0.010 C 
ATOM      8  C   LIG    1       -0.040  -0.270  -3.288  0.00  0.00    +0.000 C 
ATOM      9  C   LIG    1        0.936   0.792  -2.779  0.00  0.00    +0.020 C 
ATOM     10  C   LIG    1        0.153   2.022  -2.313  0.00  0.00    +0.010 C 
ENDROOT
BRANCH   1  11
ATOM     11  N   LIG    1       -1.177   4.041  -1.462  0.00  0.00    -0.640 N 
ATOM     12  H   LIG    1       -0.189   4.200  -1.329  0.00  0.00    +0.430 HD
ATOM     13  H   LIG    1       -1.693   4.843  -1.134  0.00  0.00    +0.430 HD
ATOM     14  H   LIG    1       -1.365   3.899  -2.443  0.00  0.00    +0.430 HD
ENDBRANCH   1  11
TORSDOF 1
