REMARK  Name = ZINCkj000005krlV.0
REMARK                            x       y       z     vdW  Elec       q    Type
REMARK                         _______ _______ _______ _____ _____    ______ ____
ROOT
ATOM      1  N   LIG    1        4.792   3.235  -0.021  0.00  0.00    -0.580 NA
ATOM      2  H   LIG    1        5.041   4.172  -0.018  0.00  0.00    +0.440 HD
ENDROOT
BRANCH   1   9
ATOM      3  C   LIG    1       -2.539   3.845   0.063  0.00  0.00    +0.120 C 
ATOM      4  C   LIG    1       -1.224   3.109   0.044  0.00  0.00    -0.020 A 
ATOM      5  C   LIG    1       -1.215   1.725   0.032  0.00  0.00    +0.070 A 
ATOM      6  C   LIG    1       -0.007   1.054   0.020  0.00  0.00    +0.120 A 
ATOM      7  C   LIG    1        1.179   1.766   0.011  0.00  0.00    -0.180 A 
ATOM      8  S   LIG    1        2.871   1.249  -0.012  0.00  0.00    +0.260 S 
ATOM      9  C   LIG    1        3.531   2.893  -0.009  0.00  0.00    +0.410 C 
ATOM     10  N   LIG    1        2.454   3.728   0.008  0.00  0.00    -0.590 N 
ATOM     11  H   LIG    1        2.569   4.692   0.012  0.00  0.00    +0.440 HD
ATOM     12  C   LIG    1        1.192   3.160   0.019  0.00  0.00    +0.120 A 
ATOM     13  C   LIG    1       -0.046   3.820   0.036  0.00  0.00    +0.050 A 
ENDBRANCH   1   9
BRANCH   1  14
ATOM     14  C   LIG    1        5.831   2.201  -0.039  0.00  0.00    +0.340 C 
BRANCH  14  15
ATOM     15  C   LIG    1        7.210   2.865  -0.051  0.00  0.00    +0.070 C 
ATOM     16  C   LIG    1        8.292   1.792  -0.201  0.00  0.00    +0.220 C 
ATOM     17  O   LIG    1        9.572   2.422  -0.286  0.00  0.00    -0.360 OA
ATOM     18  C   LIG    1        9.691   3.340  -1.376  0.00  0.00    +0.180 C 
ATOM     19  C   LIG    1        8.623   4.429  -1.238  0.00  0.00    +0.210 C 
ATOM     20  N   LIG    1        7.295   3.801  -1.181  0.00  0.00    -0.680 NA
ATOM     21  H   LIG    1        7.076   3.338  -2.051  0.00  0.00    +0.360 HD
BRANCH  15  22
ATOM     22  C   LIG    1        7.421   3.625   1.260  0.00  0.00    +0.210 C 
BRANCH  22  23
ATOM     23  O   LIG    1        7.221   2.739   2.363  0.00  0.00    -0.570 OA
ATOM     24  H   LIG    1        7.339   3.155   3.228  0.00  0.00    +0.400 HD
ENDBRANCH  22  23
ENDBRANCH  15  22
ENDBRANCH  14  15
ENDBRANCH   1  14
TORSDOF 5
