REMARK  Name = ZINCrD00000hQ4xp.0
REMARK                            x       y       z     vdW  Elec       q    Type
REMARK                         _______ _______ _______ _____ _____    ______ ____
ROOT
ATOM      1  N   LIG    1        3.642  -0.708  -0.201  0.00  0.00    -0.680 N 
ATOM      2  H   LIG    1        3.673  -1.670  -0.077  0.00  0.00    +0.410 HD
ATOM      3  C   LIG    1        4.787  -0.006  -0.316  0.00  0.00    +0.720 C 
ATOM      4  N   LIG    1        5.970  -0.649  -0.364  0.00  0.00    -0.630 N 
ATOM      5  C   LIG    1        6.157  -2.110  -0.302  0.00  0.00    +0.260 C 
ATOM      6  C   LIG    1        7.602  -2.303   0.223  0.00  0.00    +0.080 C 
ATOM      7  C   LIG    1        8.345  -1.134  -0.476  0.00  0.00    +0.170 C 
ATOM      8  C   LIG    1        7.288  -0.011  -0.493  0.00  0.00    +0.270 C 
ATOM      9  O   LIG    1        4.752   1.208  -0.376  0.00  0.00    -0.560 OA
ENDROOT
BRANCH   1  15
ATOM     10  C   LIG    1       -1.429   2.907  -1.166  0.00  0.00    +0.350 A 
ATOM     11  N   LIG    1       -1.246   1.850  -0.406  0.00  0.00    -0.540 NA
ATOM     12  C   LIG    1       -0.061   1.230  -0.351  0.00  0.00    +0.160 A 
ATOM     13  C   LIG    1        0.126   0.104   0.470  0.00  0.00    +0.050 A 
ATOM     14  C   LIG    1        1.336  -0.516   0.507  0.00  0.00    +0.020 A 
ATOM     15  C   LIG    1        2.408  -0.050  -0.261  0.00  0.00    +0.150 A 
ATOM     16  C   LIG    1        2.260   1.051  -1.075  0.00  0.00    +0.060 A 
ATOM     17  C   LIG    1        1.021   1.707  -1.131  0.00  0.00    -0.110 A 
ATOM     18  C   LIG    1        0.828   2.837  -1.952  0.00  0.00    +0.120 A 
ATOM     19  C   LIG    1       -0.400   3.427  -1.961  0.00  0.00    -0.020 A 
BRANCH  10  21
ATOM     20  C   LIG    1       -3.662   2.936  -0.357  0.00  0.00    +0.260 C 
ATOM     21  O   LIG    1       -2.646   3.505  -1.186  0.00  0.00    -0.310 OA
ENDBRANCH  10  21
ENDBRANCH   1  15
BRANCH   7  22
ATOM     22  O   LIG    1        9.495  -0.744   0.278  0.00  0.00    -0.290 OA
BRANCH  22  23
ATOM     23  C   LIG    1       10.492  -0.114  -0.398  0.00  0.00    +0.080 A 
ATOM     24  C   LIG    1       10.396   0.085  -1.771  0.00  0.00    -0.030 A 
ATOM     25  C   LIG    1       11.438   0.732  -2.417  0.00  0.00    +0.010 A 
ATOM     26  C   LIG    1       12.528   1.156  -1.681  0.00  0.00    +0.220 A 
ATOM     27  N   LIG    1       12.588   0.951  -0.379  0.00  0.00    -0.450 NA
ATOM     28  C   LIG    1       11.616   0.345   0.273  0.00  0.00    +0.240 A 
ENDBRANCH  22  23
ENDBRANCH   7  22
TORSDOF 4
