REMARK  Name = ZINCrH00000No4XD.0
REMARK                            x       y       z     vdW  Elec       q    Type
REMARK                         _______ _______ _______ _____ _____    ______ ____
ROOT
ATOM      1  N   LIG    1       -2.288   4.029   0.045  0.00  0.00    -0.500 N 
ATOM      2  C   LIG    1       -1.809   5.327   0.048  0.00  0.00    +0.140 A 
ATOM      3  C   LIG    1       -0.407   5.282   0.034  0.00  0.00    -0.100 A 
ATOM      4  C   LIG    1       -0.036   3.854   0.023  0.00  0.00    -0.110 A 
ATOM      5  C   LIG    1        1.180   3.184   0.008  0.00  0.00    +0.110 A 
ATOM      6  C   LIG    1        1.196   1.788   0.000  0.00  0.00    -0.120 A 
ATOM      7  C   LIG    1       -0.013   1.076   0.008  0.00  0.00    +0.070 A 
ATOM      8  C   LIG    1       -1.205   1.736   0.017  0.00  0.00    -0.010 A 
ATOM      9  C   LIG    1        0.329   6.464   0.034  0.00  0.00    +0.070 A 
ATOM     10  C   LIG    1       -0.324   7.678   0.046  0.00  0.00    -0.020 A 
ATOM     11  C   LIG    1       -1.710   7.724   0.060  0.00  0.00    +0.050 A 
ATOM     12  C   LIG    1       -2.450   6.562   0.061  0.00  0.00    -0.020 A 
ATOM     13  C   LIG    1       -1.240   3.130   0.031  0.00  0.00    +0.160 A 
ENDROOT
BRANCH   1  15
ATOM     14  C   LIG    1       -4.213   3.540  -1.381  0.00  0.00    +0.030 C 
ATOM     15  C   LIG    1       -3.705   3.661   0.058  0.00  0.00    +0.290 C 
ENDBRANCH   1  15
BRANCH   6  16
ATOM     16  C   LIG    1        2.476   1.066  -0.016  0.00  0.00    +0.150 C 
ATOM     17  C   LIG    1        2.490  -0.284  -0.024  0.00  0.00    -0.100 C 
BRANCH  17  18
ATOM     18  C   LIG    1        3.764  -1.002  -0.041  0.00  0.00    +0.550 C 
ATOM     19  N   LIG    1        3.777  -2.350  -0.049  0.00  0.00    -0.510 N 
ATOM     20  H   LIG    1        2.942  -2.843  -0.043  0.00  0.00    +0.430 HD
ATOM     21  O   LIG    1        4.812  -0.383  -0.047  0.00  0.00    -0.550 OA
BRANCH  19  22
ATOM     22  N   LIG    1        4.998  -3.038  -0.064  0.00  0.00    -0.490 N 
ATOM     23  H   LIG    1        5.833  -2.544  -0.070  0.00  0.00    +0.450 HD
BRANCH  22  24
ATOM     24  C   LIG    1        5.012  -4.422  -0.072  0.00  0.00    +0.570 A 
ATOM     25  N   LIG    1        3.862  -5.080  -0.059  0.00  0.00    -0.580 NA
ATOM     26  C   LIG    1        3.840  -6.403  -0.072  0.00  0.00    +0.370 A 
ATOM     27  C   LIG    1        5.039  -7.099  -0.088  0.00  0.00    -0.140 A 
ATOM     28  C   LIG    1        6.223  -6.379  -0.095  0.00  0.00    +0.370 A 
ATOM     29  N   LIG    1        6.175  -5.057  -0.087  0.00  0.00    -0.560 NA
ENDBRANCH  22  24
ENDBRANCH  19  22
ENDBRANCH  17  18
ENDBRANCH   6  16
TORSDOF 5
