REMARK  Name = ZINCrD000000Ca6q.0
REMARK                            x       y       z     vdW  Elec       q    Type
REMARK                         _______ _______ _______ _____ _____    ______ ____
ROOT
ATOM      1  O   LIG    1       -1.024   2.938  -0.077  0.00  0.00    -0.510 OA
ATOM      2  C   LIG    1       -1.119   1.733   0.016  0.00  0.00    +0.520 C 
ATOM      3  N   LIG    1       -0.011   0.966   0.007  0.00  0.00    -0.670 N 
ATOM      4  H   LIG    1       -0.090  -0.001   0.017  0.00  0.00    +0.400 HD
ENDROOT
BRANCH   2   5
ATOM      5  C   LIG    1       -2.478   1.092   0.142  0.00  0.00    +0.000 C 
ATOM      6  C   LIG    1       -3.558   2.177   0.122  0.00  0.00    +0.050 C 
ATOM      7  C   LIG    1       -4.937   1.515   0.189  0.00  0.00    +0.040 C 
ATOM      8  C   LIG    1       -5.089   0.544  -0.984  0.00  0.00    +0.210 C 
ATOM      9  N   LIG    1       -4.033  -0.474  -0.919  0.00  0.00    -0.460 N 
ATOM     10  C   LIG    1       -2.701   0.134  -1.030  0.00  0.00    +0.230 C 
BRANCH   9  11
ATOM     11  C   LIG    1       -4.218  -1.444  -1.889  0.00  0.00    +0.490 A 
ATOM     12  N   LIG    1       -3.243  -1.690  -2.751  0.00  0.00    -0.550 NA
ATOM     13  C   LIG    1       -3.385  -2.614  -3.687  0.00  0.00    +0.340 A 
ATOM     14  C   LIG    1       -4.576  -3.318  -3.767  0.00  0.00    -0.110 A 
ATOM     15  C   LIG    1       -5.578  -3.031  -2.853  0.00  0.00    +0.350 A 
ATOM     16  N   LIG    1       -5.369  -2.099  -1.938  0.00  0.00    -0.530 NA
ENDBRANCH   9  11
ENDBRANCH   2   5
BRANCH   3  17
ATOM     17  C   LIG    1        1.256   1.565  -0.021  0.00  0.00    +0.080 A 
ATOM     18  C   LIG    1        1.450   2.745  -0.722  0.00  0.00    +0.070 A 
ATOM     19  C   LIG    1        2.701   3.335  -0.748  0.00  0.00    -0.020 A 
ATOM     20  C   LIG    1        3.760   2.751  -0.078  0.00  0.00    +0.050 A 
ATOM     21  C   LIG    1        3.575   1.574   0.623  0.00  0.00    -0.050 A 
ATOM     22  C   LIG    1        2.322   0.979   0.660  0.00  0.00    +0.190 A 
BRANCH  22  23
ATOM     23  N   LIG    1        2.131  -0.209   1.373  0.00  0.00    -0.750 N 
ATOM     24  H   LIG    1        1.256  -0.627   1.395  0.00  0.00    +0.400 HD
BRANCH  23  25
ATOM     25  C   LIG    1        3.253  -0.824   2.087  0.00  0.00    +0.310 C 
BRANCH  25  26
ATOM     26  C   LIG    1        2.778  -2.103   2.780  0.00  0.00    +0.450 C 
ATOM     27  F   LIG    1        1.761  -1.792   3.688  0.00  0.00    -0.180 F 
ATOM     28  F   LIG    1        3.850  -2.689   3.462  0.00  0.00    -0.170 F 
ATOM     29  F   LIG    1        2.290  -2.998   1.821  0.00  0.00    -0.180 F 
ENDBRANCH  25  26
ENDBRANCH  23  25
ENDBRANCH  22  23
ENDBRANCH   3  17
TORSDOF 6
