REMARK  Name = ZINCrD0000075UYS.0
REMARK                            x       y       z     vdW  Elec       q    Type
REMARK                         _______ _______ _______ _____ _____    ______ ____
ROOT
ATOM      1  O   LIG    1        0.638  -2.553  -1.027  0.00  0.00    -0.530 OA
ATOM      2  C   LIG    1        0.227  -1.425  -1.222  0.00  0.00    +0.580 C 
ATOM      3  N   LIG    1       -0.241  -0.690  -0.194  0.00  0.00    -0.590 N 
ATOM      4  C   LIG    1       -0.607   0.673  -0.361  0.00  0.00    +0.250 C 
ATOM      5  C   LIG    1        0.583   1.683  -0.264  0.00  0.00    +0.010 C 
ATOM      6  C   LIG    1        1.543   1.164   0.855  0.00  0.00    +0.270 C 
ATOM      7  N   LIG    1        0.888   0.594   1.980  0.00  0.00    -0.590 N 
ATOM      8  C   LIG    1        0.737  -0.884   1.997  0.00  0.00    +0.270 C 
ATOM      9  C   LIG    1        0.424   1.360   2.987  0.00  0.00    +0.540 C 
ATOM     10  O   LIG    1        0.472   2.569   2.901  0.00  0.00    -0.520 OA
ATOM     11  C   LIG    1       -0.397  -1.270   1.165  0.00  0.00    +0.270 C 
ENDROOT
BRANCH   9  12
ATOM     12  C   LIG    1       -0.153   0.715   4.221  0.00  0.00    -0.030 C 
ATOM     13  C   LIG    1       -0.498   1.790   5.266  0.00  0.00    +0.050 C 
ATOM     14  C   LIG    1        0.352   1.478   6.515  0.00  0.00    +0.020 C 
ATOM     15  C   LIG    1        1.550   0.664   5.966  0.00  0.00    +0.020 C 
ATOM     16  C   LIG    1        0.894  -0.213   4.871  0.00  0.00    +0.040 C 
BRANCH  12  17
ATOM     17  C   LIG    1       -1.387  -0.072   3.861  0.00  0.00    -0.120 A 
ATOM     18  C   LIG    1       -1.424  -1.445   4.048  0.00  0.00    +0.060 A 
ATOM     19  C   LIG    1       -2.583  -2.126   3.709  0.00  0.00    -0.020 A 
ATOM     20  C   LIG    1       -3.651  -1.421   3.188  0.00  0.00    +0.260 A 
ATOM     21  N   LIG    1       -3.579  -0.115   3.019  0.00  0.00    -0.470 NA
ATOM     22  C   LIG    1       -2.495   0.566   3.336  0.00  0.00    +0.260 A 
ENDBRANCH  12  17
ENDBRANCH   9  12
BRANCH   2  23
ATOM     23  C   LIG    1        0.241  -0.861  -2.582  0.00  0.00    -0.160 A 
ATOM     24  C   LIG    1        0.108   0.466  -2.845  0.00  0.00    -0.040 A 
ATOM     25  S   LIG    1        0.173   0.761  -4.523  0.00  0.00    +0.180 S 
ATOM     26  C   LIG    1        0.373  -0.944  -4.891  0.00  0.00    -0.060 A 
ATOM     27  C   LIG    1        0.390  -1.663  -3.775  0.00  0.00    +0.060 A 
ENDBRANCH   2  23
TORSDOF 3
