REMARK  Name = ZINCrH000004tPAe.0
REMARK                            x       y       z     vdW  Elec       q    Type
REMARK                         _______ _______ _______ _____ _____    ______ ____
ROOT
ATOM      1  C   LIG    1       -3.014  -2.361   0.018  0.00  0.00    +0.430 C 
ENDROOT
BRANCH   1   2
ATOM      2  C   LIG    1       -2.994  -3.868   0.010  0.00  0.00    +0.140 A 
ATOM      3  N   LIG    1       -2.974  -4.647   1.061  0.00  0.00    -0.210 NA
ATOM      4  N   LIG    1       -2.960  -5.882   0.700  0.00  0.00    -0.250 NA
ATOM      5  C   LIG    1       -2.971  -5.956  -0.621  0.00  0.00    +0.210 A 
ATOM      6  C   LIG    1       -2.965  -7.031  -1.532  0.00  0.00    +0.010 A 
ATOM      7  C   LIG    1       -2.980  -6.770  -2.868  0.00  0.00    +0.120 A 
ATOM      8  C   LIG    1       -3.003  -5.439  -3.318  0.00  0.00    -0.190 A 
ATOM      9  C   LIG    1       -3.008  -4.420  -2.433  0.00  0.00    +0.330 A 
ATOM     10 CL   LIG    1       -2.938  -8.669  -0.957  0.00  0.00    +0.010 Cl
ATOM     11  N   LIG    1       -2.999  -4.666  -1.092  0.00  0.00    -0.380 N 
BRANCH   8  12
ATOM     12  C   LIG    1       -3.020  -5.148  -4.796  0.00  0.00    +0.530 C 
ATOM     13  F   LIG    1       -3.596  -3.893  -5.018  0.00  0.00    -0.170 F 
ATOM     14  F   LIG    1       -3.769  -6.129  -5.456  0.00  0.00    -0.160 F 
ATOM     15  F   LIG    1       -1.710  -5.153  -5.288  0.00  0.00    -0.160 F 
ENDBRANCH   8  12
ENDBRANCH   1   2
BRANCH   1  18
ATOM     16  O   LIG    1       -2.344   0.250   0.026  0.00  0.00    -0.500 OA
ATOM     17  C   LIG    1       -1.412  -0.526   0.013  0.00  0.00    +0.520 C 
ATOM     18  N   LIG    1       -1.640  -1.854   0.008  0.00  0.00    -0.730 N 
ATOM     19  H   LIG    1       -0.894  -2.474  -0.003  0.00  0.00    +0.410 HD
BRANCH  17  20
ATOM     20  C   LIG    1        0.002  -0.004   0.002  0.00  0.00    +0.240 C 
BRANCH  20  21
ATOM     21  O   LIG    1       -0.017   1.425   0.010  0.00  0.00    -0.290 OA
BRANCH  21  22
ATOM     22  C   LIG    1        1.185   2.058   0.002  0.00  0.00    +0.130 A 
ATOM     23  C   LIG    1        2.359   1.319  -0.008  0.00  0.00    -0.060 A 
ATOM     24  C   LIG    1        3.580   1.965  -0.020  0.00  0.00    +0.070 A 
ATOM     25  C   LIG    1        3.633   3.348  -0.014  0.00  0.00    -0.070 A 
ATOM     26  C   LIG    1        2.463   4.086   0.001  0.00  0.00    +0.070 A 
ATOM     27 CL   LIG    1        5.169   4.157  -0.023  0.00  0.00    -0.070 Cl
ATOM     28  C   LIG    1        1.240   3.444   0.009  0.00  0.00    +0.010 A 
ENDBRANCH  21  22
ENDBRANCH  20  21
ENDBRANCH  17  20
ENDBRANCH   1  18
TORSDOF 6
