REMARK  Name = ZINCpe000000YkhB.0
REMARK                            x       y       z     vdW  Elec       q    Type
REMARK                         _______ _______ _______ _____ _____    ______ ____
ROOT
ATOM      1  C   LIG    1       -1.211   1.681   0.050  0.00  0.00    +0.140 A 
ATOM      2  C   LIG    1       -1.198   3.068  -0.025  0.00  0.00    -0.020 A 
ATOM      3  C   LIG    1       -2.386   3.772   0.012  0.00  0.00    +0.050 A 
ATOM      4  C   LIG    1       -3.587   3.098   0.136  0.00  0.00    -0.110 A 
ATOM      5  C   LIG    1       -3.603   1.717   0.217  0.00  0.00    +0.040 A 
ATOM      6  C   LIG    1       -2.420   1.007   0.175  0.00  0.00    +0.020 A 
ENDROOT
BRANCH   1   8
ATOM      7  C   LIG    1        0.035  -0.237  -0.600  0.00  0.00    +0.560 C 
ATOM      8  N   LIG    1       -0.011   0.966   0.007  0.00  0.00    -0.660 N 
ATOM      9  H   LIG    1        0.787   1.333   0.418  0.00  0.00    +0.410 HD
ATOM     10  O   LIG    1       -0.982  -0.735  -1.040  0.00  0.00    -0.500 OA
BRANCH   7  15
ATOM     11  C   LIG    1        5.030  -2.950  -1.078  0.00  0.00    +0.320 C 
ATOM     12  N   LIG    1        3.743  -2.260  -0.959  0.00  0.00    -0.500 N 
ATOM     13  C   LIG    1        3.689  -1.049  -0.350  0.00  0.00    +0.310 A 
ATOM     14  C   LIG    1        2.518  -0.384  -0.223  0.00  0.00    -0.070 A 
ATOM     15  C   LIG    1        1.329  -0.952  -0.731  0.00  0.00    -0.040 A 
ATOM     16  C   LIG    1        1.388  -2.189  -1.346  0.00  0.00    +0.010 A 
ATOM     17  C   LIG    1        2.634  -2.839  -1.457  0.00  0.00    +0.510 A 
ATOM     18  O   LIG    1        2.708  -3.928  -2.001  0.00  0.00    -0.530 OA
ENDBRANCH   7  15
ENDBRANCH   1   8
BRANCH   4  19
ATOM     19  C   LIG    1       -4.881   3.869   0.182  0.00  0.00    +0.120 C 
BRANCH  19  20
ATOM     20  C   LIG    1       -5.217   4.213   1.635  0.00  0.00    +0.010 C 
ATOM     21  C   LIG    1       -6.546   4.991   1.714  0.00  0.00    +0.100 C 
ATOM     22  C   LIG    1       -6.144   6.319   2.317  0.00  0.00    +0.530 C 
ATOM     23  N   LIG    1       -4.825   6.318   2.546  0.00  0.00    -0.680 N 
ATOM     24  H   LIG    1       -4.358   7.076   2.932  0.00  0.00    +0.420 HD
ATOM     25  O   LIG    1       -6.897   7.240   2.553  0.00  0.00    -0.480 OA
ATOM     26  C   LIG    1       -4.204   5.183   2.201  0.00  0.00    +0.530 C 
ATOM     27  O   LIG    1       -3.017   4.968   2.321  0.00  0.00    -0.460 OA
ENDBRANCH  19  20
ENDBRANCH   4  19
TORSDOF 4
