REMARK  Name = ZINCpk00000xIkg4.0
REMARK                            x       y       z     vdW  Elec       q    Type
REMARK                         _______ _______ _______ _____ _____    ______ ____
ROOT
ATOM      1  O   LIG    1       -6.432   1.577   4.741  0.00  0.00    -0.520 OA
ATOM      2  C   LIG    1       -5.244   1.335   4.743  0.00  0.00    +0.520 C 
ATOM      3  N   LIG    1       -4.435   1.916   3.835  0.00  0.00    -0.610 N 
ATOM      4  C   LIG    1       -4.974   2.848   2.832  0.00  0.00    +0.300 C 
ATOM      5  C   LIG    1       -4.491   2.404   1.447  0.00  0.00    +0.200 C 
ATOM      6  N   LIG    1       -3.027   2.281   1.458  0.00  0.00    -0.550 NA
ATOM      7  C   LIG    1       -2.587   1.240   2.397  0.00  0.00    +0.180 C 
ATOM      8  C   LIG    1       -2.992   1.636   3.821  0.00  0.00    +0.280 C 
ENDROOT
BRANCH   2   9
ATOM      9  C   LIG    1       -4.671   0.383   5.762  0.00  0.00    +0.150 C 
ATOM     10  C   LIG    1       -3.717   1.139   6.707  0.00  0.00    +0.020 C 
ATOM     11  C   LIG    1       -4.319   0.914   8.115  0.00  0.00    +0.020 C 
ATOM     12  C   LIG    1       -5.191  -0.349   7.897  0.00  0.00    +0.210 C 
ATOM     13  O   LIG    1       -5.728  -0.165   6.567  0.00  0.00    -0.350 OA
ENDBRANCH   2   9
BRANCH   6  14
ATOM     14  C   LIG    1       -2.510   2.025   0.107  0.00  0.00    +0.530 C 
BRANCH  14  15
ATOM     15  N   LIG    1       -1.122   2.486   0.020  0.00  0.00    -0.370 N 
ATOM     16  N   LIG    1       -0.694   3.818  -0.067  0.00  0.00    -0.250 NA
ATOM     17  C   LIG    1        0.588   3.827  -0.108  0.00  0.00    +0.260 A 
ATOM     18  C   LIG    1        1.518   4.994  -0.309  0.00  0.00    +0.170 C 
ATOM     19  C   LIG    1        2.360   4.660  -1.524  0.00  0.00    +0.010 C 
ATOM     20  C   LIG    1        3.713   4.003  -1.144  0.00  0.00    +0.040 C 
ATOM     21  C   LIG    1        3.475   3.263   0.179  0.00  0.00    +0.050 C 
ATOM     22  C   LIG    1        2.429   2.209   0.147  0.00  0.00    +0.290 C 
ATOM     23  N   LIG    1        1.058   2.515   0.005  0.00  0.00    -0.480 N 
ATOM     24  C   LIG    1       -0.021   1.708   0.011  0.00  0.00    +0.480 A 
ATOM     25  S   LIG    1        0.002  -0.004   0.002  0.00  0.00    -0.580 S 
ENDBRANCH  14  15
ENDBRANCH   6  14
TORSDOF 3
