REMARK  Name = ZINCpe00000c96gZ.0
REMARK                            x       y       z     vdW  Elec       q    Type
REMARK                         _______ _______ _______ _____ _____    ______ ____
ROOT
ATOM      1  O   LIG    1       -9.269   1.287  -7.178  0.00  0.00    -0.520 OA
ATOM      2  C   LIG    1       -8.148   1.592  -7.526  0.00  0.00    +0.510 C 
ATOM      3  N   LIG    1       -7.079   1.040  -6.918  0.00  0.00    -0.610 N 
ATOM      4  C   LIG    1       -7.256   0.066  -5.832  0.00  0.00    +0.300 C 
ATOM      5  C   LIG    1       -6.457   0.537  -4.613  0.00  0.00    +0.050 C 
ATOM      6  C   LIG    1       -5.000   0.766  -5.021  0.00  0.00    +0.130 C 
ATOM      7  C   LIG    1       -4.193   1.208  -3.796  0.00  0.00    +0.030 C 
ATOM      8  C   LIG    1       -2.724   1.375  -4.195  0.00  0.00    +0.260 C 
ATOM      9  C   LIG    1       -2.211   0.057  -4.784  0.00  0.00    +0.010 C 
ATOM     10  C   LIG    1       -3.095  -0.339  -5.970  0.00  0.00    +0.230 C 
ATOM     11  C   LIG    1       -4.933   1.855  -6.093  0.00  0.00    -0.000 C 
ATOM     12  O   LIG    1       -4.452  -0.448  -5.538  0.00  0.00    -0.360 OA
ATOM     13  C   LIG    1       -5.715   1.399  -7.329  0.00  0.00    +0.280 C 
ENDROOT
BRANCH   8  14
ATOM     14  N   LIG    1       -1.932   1.724  -3.013  0.00  0.00    -0.290 N 
ATOM     15  C   LIG    1       -1.411   0.849  -2.121  0.00  0.00    +0.160 A 
ATOM     16  C   LIG    1       -0.761   1.595  -1.197  0.00  0.00    -0.020 A 
ATOM     17  N   LIG    1       -0.919   2.872  -1.561  0.00  0.00    -0.250 NA
ATOM     18  N   LIG    1       -1.612   2.914  -2.643  0.00  0.00    -0.080 NA
BRANCH  16  19
ATOM     19  C   LIG    1       -0.013   1.086   0.008  0.00  0.00    +0.250 C 
ATOM     20  C   LIG    1        1.429   1.629  -0.003  0.00  0.00    +0.010 C 
ATOM     21  C   LIG    1        1.553   2.402   1.333  0.00  0.00    +0.010 C 
ATOM     22  C   LIG    1        0.413   1.778   2.177  0.00  0.00    +0.210 C 
ATOM     23  O   LIG    1       -0.639   1.560   1.212  0.00  0.00    -0.360 OA
ENDBRANCH  16  19
ENDBRANCH   8  14
BRANCH   2  24
ATOM     24  C   LIG    1       -7.950   2.589  -8.639  0.00  0.00    +0.220 C 
BRANCH  24  25
ATOM     25  O   LIG    1       -9.223   3.027  -9.118  0.00  0.00    -0.550 OA
ATOM     26  H   LIG    1       -9.172   3.672  -9.837  0.00  0.00    +0.390 HD
ENDBRANCH  24  25
ENDBRANCH   2  24
TORSDOF 4
