REMARK  Name = ZINCvU00000008pC.0
REMARK                            x       y       z     vdW  Elec       q    Type
REMARK                         _______ _______ _______ _____ _____    ______ ____
ROOT
ATOM      1  C   LIG    1        1.229  -4.831  -0.139  0.00  0.00    +0.530 C 
ATOM      2  N   LIG    1        0.059  -4.173  -0.022  0.00  0.00    -0.660 N 
ATOM      3  H   LIG    1       -0.770  -4.670   0.059  0.00  0.00    +0.410 HD
ATOM      4  O   LIG    1        2.273  -4.213  -0.145  0.00  0.00    -0.510 OA
ENDROOT
BRANCH   2   5
ATOM      5  C   LIG    1        0.039  -2.772  -0.019  0.00  0.00    +0.100 A 
ATOM      6  C   LIG    1        0.964  -2.063  -0.774  0.00  0.00    +0.060 A 
ATOM      7  C   LIG    1        0.945  -0.683  -0.770  0.00  0.00    +0.010 A 
ATOM      8  C   LIG    1        0.001  -0.004  -0.013  0.00  0.00    +0.120 A 
ATOM      9  C   LIG    1       -0.920  -0.712   0.746  0.00  0.00    -0.060 A 
ATOM     10  C   LIG    1       -0.905  -2.093   0.738  0.00  0.00    +0.030 A 
BRANCH   8  11
ATOM     11  O   LIG    1       -0.017   1.356  -0.009  0.00  0.00    -0.310 OA
BRANCH  11  12
ATOM     12  C   LIG    1       -1.016   1.989   0.793  0.00  0.00    +0.240 C 
BRANCH  12  13
ATOM     13  C   LIG    1       -0.882   3.485   0.673  0.00  0.00    -0.100 A 
ATOM     14  C   LIG    1       -0.073   4.180   1.552  0.00  0.00    +0.020 A 
ATOM     15  C   LIG    1        0.053   5.552   1.438  0.00  0.00    +0.010 A 
ATOM     16  C   LIG    1       -0.638   6.230   0.452  0.00  0.00    +0.010 A 
ATOM     17  C   LIG    1       -1.452   5.536  -0.423  0.00  0.00    +0.010 A 
ATOM     18  C   LIG    1       -1.574   4.163  -0.313  0.00  0.00    +0.020 A 
ENDBRANCH  12  13
ENDBRANCH  11  12
ENDBRANCH   8  11
ENDBRANCH   2   5
BRANCH   1  19
ATOM     19  C   LIG    1        1.241  -6.333  -0.262  0.00  0.00    +0.120 C 
BRANCH  19  20
ATOM     20  S   LIG    1        2.950  -6.913  -0.401  0.00  0.00    +0.080 S 
BRANCH  20  27
ATOM     21  C   LIG    1        1.219 -12.931  -0.797  0.00  0.00    +0.130 A 
ATOM     22  C   LIG    1        2.585 -13.175  -0.889  0.00  0.00    -0.040 A 
ATOM     23  C   LIG    1        3.485 -12.130  -0.852  0.00  0.00    +0.060 A 
ATOM     24  C   LIG    1        3.028 -10.828  -0.723  0.00  0.00    +0.020 A 
ATOM     25  N   LIG    1        3.654  -9.591  -0.662  0.00  0.00    -0.580 N 
ATOM     26  H   LIG    1        4.609  -9.427  -0.705  0.00  0.00    +0.430 HD
ATOM     27  C   LIG    1        2.674  -8.649  -0.527  0.00  0.00    +0.260 A 
ATOM     28  N   LIG    1        1.498  -9.228  -0.511  0.00  0.00    -0.500 NA
ATOM     29  C   LIG    1        1.650 -10.573  -0.628  0.00  0.00    +0.100 A 
ATOM     30  C   LIG    1        0.748 -11.639  -0.667  0.00  0.00    +0.030 A 
BRANCH  21  31
ATOM     31  O   LIG    1        0.343 -13.970  -0.834  0.00  0.00    -0.310 OA
BRANCH  31  33
ATOM     32  C   LIG    1       -0.235 -16.311  -0.994  0.00  0.00    +0.070 C 
ATOM     33  C   LIG    1        0.896 -15.281  -0.970  0.00  0.00    +0.170 C 
ENDBRANCH  31  33
ENDBRANCH  21  31
ENDBRANCH  20  27
ENDBRANCH  19  20
ENDBRANCH   1  19
TORSDOF 9
