REMARK  Name = ZINCpe000000UVz4.0
REMARK                            x       y       z     vdW  Elec       q    Type
REMARK                         _______ _______ _______ _____ _____    ______ ____
ROOT
ATOM      1  C   LIG    1        2.022   1.241   0.249  0.00  0.00    +0.190 C 
ATOM      2  C   LIG    1        2.164   0.534   1.617  0.00  0.00    +0.110 C 
ATOM      3  C   LIG    1        3.233   1.355   2.310  0.00  0.00    -0.130 A 
ATOM      4  C   LIG    1        3.610   1.436   3.634  0.00  0.00    +0.040 A 
ATOM      5  C   LIG    1        4.634   2.285   4.012  0.00  0.00    -0.010 A 
ATOM      6  C   LIG    1        5.280   3.053   3.061  0.00  0.00    +0.040 A 
ATOM      7  C   LIG    1        4.909   2.974   1.735  0.00  0.00    -0.010 A 
ATOM      8  C   LIG    1        3.879   2.119   1.345  0.00  0.00    +0.100 A 
ATOM      9  N   LIG    1        3.346   1.875   0.073  0.00  0.00    -0.430 N 
ENDROOT
BRANCH   1  13
ATOM     10  C   LIG    1       -1.279   3.093  -0.328  0.00  0.00    +0.280 C 
ATOM     11  N   LIG    1       -0.223   2.079  -0.368  0.00  0.00    -0.720 N 
ATOM     12  H   LIG    1       -0.353   1.262  -0.876  0.00  0.00    +0.410 HD
ATOM     13  C   LIG    1        0.933   2.282   0.295  0.00  0.00    +0.490 C 
ATOM     14  O   LIG    1        1.096   3.302   0.930  0.00  0.00    -0.530 OA
ENDBRANCH   1  13
BRANCH   9  15
ATOM     15  C   LIG    1        3.236   3.119  -0.700  0.00  0.00    +0.210 C 
BRANCH  15  16
ATOM     16  C   LIG    1        2.743   2.806  -2.089  0.00  0.00    +0.520 C 
ATOM     17  N   LIG    1        2.451   3.807  -2.942  0.00  0.00    -0.610 N 
ATOM     18  O   LIG    1        2.610   1.653  -2.439  0.00  0.00    -0.510 OA
BRANCH  17  19
ATOM     19  C   LIG    1        2.612   5.201  -2.519  0.00  0.00    +0.300 C 
BRANCH  19  20
ATOM     20  C   LIG    1        4.028   5.674  -2.851  0.00  0.00    +0.180 C 
BRANCH  20  21
ATOM     21  C   LIG    1        4.190   7.074  -2.426  0.00  0.00    +0.200 C 
ATOM     22  N   LIG    1        4.315   8.155  -2.098  0.00  0.00    -0.420 NA
ENDBRANCH  20  21
ENDBRANCH  19  20
ENDBRANCH  17  19
BRANCH  17  23
ATOM     23  C   LIG    1        1.972   3.503  -4.293  0.00  0.00    +0.310 C 
BRANCH  23  24
ATOM     24  C   LIG    1        0.445   3.408  -4.283  0.00  0.00    +0.180 C 
BRANCH  24  25
ATOM     25  C   LIG    1       -0.036   3.102  -5.641  0.00  0.00    +0.200 C 
ATOM     26  N   LIG    1       -0.407   2.866  -6.688  0.00  0.00    -0.420 NA
ENDBRANCH  24  25
ENDBRANCH  23  24
ENDBRANCH  17  23
ENDBRANCH  15  16
ENDBRANCH   9  15
TORSDOF 9
