REMARK  Name = ZINCpe000000UvZ4.1
REMARK                            x       y       z     vdW  Elec       q    Type
REMARK                         _______ _______ _______ _____ _____    ______ ____
ROOT
ATOM      1  C   LIG    1       -0.019   6.708  -0.825  0.00  0.00    +0.340 C 
ATOM      2  N   LIG    1        0.787   5.523  -0.522  0.00  0.00    -0.510 N 
ATOM      3  C   LIG    1        2.128   5.624  -0.465  0.00  0.00    +0.710 A 
ATOM      4  N   LIG    1        2.904   4.560  -0.190  0.00  0.00    -0.660 N 
ATOM      5  H   LIG    1        3.868   4.664  -0.156  0.00  0.00    +0.440 HD
ATOM      6  C   LIG    1        2.341   3.324   0.042  0.00  0.00    +0.600 A 
ATOM      7  C   LIG    1        0.943   3.191  -0.011  0.00  0.00    -0.180 A 
ATOM      8  N   LIG    1        0.061   2.132   0.164  0.00  0.00    -0.550 N 
ATOM      9  C   LIG    1       -1.190   2.630  -0.022  0.00  0.00    +0.570 C 
ATOM     10  N   LIG    1       -1.113   3.918  -0.288  0.00  0.00    -0.540 NA
ATOM     11  H   LIG    1        0.293   1.214   0.375  0.00  0.00    +0.430 HD
ATOM     12  O   LIG    1        3.045   2.360   0.291  0.00  0.00    -0.520 OA
ATOM     13  O   LIG    1        2.650   6.703  -0.667  0.00  0.00    -0.540 OA
ATOM     14  C   LIG    1        0.164   4.307  -0.297  0.00  0.00    +0.360 A 
ENDROOT
BRANCH   9  15
ATOM     15  N   LIG    1       -2.355   1.903   0.058  0.00  0.00    -0.690 NA
ATOM     16  H   LIG    1       -2.322   0.955   0.262  0.00  0.00    +0.420 HD
BRANCH  15  17
ATOM     17  C   LIG    1       -3.645   2.560  -0.165  0.00  0.00    +0.310 C 
BRANCH  17  18
ATOM     18  C   LIG    1       -4.772   1.535  -0.019  0.00  0.00    +0.220 C 
BRANCH  18  19
ATOM     19  C   LIG    1       -6.103   2.233  -0.126  0.00  0.00    -0.090 A 
ATOM     20  C   LIG    1       -7.066   1.755  -0.996  0.00  0.00    +0.020 A 
ATOM     21  C   LIG    1       -8.287   2.394  -1.096  0.00  0.00    +0.050 A 
ATOM     22  C   LIG    1       -8.548   3.512  -0.326  0.00  0.00    -0.010 A 
ATOM     23  C   LIG    1       -7.585   3.991   0.546  0.00  0.00    +0.100 A 
ATOM     24  F   LIG    1       -7.838   5.084   1.299  0.00  0.00    -0.140 F 
ATOM     25  C   LIG    1       -6.364   3.348   0.648  0.00  0.00    -0.010 A 
ENDBRANCH  18  19
BRANCH  18  26
ATOM     26  N   LIG    1       -4.668   0.877   1.291  0.00  0.00    -0.530 NA
ATOM     27  C   LIG    1       -5.686  -0.172   1.435  0.00  0.00    +0.190 C 
ATOM     28  C   LIG    1       -4.764   1.857   2.381  0.00  0.00    +0.180 C 
ENDBRANCH  18  26
ENDBRANCH  17  18
ENDBRANCH  15  17
ENDBRANCH   9  15
TORSDOF 5
