REMARK  Name = ZINCpk00000k1iz3.0
REMARK                            x       y       z     vdW  Elec       q    Type
REMARK                         _______ _______ _______ _____ _____    ______ ____
ROOT
ATOM      1  C   LIG    1       -2.190   2.503   4.670  0.00  0.00    +0.530 C 
ATOM      2  N   LIG    1       -1.556   2.076   3.559  0.00  0.00    -0.600 N 
ATOM      3  C   LIG    1       -1.902   0.783   2.957  0.00  0.00    +0.270 C 
ATOM      4  C   LIG    1       -2.316   1.011   1.499  0.00  0.00    +0.080 C 
ATOM      5  C   LIG    1       -1.232   1.839   0.802  0.00  0.00    -0.100 C 
ATOM      6  C   LIG    1       -0.092   1.083   0.120  0.00  0.00    +0.040 C 
ATOM      7  C   LIG    1       -0.896   3.171   1.479  0.00  0.00    +0.050 C 
ATOM      8  C   LIG    1       -1.162   1.779  -0.724  0.00  0.00    +0.100 C 
ATOM      9  C   LIG    1       -0.510   2.900   2.938  0.00  0.00    +0.270 C 
ATOM     10  O   LIG    1       -3.052   1.817   5.177  0.00  0.00    -0.530 OA
ENDROOT
BRANCH   1  14
ATOM     11  C   LIG    1       -2.107   5.518   8.676  0.00  0.00    +0.300 C 
ATOM     12  N   LIG    1       -1.697   4.776   7.481  0.00  0.00    -0.620 N 
ATOM     13  C   LIG    1       -2.623   4.078   6.582  0.00  0.00    +0.300 C 
ATOM     14  C   LIG    1       -1.828   3.832   5.280  0.00  0.00    -0.010 C 
ATOM     15  C   LIG    1       -0.370   3.825   5.798  0.00  0.00    +0.070 C 
ATOM     16  C   LIG    1       -0.424   4.645   7.069  0.00  0.00    +0.520 C 
ATOM     17  O   LIG    1        0.540   5.117   7.632  0.00  0.00    -0.530 OA
ENDBRANCH   1  14
BRANCH   8  18
ATOM     18  N   LIG    1       -2.139   0.929  -1.417  0.00  0.00    -0.510 NA
ATOM     19  C   LIG    1       -3.227   1.735  -1.988  0.00  0.00    +0.200 C 
BRANCH  18  20
ATOM     20  C   LIG    1       -1.489   0.114  -2.451  0.00  0.00    +0.300 C 
BRANCH  20  21
ATOM     21  C   LIG    1       -2.463  -0.913  -2.968  0.00  0.00    +0.050 A 
ATOM     22  N   LIG    1       -3.265  -0.736  -3.962  0.00  0.00    -0.470 NA
ATOM     23  C   LIG    1       -4.054  -1.741  -4.285  0.00  0.00    +0.220 A 
ATOM     24  C   LIG    1       -3.909  -2.827  -3.520  0.00  0.00    -0.080 A 
ATOM     25  S   LIG    1       -2.659  -2.486  -2.325  0.00  0.00    +0.150 S 
ENDBRANCH  20  21
ENDBRANCH  18  20
ENDBRANCH   8  18
TORSDOF 4
