REMARK  Name = ZINCpk00000y6yIs.0
REMARK                            x       y       z     vdW  Elec       q    Type
REMARK                         _______ _______ _______ _____ _____    ______ ____
ROOT
ATOM      1  N   LIG    1        2.118   1.148   3.738  0.00  0.00    -0.530 NA
ATOM      2  C   LIG    1        1.467   1.675   4.945  0.00  0.00    +0.170 C 
ATOM      3  C   LIG    1        0.028   1.158   5.017  0.00  0.00    +0.030 C 
ATOM      4  C   LIG    1       -0.733   1.607   3.767  0.00  0.00    +0.010 C 
ATOM      5  C   LIG    1       -0.008   1.085   2.523  0.00  0.00    +0.030 C 
ATOM      6  C   LIG    1        1.432   1.605   2.523  0.00  0.00    +0.200 C 
ENDROOT
BRANCH   5   7
ATOM      7  C   LIG    1       -0.729   1.579   1.267  0.00  0.00    +0.130 C 
ATOM      8  N   LIG    1       -0.823   3.049   1.267  0.00  0.00    -0.720 N 
ATOM      9  H   LIG    1       -0.083   3.677   1.268  0.00  0.00    +0.440 HD
ATOM     10  C   LIG    1       -2.138   3.348   1.267  0.00  0.00    +0.700 C 
ATOM     11  N   LIG    1       -2.911   2.256   1.269  0.00  0.00    -0.580 N 
ATOM     12  C   LIG    1       -4.375   2.284   1.271  0.00  0.00    +0.340 C 
ATOM     13  O   LIG    1       -2.572   4.483   1.266  0.00  0.00    -0.540 OA
ATOM     14  C   LIG    1       -0.013   1.086   0.008  0.00  0.00    +0.090 C 
ATOM     15  C   LIG    1       -2.175   1.127   1.270  0.00  0.00    +0.530 C 
ATOM     16  O   LIG    1       -2.586  -0.014   1.272  0.00  0.00    -0.460 OA
ENDBRANCH   5   7
BRANCH   1  17
ATOM     17  C   LIG    1        3.541   1.511   3.707  0.00  0.00    +0.330 C 
BRANCH  17  20
ATOM     18  C   LIG    1        5.343  -0.598   5.977  0.00  0.00    +0.190 A 
ATOM     19  N   LIG    1        4.842  -0.395   4.782  0.00  0.00    -0.460 NA
ATOM     20  C   LIG    1        4.261   0.817   4.835  0.00  0.00    +0.180 A 
ATOM     21  N   LIG    1        4.439   1.282   6.035  0.00  0.00    -0.380 NA
ATOM     22  O   LIG    1        5.054   0.482   6.708  0.00  0.00    +0.080 OA
BRANCH  18  23
ATOM     23  C   LIG    1        6.099  -1.818   6.437  0.00  0.00    +0.180 C 
BRANCH  23  25
ATOM     24  C   LIG    1        8.374  -2.801   6.757  0.00  0.00    +0.030 C 
ATOM     25  C   LIG    1        7.594  -1.619   6.178  0.00  0.00    -0.010 C 
ATOM     26  C   LIG    1        7.843  -1.533   4.671  0.00  0.00    +0.030 C 
ENDBRANCH  23  25
ENDBRANCH  18  23
ENDBRANCH  17  20
ENDBRANCH   1  17
TORSDOF 5
