REMARK  Name = ZINCkj00000y7BIB.1
REMARK                            x       y       z     vdW  Elec       q    Type
REMARK                         _______ _______ _______ _____ _____    ______ ____
ROOT
ATOM      1  C   LIG    1       -0.733   1.496   1.189  0.00  0.00    +0.170 C 
ATOM      2  C   LIG    1       -2.162   0.901   1.238  0.00  0.00    +0.050 C 
ATOM      3  C   LIG    1       -2.520   0.996   2.743  0.00  0.00    +0.050 C 
ATOM      4  C   LIG    1       -1.200   0.667   3.470  0.00  0.00    +0.040 C 
ATOM      5  C   LIG    1       -0.064   0.985   2.482  0.00  0.00    +0.250 C 
ENDROOT
BRANCH   1   9
ATOM      6  C   LIG    1        1.743   1.793  -1.474  0.00  0.00    +0.180 C 
ATOM      7  C   LIG    1        0.483   1.409  -2.284  0.00  0.00    +0.060 C 
ATOM      8  C   LIG    1       -0.650   1.515  -1.233  0.00  0.00    +0.280 C 
ATOM      9  N   LIG    1       -0.012   1.005   0.008  0.00  0.00    -0.390 N 
ATOM     10  H   LIG    1        0.002  -0.004   0.002  0.00  0.00    +0.420 HD
ATOM     11  C   LIG    1        1.370   1.534  -0.003  0.00  0.00    +0.270 C 
BRANCH   6  13
ATOM     12  C   LIG    1        3.681   1.552  -2.865  0.00  0.00    +0.230 C 
ATOM     13  O   LIG    1        2.849   0.973  -1.857  0.00  0.00    -0.370 OA
ENDBRANCH   6  13
ENDBRANCH   1   9
BRANCH   5  14
ATOM     14  N   LIG    1        0.710  -0.227   2.200  0.00  0.00    -0.750 N 
ATOM     15  H   LIG    1        0.476  -0.788   1.445  0.00  0.00    +0.390 HD
ATOM     16  C   LIG    1        1.749  -0.562   2.992  0.00  0.00    +0.600 C 
ATOM     17  O   LIG    1        2.043   0.141   3.939  0.00  0.00    -0.520 OA
BRANCH  16  18
ATOM     18  C   LIG    1        2.527  -1.780   2.709  0.00  0.00    -0.260 A 
ATOM     19  C   LIG    1        3.600  -2.252   3.414  0.00  0.00    +0.280 A 
ATOM     20  N   LIG    1        4.023  -3.390   2.832  0.00  0.00    -0.550 N 
ATOM     21  H   LIG    1        4.773  -3.924   3.138  0.00  0.00    +0.430 HD
ATOM     22  C   LIG    1        3.248  -3.684   1.748  0.00  0.00    +0.170 A 
ATOM     23  C   LIG    1        2.303  -2.736   1.619  0.00  0.00    -0.040 A 
ENDBRANCH  16  18
ENDBRANCH   5  14
TORSDOF 4
