REMARK  Name = ZINCkj00000y7BIB.0
REMARK                            x       y       z     vdW  Elec       q    Type
REMARK                         _______ _______ _______ _____ _____    ______ ____
ROOT
ATOM      1  C   LIG    1       -2.392   0.798  -0.593  0.00  0.00    +0.170 C 
ATOM      2  C   LIG    1       -3.451   0.590   0.509  0.00  0.00    +0.050 C 
ATOM      3  C   LIG    1       -3.256   1.800   1.456  0.00  0.00    +0.060 C 
ATOM      4  C   LIG    1       -1.717   1.979   1.469  0.00  0.00    +0.040 C 
ATOM      5  C   LIG    1       -1.290   1.681   0.017  0.00  0.00    +0.260 C 
ENDROOT
BRANCH   1   9
ATOM      6  C   LIG    1       -2.119  -2.378  -2.460  0.00  0.00    +0.170 C 
ATOM      7  C   LIG    1       -0.779  -1.690  -2.796  0.00  0.00    +0.050 C 
ATOM      8  C   LIG    1       -0.852  -0.312  -2.105  0.00  0.00    +0.260 C 
ATOM      9  N   LIG    1       -1.831  -0.496  -1.004  0.00  0.00    -0.390 N 
ATOM     10  H   LIG    1       -1.398  -0.958  -0.218  0.00  0.00    +0.420 HD
ATOM     11  C   LIG    1       -2.888  -1.357  -1.595  0.00  0.00    +0.290 C 
BRANCH   6  13
ATOM     12  C   LIG    1       -2.636  -3.979  -4.167  0.00  0.00    +0.220 C 
ATOM     13  O   LIG    1       -2.846  -2.660  -3.658  0.00  0.00    -0.370 OA
ENDBRANCH   6  13
ENDBRANCH   1   9
BRANCH   5  14
ATOM     14  N   LIG    1       -0.011   0.966   0.007  0.00  0.00    -0.750 N 
ATOM     15  H   LIG    1        0.002  -0.004   0.002  0.00  0.00    +0.380 HD
ATOM     16  C   LIG    1        1.147   1.655   0.000  0.00  0.00    +0.600 C 
ATOM     17  O   LIG    1        1.130   2.872   0.007  0.00  0.00    -0.510 OA
BRANCH  16  18
ATOM     18  C   LIG    1        2.432   0.937  -0.016  0.00  0.00    -0.240 A 
ATOM     19  C   LIG    1        2.616  -0.419  -0.019  0.00  0.00    +0.200 A 
ATOM     20  N   LIG    1        3.939  -0.668  -0.039  0.00  0.00    -0.540 N 
ATOM     21  H   LIG    1        4.336  -1.553  -0.047  0.00  0.00    +0.420 HD
ATOM     22  C   LIG    1        4.641   0.502  -0.040  0.00  0.00    +0.170 A 
ATOM     23  C   LIG    1        3.774   1.530  -0.026  0.00  0.00    +0.020 A 
ENDBRANCH  16  18
ENDBRANCH   5  14
TORSDOF 4
