REMARK  Name = ZINCrD00000laW3P.0
REMARK                            x       y       z     vdW  Elec       q    Type
REMARK                         _______ _______ _______ _____ _____    ______ ____
ROOT
ATOM      1  C   LIG    1       -0.895  -4.496   4.107  0.00  0.00    +0.550 C 
ATOM      2  N   LIG    1       -1.888  -5.345   4.439  0.00  0.00    -0.720 N 
ATOM      3  H   LIG    1       -2.672  -5.419   3.873  0.00  0.00    +0.410 HD
ATOM      4  O   LIG    1        0.089  -4.404   4.817  0.00  0.00    -0.530 OA
ENDROOT
BRANCH   1   7
ATOM      5  C   LIG    1        1.365  -3.035   3.207  0.00  0.00    +0.120 C 
ATOM      6  C   LIG    1        0.041  -2.928   2.495  0.00  0.00    +0.010 C 
ATOM      7  C   LIG    1       -1.000  -3.686   2.892  0.00  0.00    -0.080 C 
BRANCH   6   8
ATOM      8  C   LIG    1       -0.115  -1.996   1.366  0.00  0.00    -0.070 A 
ATOM      9  C   LIG    1       -0.367  -2.485   0.081  0.00  0.00    +0.070 A 
ATOM     10  C   LIG    1       -0.512  -1.605  -0.971  0.00  0.00    +0.020 A 
ATOM     11  C   LIG    1       -0.414  -0.242  -0.757  0.00  0.00    +0.070 A 
ATOM     12  C   LIG    1       -0.159   0.250   0.512  0.00  0.00    -0.180 A 
ATOM     13  C   LIG    1       -0.011  -0.617   1.574  0.00  0.00    +0.090 A 
BRANCH  12  14
ATOM     14  C   LIG    1       -0.048   1.736   0.734  0.00  0.00    +0.510 C 
ATOM     15  F   LIG    1       -0.473   2.047   2.030  0.00  0.00    -0.180 F 
ATOM     16  F   LIG    1       -0.852   2.408  -0.194  0.00  0.00    -0.180 F 
ATOM     17  F   LIG    1        1.283   2.134   0.571  0.00  0.00    -0.170 F 
ENDBRANCH  12  14
ENDBRANCH   6   8
ENDBRANCH   1   7
BRANCH   2  18
ATOM     18  C   LIG    1       -1.783  -6.156   5.654  0.00  0.00    +0.240 C 
BRANCH  18  19
ATOM     19  C   LIG    1       -3.033  -7.026   5.797  0.00  0.00    +0.260 C 
BRANCH  19  20
ATOM     20  C   LIG    1       -2.925  -7.861   7.047  0.00  0.00    -0.110 A 
ATOM     21  C   LIG    1       -3.314  -7.333   8.264  0.00  0.00    +0.030 A 
ATOM     22  C   LIG    1       -3.216  -8.095   9.414  0.00  0.00    +0.010 A 
ATOM     23  C   LIG    1       -2.728  -9.389   9.348  0.00  0.00    +0.090 A 
ATOM     24  C   LIG    1       -2.336  -9.921   8.123  0.00  0.00    +0.080 A 
ATOM     25  C   LIG    1       -2.441  -9.154   6.973  0.00  0.00    +0.020 A 
BRANCH  24  26
ATOM     26  O   LIG    1       -1.855 -11.191   8.053  0.00  0.00    -0.490 OA
ATOM     27  H   LIG    1       -2.536 -11.861   7.902  0.00  0.00    +0.390 HD
ENDBRANCH  24  26
BRANCH  23  28
ATOM     28  O   LIG    1       -2.631 -10.140  10.478  0.00  0.00    -0.490 OA
ATOM     29  H   LIG    1       -3.423 -10.659  10.674  0.00  0.00    +0.390 HD
ENDBRANCH  23  28
ENDBRANCH  19  20
BRANCH  19  30
ATOM     30  O   LIG    1       -4.188  -6.190   5.881  0.00  0.00    -0.550 OA
ATOM     31  H   LIG    1       -4.178  -5.580   6.631  0.00  0.00    +0.380 HD
ENDBRANCH  19  30
ENDBRANCH  18  19
ENDBRANCH   2  18
TORSDOF 9
