REMARK  Name = ZINCvU000000085T.0
REMARK                            x       y       z     vdW  Elec       q    Type
REMARK                         _______ _______ _______ _____ _____    ______ ____
ROOT
ATOM      1  C   LIG    1       -0.406   3.897  -0.485  0.00  0.00    +0.050 C 
ENDROOT
BRANCH   1   2
ATOM      2  C   LIG    1       -0.277   4.193   0.987  0.00  0.00    -0.080 A 
ATOM      3  C   LIG    1       -1.193   3.669   1.880  0.00  0.00    +0.030 A 
ATOM      4  C   LIG    1       -1.072   3.937   3.231  0.00  0.00    +0.000 A 
ATOM      5  C   LIG    1       -0.041   4.736   3.687  0.00  0.00    +0.010 A 
ATOM      6  C   LIG    1        0.873   5.264   2.793  0.00  0.00    +0.000 A 
ATOM      7  C   LIG    1        0.754   4.992   1.443  0.00  0.00    +0.050 A 
ENDBRANCH   1   2
BRANCH   1   8
ATOM      8  C   LIG    1       -0.315   2.409  -0.709  0.00  0.00    +0.450 C 
ATOM      9  O   LIG    1       -1.327   1.743  -0.781  0.00  0.00    -0.450 OA
BRANCH   8  10
ATOM     10  C   LIG    1        0.953   1.788  -0.833  0.00  0.00    -0.270 A 
ATOM     11  C   LIG    1        2.185   2.403  -0.779  0.00  0.00    +0.340 A 
ATOM     12  N   LIG    1        3.156   1.484  -0.944  0.00  0.00    -0.560 N 
ATOM     13  H   LIG    1        4.106   1.681  -0.945  0.00  0.00    +0.420 HD
ATOM     14  C   LIG    1        2.615   0.226  -1.114  0.00  0.00    +0.070 A 
ATOM     15  C   LIG    1        3.177  -1.030  -1.316  0.00  0.00    +0.000 A 
ATOM     16  C   LIG    1        2.363  -2.134  -1.455  0.00  0.00    +0.030 A 
ATOM     17  C   LIG    1        0.984  -2.006  -1.395  0.00  0.00    +0.000 A 
ATOM     18  C   LIG    1        0.408  -0.770  -1.195  0.00  0.00    +0.060 A 
ATOM     19  C   LIG    1        1.218   0.352  -1.053  0.00  0.00    -0.050 A 
ENDBRANCH   8  10
ENDBRANCH   1   8
BRANCH   1  20
ATOM     20  S   LIG    1       -2.004   4.500  -1.084  0.00  0.00    +0.060 S 
BRANCH  20  23
ATOM     21  C   LIG    1       -4.035   7.035  -1.697  0.00  0.00    +0.350 C 
ATOM     22  N   LIG    1       -2.694   7.210  -1.135  0.00  0.00    -0.460 N 
ATOM     23  C   LIG    1       -1.785   6.233  -0.848  0.00  0.00    +0.150 A 
ATOM     24  N   LIG    1       -0.718   6.824  -0.358  0.00  0.00    -0.280 NA
ATOM     25  N   LIG    1       -0.894   8.097  -0.327  0.00  0.00    -0.270 NA
ATOM     26  C   LIG    1       -2.087   8.395  -0.787  0.00  0.00    +0.220 A 
BRANCH  26  27
ATOM     27  C   LIG    1       -2.668   9.749  -0.909  0.00  0.00    -0.020 A 
ATOM     28  C   LIG    1       -1.836  10.870  -0.929  0.00  0.00    +0.070 A 
ATOM     29  C   LIG    1       -2.384  12.130  -1.049  0.00  0.00    +0.010 A 
ATOM     30  C   LIG    1       -3.756  12.285  -1.137  0.00  0.00    +0.030 A 
ATOM     31  C   LIG    1       -4.587  11.179  -1.113  0.00  0.00    +0.010 A 
ATOM     32  C   LIG    1       -4.051   9.913  -0.999  0.00  0.00    +0.020 A 
ENDBRANCH  26  27
ENDBRANCH  20  23
ENDBRANCH   1  20
TORSDOF 6
