REMARK  Name = ZINCvU000000067Z.0
REMARK                            x       y       z     vdW  Elec       q    Type
REMARK                         _______ _______ _______ _____ _____    ______ ____
ROOT
ATOM      1  O   LIG    1        6.762   4.961  -0.035  0.00  0.00    -0.490 OA
ATOM      2  C   LIG    1        5.946   4.064  -0.033  0.00  0.00    +0.570 C 
ATOM      3  N   LIG    1        4.629   4.352  -0.019  0.00  0.00    -0.460 N 
ATOM      4  N   LIG    1        3.595   3.417  -0.009  0.00  0.00    -0.230 NA
ATOM      5  C   LIG    1        2.416   3.936  -0.001  0.00  0.00    +0.150 C 
ATOM      6  C   LIG    1        2.528   5.444   0.006  0.00  0.00    +0.100 C 
ATOM      7  C   LIG    1        4.048   5.704  -0.007  0.00  0.00    +0.330 C 
ENDROOT
BRANCH   5   8
ATOM      8  C   LIG    1        1.152   3.177   0.008  0.00  0.00    -0.030 A 
ATOM      9  C   LIG    1        1.173   1.780   0.000  0.00  0.00    +0.080 A 
ATOM     10  C   LIG    1       -0.013   1.076   0.008  0.00  0.00    +0.030 A 
ATOM     11  C   LIG    1       -1.222   1.750   0.017  0.00  0.00    -0.020 A 
ATOM     12  C   LIG    1       -1.250   3.135   0.030  0.00  0.00    +0.030 A 
ATOM     13 CL   LIG    1       -2.710   0.856   0.020  0.00  0.00    -0.060 Cl
ATOM     14  C   LIG    1       -0.071   3.851   0.022  0.00  0.00    +0.070 A 
ENDBRANCH   5   8
BRANCH   7  15
ATOM     15  C   LIG    1        4.446   6.463  -1.247  0.00  0.00    -0.030 A 
ATOM     16  C   LIG    1        4.675   7.787  -1.319  0.00  0.00    -0.030 A 
ATOM     17  C   LIG    1        5.021   8.070  -2.660  0.00  0.00    -0.060 A 
ATOM     18  C   LIG    1        4.975   6.904  -3.329  0.00  0.00    +0.170 A 
ATOM     19  O   LIG    1        4.626   5.934  -2.468  0.00  0.00    -0.170 OA
ENDBRANCH   7  15
BRANCH   2  20
ATOM     20  C   LIG    1        6.403   2.628  -0.044  0.00  0.00    +0.130 C 
BRANCH  20  21
ATOM     21  S   LIG    1        8.212   2.572  -0.060  0.00  0.00    +0.060 S 
BRANCH  21  22
ATOM     22  C   LIG    1        8.464   0.828  -0.072  0.00  0.00    +0.180 A 
ATOM     23  N   LIG    1        7.434  -0.009  -0.061  0.00  0.00    -0.540 NA
ATOM     24  C   LIG    1        7.611  -1.321  -0.074  0.00  0.00    +0.520 A 
ATOM     25  N   LIG    1        8.796  -1.882  -0.088  0.00  0.00    -0.510 NA
ATOM     26  C   LIG    1        9.906  -1.129  -0.094  0.00  0.00    +0.170 A 
ATOM     27  C   LIG    1       11.188  -1.694  -0.108  0.00  0.00    +0.040 A 
ATOM     28  C   LIG    1       12.283  -0.882  -0.113  0.00  0.00    +0.060 A 
ATOM     29  C   LIG    1       12.148   0.503  -0.105  0.00  0.00    +0.020 A 
ATOM     30  C   LIG    1       10.914   1.087  -0.092  0.00  0.00    +0.060 A 
ATOM     31  C   LIG    1        9.771   0.281  -0.086  0.00  0.00    -0.140 A 
ENDBRANCH  21  22
ENDBRANCH  20  21
ENDBRANCH   2  20
TORSDOF 5
