REMARK  Name = ZINCvU00000005J5.0
REMARK                            x       y       z     vdW  Elec       q    Type
REMARK                         _______ _______ _______ _____ _____    ______ ____
ROOT
ATOM      1  N   LIG    1       -0.664  11.899  -1.728  0.00  0.00    -0.620 N 
ATOM      2  H   LIG    1       -0.677  12.223  -2.642  0.00  0.00    +0.420 HD
ATOM      3  C   LIG    1       -0.512  12.767  -0.708  0.00  0.00    +0.550 C 
ATOM      4  O   LIG    1       -0.494  12.361   0.438  0.00  0.00    -0.440 OA
ENDROOT
BRANCH   3   5
ATOM      5  C   LIG    1       -0.366  14.209  -0.982  0.00  0.00    -0.150 A 
ATOM      6  C   LIG    1       -0.385  14.680  -2.297  0.00  0.00    +0.060 A 
ATOM      7  C   LIG    1       -0.248  16.028  -2.546  0.00  0.00    +0.020 A 
ATOM      8  C   LIG    1       -0.092  16.920  -1.498  0.00  0.00    +0.070 A 
ATOM      9  C   LIG    1       -0.072  16.469  -0.193  0.00  0.00    +0.010 A 
ATOM     10  C   LIG    1       -0.213  15.116   0.077  0.00  0.00    +0.150 A 
BRANCH  10  11
ATOM     11  O   LIG    1       -0.199  14.671   1.358  0.00  0.00    -0.250 OA
BRANCH  11  12
ATOM     12  C   LIG    1        0.990  14.272   1.881  0.00  0.00    +0.140 A 
ATOM     13  C   LIG    1        2.159  14.430   1.151  0.00  0.00    -0.080 A 
ATOM     14  C   LIG    1        3.367  14.028   1.687  0.00  0.00    +0.040 A 
ATOM     15  C   LIG    1        3.410  13.458   2.947  0.00  0.00    -0.030 A 
ATOM     16  C   LIG    1        2.246  13.294   3.674  0.00  0.00    +0.050 A 
ATOM     17  C   LIG    1        1.036  13.699   3.145  0.00  0.00    +0.000 A 
ENDBRANCH  11  12
ENDBRANCH  10  11
ENDBRANCH   3   5
BRANCH   1  21
ATOM     18  C   LIG    1       -1.069   8.083  -1.368  0.00  0.00    -0.020 A 
ATOM     19  N   LIG    1       -0.941   8.726  -0.245  0.00  0.00    -0.240 NA
ATOM     20  N   LIG    1       -0.799   9.978  -0.298  0.00  0.00    -0.250 NA
ATOM     21  C   LIG    1       -0.801  10.539  -1.470  0.00  0.00    +0.250 A 
ATOM     22  S   LIG    1       -1.009   9.267  -2.676  0.00  0.00    +0.120 S 
BRANCH  18  23
ATOM     23  S   LIG    1       -1.273   6.343  -1.552  0.00  0.00    +0.040 S 
BRANCH  23  24
ATOM     24  C   LIG    1       -1.245   5.746   0.161  0.00  0.00    +0.150 C 
BRANCH  24  28
ATOM     25  C   LIG    1       -1.717   1.496   0.198  0.00  0.00    -0.020 A 
ATOM     26  C   LIG    1       -2.838   2.326   0.252  0.00  0.00    +0.070 A 
ATOM     27  C   LIG    1       -2.678   3.697   0.246  0.00  0.00    +0.040 A 
ATOM     28  C   LIG    1       -1.411   4.248   0.174  0.00  0.00    -0.050 A 
ATOM     29  C   LIG    1       -0.296   3.431   0.115  0.00  0.00    +0.040 A 
ATOM     30  C   LIG    1       -0.441   2.059   0.126  0.00  0.00    +0.070 A 
BRANCH  25  32
ATOM     31  N   LIG    1       -2.000  -1.056   0.220  0.00  0.00    -0.410 NA
ATOM     32  C   LIG    1       -1.875   0.073   0.210  0.00  0.00    +0.250 C 
ENDBRANCH  25  32
ENDBRANCH  24  28
ENDBRANCH  23  24
ENDBRANCH  18  23
ENDBRANCH   1  21
TORSDOF 8
