REMARK  Name = ZINCbw0000000Hn0.0
REMARK                            x       y       z     vdW  Elec       q    Type
REMARK                         _______ _______ _______ _____ _____    ______ ____
ROOT
ATOM      1  F   LIG    1       -4.265   3.453   2.827  0.00  0.00    -0.120 F 
ATOM      2  C   LIG    1       -3.244   2.884   2.150  0.00  0.00    +0.130 A 
ATOM      3  C   LIG    1       -2.473   1.905   2.752  0.00  0.00    +0.000 A 
ATOM      4  C   LIG    1       -1.428   1.324   2.058  0.00  0.00    +0.090 A 
ATOM      5  C   LIG    1       -1.152   1.720   0.763  0.00  0.00    -0.090 A 
ATOM      6  C   LIG    1       -1.918   2.702   0.161  0.00  0.00    +0.100 A 
ATOM      7  C   LIG    1       -2.967   3.281   0.851  0.00  0.00    -0.130 A 
ATOM      8 BR   LIG    1       -4.018   4.619   0.026  0.00  0.00    -0.020 Br
ENDROOT
BRANCH   5   9
ATOM      9  C   LIG    1       -0.013   1.086   0.008  0.00  0.00    +0.170 C 
ATOM     10  C   LIG    1        1.331   1.817  -0.001  0.00  0.00    +0.210 C 
ATOM     11  O   LIG    1        0.481   1.765  -1.148  0.00  0.00    -0.340 OA
ENDBRANCH   5   9
TORSDOF 1
