REMARK  Name = ZINCqH0000000off.0
REMARK                            x       y       z     vdW  Elec       q    Type
REMARK                         _______ _______ _______ _____ _____    ______ ____
ROOT
ATOM      1  S   LIG    1        3.988   1.531  -0.104  0.00  0.00    +0.050 S 
ENDROOT
BRANCH   1   5
ATOM      2  C   LIG    1        0.068  -0.036   0.004  0.00  0.00    +0.230 A 
ATOM      3  N   LIG    1        0.140   1.240   0.236  0.00  0.00    -0.280 NA
ATOM      4  N   LIG    1        1.280   1.778   0.220  0.00  0.00    -0.240 NA
ATOM      5  C   LIG    1        2.305   1.016  -0.028  0.00  0.00    -0.070 A 
ATOM      6  S   LIG    1        1.708  -0.627  -0.275  0.00  0.00    +0.230 S 
BRANCH   2   9
ATOM      7  C   LIG    1       -2.274  -2.959  -0.293  0.00  0.00    +0.140 C 
ATOM      8  C   LIG    1       -1.017  -2.142  -0.142  0.00  0.00    +0.520 C 
ATOM      9  N   LIG    1       -1.095  -0.802  -0.019  0.00  0.00    -0.480 N 
ATOM     10  O   LIG    1        0.065  -2.690  -0.130  0.00  0.00    -0.500 OA
BRANCH   9  11
ATOM     11  C   LIG    1       -2.403  -0.151   0.089  0.00  0.00    +0.200 C 
ATOM     12  C   LIG    1       -2.462   1.359  -0.148  0.00  0.00    +0.070 C 
ATOM     13  C   LIG    1       -2.622   0.800   1.267  0.00  0.00    +0.040 C 
ENDBRANCH   9  11
ENDBRANCH   2   9
ENDBRANCH   1   5
BRANCH   1  14
ATOM     14  C   LIG    1        3.886   3.309   0.239  0.00  0.00    +0.150 C 
BRANCH  14  15
ATOM     15  C   LIG    1        5.270   3.907   0.210  0.00  0.00    +0.030 A 
ATOM     16  C   LIG    1        5.683   4.655  -0.844  0.00  0.00    -0.050 A 
ATOM     17  C   LIG    1        6.983   5.208  -0.845  0.00  0.00    +0.510 A 
ATOM     18  O   LIG    1        7.836   5.005   0.171  0.00  0.00    -0.270 OA
ATOM     19  C   LIG    1        7.488   4.266   1.246  0.00  0.00    +0.160 A 
ATOM     20  C   LIG    1        8.383   4.065   2.289  0.00  0.00    +0.010 A 
ATOM     21  C   LIG    1        8.007   3.306   3.378  0.00  0.00    -0.020 A 
ATOM     22  C   LIG    1        6.743   2.739   3.443  0.00  0.00    +0.000 A 
ATOM     23  C   LIG    1        5.847   2.923   2.428  0.00  0.00    +0.090 A 
ATOM     24  C   LIG    1        8.980   3.090   4.508  0.00  0.00    +0.120 C 
ATOM     25  O   LIG    1        7.340   5.882  -1.794  0.00  0.00    -0.450 OA
ATOM     26  C   LIG    1        6.208   3.690   1.315  0.00  0.00    -0.160 A 
ENDBRANCH  14  15
ENDBRANCH   1  14
TORSDOF 5
