REMARK  Name = ZINCrH000004nl9i.0
REMARK                            x       y       z     vdW  Elec       q    Type
REMARK                         _______ _______ _______ _____ _____    ______ ____
ROOT
ATOM      1  C   LIG    1       -4.487  -4.023  -2.986  0.00  0.00    -0.120 A 
ATOM      2  C   LIG    1       -3.718  -3.548  -4.050  0.00  0.00    +0.040 A 
ATOM      3  C   LIG    1       -4.120  -3.779  -5.349  0.00  0.00    +0.030 A 
ATOM      4  C   LIG    1       -5.284  -4.481  -5.603  0.00  0.00    -0.080 A 
ATOM      5  C   LIG    1       -6.056  -4.959  -4.550  0.00  0.00    +0.130 A 
ATOM      6  C   LIG    1       -5.716  -4.730  -7.025  0.00  0.00    +0.100 C 
ATOM      7  C   LIG    1       -5.658  -4.736  -3.241  0.00  0.00    +0.100 A 
ENDROOT
BRANCH   1  10
ATOM      8  N   LIG    1       -2.922  -3.092  -1.348  0.00  0.00    -0.720 N 
ATOM      9  H   LIG    1       -2.387  -2.761  -2.086  0.00  0.00    +0.400 HD
ATOM     10  C   LIG    1       -4.057  -3.776  -1.592  0.00  0.00    +0.560 C 
ATOM     11  O   LIG    1       -4.728  -4.191  -0.667  0.00  0.00    -0.530 OA
BRANCH   8  12
ATOM     12  C   LIG    1       -2.497  -2.847   0.033  0.00  0.00    +0.320 C 
BRANCH  12  17
ATOM     13  C   LIG    1       -0.049   0.031   0.037  0.00  0.00    +0.130 A 
ATOM     14  C   LIG    1        1.164  -0.640   0.021  0.00  0.00    -0.070 A 
ATOM     15  C   LIG    1        1.188  -2.022   0.018  0.00  0.00    +0.050 A 
ATOM     16  C   LIG    1        0.003  -2.735   0.019  0.00  0.00    -0.010 A 
ATOM     17  C   LIG    1       -1.208  -2.067   0.030  0.00  0.00    -0.070 A 
ATOM     18  C   LIG    1       -1.237  -0.686   0.039  0.00  0.00    +0.000 A 
BRANCH  13  20
ATOM     19  C   LIG    1        1.186   2.063   0.043  0.00  0.00    +0.250 C 
ATOM     20  O   LIG    1       -0.075   1.390   0.045  0.00  0.00    -0.320 OA
ENDBRANCH  13  20
ENDBRANCH  12  17
ENDBRANCH   8  12
ENDBRANCH   1  10
BRANCH   5  21
ATOM     21  N   LIG    1       -7.232  -5.669  -4.812  0.00  0.00    -0.660 N 
ATOM     22  H   LIG    1       -7.783  -5.431  -5.574  0.00  0.00    +0.420 HD
ATOM     23  C   LIG    1       -7.601  -6.684  -4.005  0.00  0.00    +0.610 C 
ATOM     24  O   LIG    1       -6.955  -6.929  -3.002  0.00  0.00    -0.490 OA
BRANCH  23  25
ATOM     25  C   LIG    1       -8.779  -7.492  -4.334  0.00  0.00    -0.090 A 
ATOM     26  C   LIG    1       -9.260  -8.543  -3.607  0.00  0.00    +0.050 A 
ATOM     27  C   LIG    1      -10.393  -9.018  -4.285  0.00  0.00    -0.060 A 
ATOM     28  C   LIG    1      -10.552  -8.246  -5.383  0.00  0.00    +0.210 A 
ATOM     29  O   LIG    1       -9.581  -7.324  -5.406  0.00  0.00    -0.170 OA
ENDBRANCH  23  25
ENDBRANCH   5  21
TORSDOF 6
