REMARK  Name = ZINCvU0000000HCl.0
REMARK                            x       y       z     vdW  Elec       q    Type
REMARK                         _______ _______ _______ _____ _____    ______ ____
ROOT
ATOM      1  S   LIG    1       -1.451  -0.129  -1.018  0.00  0.00    +0.100 S 
ENDROOT
BRANCH   1   2
ATOM      2  C   LIG    1       -0.406  -0.593  -2.359  0.00  0.00    +0.360 A 
ATOM      3  N   LIG    1        0.888  -0.450  -2.220  0.00  0.00    -0.540 NA
ATOM      4  C   LIG    1        1.748  -0.790  -3.209  0.00  0.00    +0.170 A 
ATOM      5  C   LIG    1        3.130  -0.644  -3.059  0.00  0.00    +0.050 A 
ATOM      6  C   LIG    1        3.965  -0.994  -4.083  0.00  0.00    +0.090 A 
ATOM      7  C   LIG    1        3.462  -1.496  -5.277  0.00  0.00    -0.060 A 
ATOM      8  C   LIG    1        2.103  -1.652  -5.454  0.00  0.00    +0.120 A 
ATOM      9 CL   LIG    1        4.552  -1.930  -6.556  0.00  0.00    -0.060 Cl
ATOM     10  C   LIG    1        1.234  -1.302  -4.422  0.00  0.00    -0.190 A 
ATOM     11  C   LIG    1       -0.223  -1.446  -4.553  0.00  0.00    +0.560 A 
ATOM     12  O   LIG    1       -0.725  -1.880  -5.573  0.00  0.00    -0.500 OA
ATOM     13  N   LIG    1       -0.985  -1.078  -3.497  0.00  0.00    -0.520 N 
BRANCH  13  14
ATOM     14  C   LIG    1       -2.443  -1.201  -3.575  0.00  0.00    +0.300 C 
BRANCH  14  15
ATOM     15  C   LIG    1       -3.035   0.096  -4.131  0.00  0.00    -0.030 C 
ATOM     16  C   LIG    1       -2.778   1.237  -3.145  0.00  0.00    +0.020 C 
ATOM     17  C   LIG    1       -4.542  -0.076  -4.330  0.00  0.00    +0.050 C 
ENDBRANCH  14  15
ENDBRANCH  13  14
ENDBRANCH   1   2
BRANCH   1  18
ATOM     18  C   LIG    1       -0.206   0.420   0.175  0.00  0.00    +0.100 C 
BRANCH  18  21
ATOM     19  N   LIG    1       -0.154   1.330   2.475  0.00  0.00    -0.670 N 
ATOM     20  H   LIG    1        0.815   1.315   2.426  0.00  0.00    +0.410 HD
ATOM     21  C   LIG    1       -0.888   0.875   1.440  0.00  0.00    +0.530 C 
ATOM     22  O   LIG    1       -2.097   0.833   1.526  0.00  0.00    -0.500 OA
BRANCH  19  29
ATOM     23  C   LIG    1       -2.139   3.343   2.147  0.00  0.00    +0.090 C 
ATOM     24  C   LIG    1       -1.764   2.807   3.505  0.00  0.00    -0.070 A 
ATOM     25  C   LIG    1       -2.394   3.287   4.636  0.00  0.00    +0.020 A 
ATOM     26  C   LIG    1       -2.047   2.800   5.883  0.00  0.00    +0.020 A 
ATOM     27  C   LIG    1       -1.073   1.826   6.001  0.00  0.00    +0.020 A 
ATOM     28  C   LIG    1       -0.444   1.336   4.873  0.00  0.00    -0.080 A 
ATOM     29  C   LIG    1       -0.790   1.824   3.619  0.00  0.00    +0.130 A 
BRANCH  28  30
ATOM     30  C   LIG    1        0.618   0.275   5.002  0.00  0.00    +0.010 C 
ATOM     31  C   LIG    1        0.018  -0.970   5.658  0.00  0.00    +0.040 C 
ATOM     32  C   LIG    1        1.766   0.803   5.865  0.00  0.00    +0.030 C 
ENDBRANCH  28  30
ENDBRANCH  19  29
ENDBRANCH  18  21
ENDBRANCH   1  18
TORSDOF 7
