REMARK  Name = ZINCrD00000F5Lwn.0
REMARK                            x       y       z     vdW  Elec       q    Type
REMARK                         _______ _______ _______ _____ _____    ______ ____
ROOT
ATOM      1  C   LIG    1       -2.501   5.187   7.042  0.00  0.00    -0.150 C 
ATOM      2  C   LIG    1       -3.250   4.988   5.902  0.00  0.00    +0.240 C 
ENDROOT
BRANCH   2   3
ATOM      3  C   LIG    1       -2.657   4.320   4.743  0.00  0.00    -0.130 A 
ATOM      4  C   LIG    1       -1.865   3.175   4.919  0.00  0.00    +0.120 A 
ATOM      5  C   LIG    1       -1.314   2.556   3.835  0.00  0.00    -0.020 A 
ATOM      6  C   LIG    1       -1.536   3.058   2.554  0.00  0.00    +0.140 A 
ATOM      7  C   LIG    1       -2.317   4.198   2.374  0.00  0.00    -0.060 A 
ATOM      8  C   LIG    1       -2.878   4.822   3.451  0.00  0.00    +0.080 A 
BRANCH   6   9
ATOM      9  N   LIG    1       -0.973   2.425   1.454  0.00  0.00    -0.490 N 
ATOM     10  C   LIG    1       -1.370   1.010   1.401  0.00  0.00    +0.180 C 
ATOM     11  C   LIG    1       -0.682   0.337   0.210  0.00  0.00    +0.220 C 
ATOM     12  O   LIG    1       -1.017   1.040  -0.989  0.00  0.00    -0.380 OA
ATOM     13  C   LIG    1       -0.643   2.421  -0.971  0.00  0.00    +0.220 C 
ATOM     14  C   LIG    1       -1.332   3.115   0.207  0.00  0.00    +0.170 C 
ENDBRANCH   6   9
ENDBRANCH   2   3
BRANCH   1  15
ATOM     15  C   LIG    1       -1.052   4.931   7.023  0.00  0.00    +0.570 C 
ATOM     16  N   LIG    1       -0.345   4.979   8.170  0.00  0.00    -0.720 N 
ATOM     17  H   LIG    1       -0.791   5.182   9.007  0.00  0.00    +0.400 HD
ATOM     18  O   LIG    1       -0.493   4.676   5.974  0.00  0.00    -0.510 OA
BRANCH  16  19
ATOM     19  C   LIG    1        1.097   4.725   8.151  0.00  0.00    +0.320 C 
BRANCH  19  20
ATOM     20  C   LIG    1        1.645   4.838   9.551  0.00  0.00    -0.110 A 
ATOM     21  C   LIG    1        2.105   6.056  10.016  0.00  0.00    +0.050 A 
ATOM     22  C   LIG    1        2.604   6.162  11.300  0.00  0.00    +0.030 A 
ATOM     23  C   LIG    1        2.652   5.047  12.118  0.00  0.00    -0.030 A 
ATOM     24  C   LIG    1        2.196   3.827  11.650  0.00  0.00    +0.030 A 
ATOM     25 CL   LIG    1        3.284   5.178  13.729  0.00  0.00    -0.060 Cl
ATOM     26  C   LIG    1        1.693   3.724  10.367  0.00  0.00    +0.050 A 
ENDBRANCH  19  20
ENDBRANCH  16  19
ENDBRANCH   1  15
BRANCH   1  28
ATOM     27  N   LIG    1       -3.634   6.003   9.197  0.00  0.00    -0.400 NA
ATOM     28  C   LIG    1       -3.133   5.642   8.243  0.00  0.00    +0.240 C 
ENDBRANCH   1  28
TORSDOF 6
