REMARK  Name = ZINCue00000008fM.0
REMARK                            x       y       z     vdW  Elec       q    Type
REMARK                         _______ _______ _______ _____ _____    ______ ____
ROOT
ATOM      1  C   LIG    1       -0.251  -2.665   2.587  0.00  0.00    +0.520 C 
ATOM      2  N   LIG    1       -0.090  -1.984   1.436  0.00  0.00    -0.730 N 
ATOM      3  H   LIG    1        0.118  -2.458   0.616  0.00  0.00    +0.410 HD
ATOM      4  O   LIG    1       -0.511  -2.071   3.612  0.00  0.00    -0.540 OA
ENDROOT
BRANCH   1   5
ATOM      5  C   LIG    1       -0.109  -4.165   2.601  0.00  0.00    +0.080 C 
BRANCH   5   6
ATOM      6  C   LIG    1       -0.339  -4.686   4.021  0.00  0.00    +0.160 C 
BRANCH   6  15
ATOM      7  C   LIG    1       -0.446  -9.447   6.886  0.00  0.00    +0.330 C 
ATOM      8  N   LIG    1       -0.164  -9.421   5.449  0.00  0.00    -0.500 N 
ATOM      9  C   LIG    1        0.078 -10.570   4.789  0.00  0.00    +0.710 A 
ATOM     10  N   LIG    1        0.341 -10.586   3.471  0.00  0.00    -0.640 N 
ATOM     11  H   LIG    1        0.510 -11.433   3.029  0.00  0.00    +0.430 HD
ATOM     12  C   LIG    1        0.373  -9.435   2.743  0.00  0.00    +0.550 A 
ATOM     13  C   LIG    1        0.129  -8.217   3.382  0.00  0.00    -0.160 A 
ATOM     14  N   LIG    1        0.082  -6.924   2.985  0.00  0.00    -0.460 NA
ATOM     15  C   LIG    1       -0.197  -6.186   4.035  0.00  0.00    +0.140 A 
ATOM     16  N   LIG    1       -0.330  -6.953   5.114  0.00  0.00    -0.550 NA
ATOM     17  O   LIG    1        0.638  -9.470   1.425  0.00  0.00    -0.610 OA
ATOM     18  O   LIG    1        0.059 -11.621   5.401  0.00  0.00    -0.580 OA
ATOM     19  C   LIG    1       -0.146  -8.216   4.768  0.00  0.00    +0.220 A 
ENDBRANCH   6  15
ENDBRANCH   5   6
ENDBRANCH   1   5
BRANCH   2  20
ATOM     20  C   LIG    1       -0.228  -0.525   1.422  0.00  0.00    +0.240 C 
BRANCH  20  21
ATOM     21  C   LIG    1        0.002  -0.004   0.002  0.00  0.00    +0.260 C 
BRANCH  21  22
ATOM     22  C   LIG    1       -0.018   1.503   0.010  0.00  0.00    -0.110 A 
ATOM     23  C   LIG    1        1.157   2.189   0.003  0.00  0.00    +0.040 A 
ATOM     24  C   LIG    1        1.141   3.594   0.010  0.00  0.00    -0.050 A 
ATOM     25  C   LIG    1        2.334   4.337   0.003  0.00  0.00    +0.030 A 
ATOM     26  C   LIG    1        2.280   5.697   0.010  0.00  0.00    +0.000 A 
ATOM     27  C   LIG    1        1.058   6.367   0.025  0.00  0.00    +0.000 A 
ATOM     28  C   LIG    1       -0.117   5.680   0.034  0.00  0.00    +0.020 A 
ATOM     29  C   LIG    1       -0.102   4.276   0.026  0.00  0.00    -0.050 A 
ATOM     30  C   LIG    1       -1.294   3.532   0.033  0.00  0.00    +0.030 A 
ATOM     31  C   LIG    1       -1.241   2.173   0.020  0.00  0.00    +0.010 A 
ENDBRANCH  21  22
BRANCH  21  32
ATOM     32  O   LIG    1       -1.032  -0.490  -0.857  0.00  0.00    -0.550 OA
ATOM     33  H   LIG    1       -1.922  -0.218  -0.594  0.00  0.00    +0.380 HD
ENDBRANCH  21  32
ENDBRANCH  20  21
ENDBRANCH   2  20
TORSDOF 7
