REMARK  Name = ZINCqH0000003gaK.0
REMARK                            x       y       z     vdW  Elec       q    Type
REMARK                         _______ _______ _______ _____ _____    ______ ____
ROOT
ATOM      1  C   LIG    1        1.232   3.543   0.009  0.00  0.00    +0.020 A 
ATOM      2  C   LIG    1        2.373   4.282   0.002  0.00  0.00    -0.070 A 
ATOM      3  C   LIG    1        1.950   5.681   0.013  0.00  0.00    -0.130 A 
ATOM      4  C   LIG    1        2.626   6.903   0.013  0.00  0.00    +0.080 A 
ATOM      5  C   LIG    1        1.916   8.071   0.025  0.00  0.00    +0.010 A 
ATOM      6  C   LIG    1        0.528   8.049   0.038  0.00  0.00    +0.070 A 
ATOM      7  C   LIG    1       -0.158   6.854   0.038  0.00  0.00    +0.030 A 
ATOM      8  C   LIG    1        0.542   5.654   0.026  0.00  0.00    +0.080 A 
ATOM      9  O   LIG    1        0.160   4.362   0.018  0.00  0.00    -0.160 OA
ENDROOT
BRANCH   1  10
ATOM     10  C   LIG    1        1.175   2.076   0.002  0.00  0.00    +0.560 C 
ATOM     11  O   LIG    1        2.204   1.428  -0.011  0.00  0.00    -0.470 OA
BRANCH  10  12
ATOM     12  O   LIG    1       -0.018   1.448   0.010  0.00  0.00    -0.320 OA
BRANCH  12  13
ATOM     13  C   LIG    1        0.002  -0.004   0.002  0.00  0.00    +0.320 C 
BRANCH  13  14
ATOM     14  C   LIG    1       -1.412  -0.526   0.013  0.00  0.00    +0.460 C 
ATOM     15  O   LIG    1       -2.341   0.247   0.026  0.00  0.00    -0.480 OA
BRANCH  14  16
ATOM     16  O   LIG    1       -1.639  -1.849   0.008  0.00  0.00    -0.350 OA
BRANCH  16  18
ATOM     17  C   LIG    1       -3.085  -3.808   0.011  0.00  0.00    +0.070 C 
ATOM     18  C   LIG    1       -3.026  -2.279   0.019  0.00  0.00    +0.200 C 
ENDBRANCH  16  18
ENDBRANCH  14  16
ENDBRANCH  13  14
ENDBRANCH  12  13
ENDBRANCH  10  12
ENDBRANCH   1  10
BRANCH   2  19
ATOM     19  C   LIG    1        3.788   3.763  -0.013  0.00  0.00    +0.300 C 
BRANCH  19  20
ATOM     20  O   LIG    1        4.223   3.606  -1.366  0.00  0.00    -0.300 OA
BRANCH  20  21
ATOM     21  C   LIG    1        5.486   3.143  -1.558  0.00  0.00    +0.130 A 
ATOM     22  C   LIG    1        6.293   2.852  -0.467  0.00  0.00    -0.080 A 
ATOM     23  C   LIG    1        7.575   2.377  -0.665  0.00  0.00    +0.050 A 
ATOM     24  C   LIG    1        8.057   2.201  -1.949  0.00  0.00    -0.040 A 
ATOM     25  C   LIG    1        7.257   2.496  -3.038  0.00  0.00    +0.050 A 
ATOM     26  C   LIG    1        5.973   2.966  -2.845  0.00  0.00    -0.020 A 
ENDBRANCH  20  21
ENDBRANCH  19  20
ENDBRANCH   2  19
TORSDOF 9
