REMARK  Name = ZINCqH0000050893.0
REMARK                            x       y       z     vdW  Elec       q    Type
REMARK                         _______ _______ _______ _____ _____    ______ ____
ROOT
ATOM      1  O   LIG    1       -3.700  -1.042   0.121  0.00  0.00    -0.320 OA
ENDROOT
BRANCH   1   2
ATOM      2  C   LIG    1       -2.515  -0.409   0.012  0.00  0.00    +0.520 C 
ATOM      3  O   LIG    1       -1.491  -1.052  -0.097  0.00  0.00    -0.490 OA
BRANCH   2  13
ATOM      4  C   LIG    1       -4.806   4.031   0.048  0.00  0.00    +0.140 C 
ATOM      5  C   LIG    1       -3.538   3.218   0.043  0.00  0.00    +0.150 A 
ATOM      6  N   LIG    1       -2.384   3.839   0.059  0.00  0.00    -0.450 NA
ATOM      7  C   LIG    1       -1.226   3.174   0.050  0.00  0.00    +0.130 A 
ATOM      8  C   LIG    1        0.002   3.860   0.051  0.00  0.00    +0.050 A 
ATOM      9  C   LIG    1        1.168   3.157   0.041  0.00  0.00    +0.030 A 
ATOM     10  C   LIG    1        1.167   1.764   0.029  0.00  0.00    +0.020 A 
ATOM     11  C   LIG    1       -0.004   1.066   0.028  0.00  0.00    +0.050 A 
ATOM     12  C   LIG    1       -1.222   1.757   0.033  0.00  0.00    -0.060 A 
ATOM     13  C   LIG    1       -2.462   1.068   0.025  0.00  0.00    -0.070 A 
ATOM     14  C   LIG    1       -3.625   1.828   0.031  0.00  0.00    +0.070 A 
ENDBRANCH   2  13
ENDBRANCH   1   2
BRANCH   1  15
ATOM     15  C   LIG    1       -3.676  -2.493   0.100  0.00  0.00    +0.190 C 
ATOM     16  C   LIG    1       -3.809  -2.985  -1.342  0.00  0.00    +0.070 C 
BRANCH  15  17
ATOM     17  C   LIG    1       -4.822  -3.026   0.920  0.00  0.00    +0.510 C 
ATOM     18  N   LIG    1       -4.943  -4.352   1.129  0.00  0.00    -0.660 N 
ATOM     19  H   LIG    1       -4.252  -4.957   0.817  0.00  0.00    +0.420 HD
ATOM     20  O   LIG    1       -5.637  -2.261   1.393  0.00  0.00    -0.440 OA
BRANCH  18  21
ATOM     21  C   LIG    1       -6.061  -4.855   1.793  0.00  0.00    +0.360 A 
ATOM     22  C   LIG    1       -6.128  -6.208   2.101  0.00  0.00    -0.040 A 
ATOM     23  C   LIG    1       -7.244  -6.695   2.761  0.00  0.00    +0.110 A 
ATOM     24  C   LIG    1       -8.258  -5.806   3.091  0.00  0.00    -0.120 A 
ATOM     25  C   LIG    1       -8.125  -4.472   2.753  0.00  0.00    +0.320 A 
ATOM     26 CL   LIG    1       -9.679  -6.363   3.918  0.00  0.00    -0.050 Cl
ATOM     27  N   LIG    1       -7.047  -4.037   2.129  0.00  0.00    -0.460 NA
ENDBRANCH  18  21
ENDBRANCH  15  17
ENDBRANCH   1  15
TORSDOF 5
