REMARK  Name = ZINCkj000005lsmQ.0
REMARK                            x       y       z     vdW  Elec       q    Type
REMARK                         _______ _______ _______ _____ _____    ______ ____
ROOT
ATOM      1  S   LIG    1       -0.359   4.023  -2.382  0.00  0.00    +2.690 S 
ATOM      2  O   LIG    1        0.668   3.256  -2.995  0.00  0.00    -0.930 OA
ATOM      3  O   LIG    1       -0.157   5.342  -1.891  0.00  0.00    -0.940 OA
ENDROOT
BRANCH   1   4
ATOM      4  C   LIG    1       -1.672   4.123  -3.553  0.00  0.00    -0.690 A 
ATOM      5  C   LIG    1       -1.557   3.514  -4.766  0.00  0.00    +0.190 A 
ATOM      6  C   LIG    1       -2.588   3.578  -5.702  0.00  0.00    +0.000 A 
ATOM      7  C   LIG    1       -3.737   4.260  -5.437  0.00  0.00    +0.140 A 
ATOM      8  C   LIG    1       -3.889   4.905  -4.200  0.00  0.00    -0.140 A 
ATOM      9  C   LIG    1       -5.050   5.623  -3.870  0.00  0.00    +0.350 A 
ATOM     10  N   LIG    1       -5.146   6.209  -2.700  0.00  0.00    -0.490 NA
ATOM     11  C   LIG    1       -4.183   6.159  -1.790  0.00  0.00    +0.280 A 
ATOM     12  C   LIG    1       -3.018   5.489  -2.013  0.00  0.00    -0.070 A 
ATOM     13  C   LIG    1       -2.840   4.835  -3.245  0.00  0.00    +0.060 A 
ENDBRANCH   1   4
BRANCH   1  18
ATOM     14  C   LIG    1       -0.678   3.235   1.325  0.00  0.00    +0.160 C 
ATOM     15  C   LIG    1       -0.795   1.709   1.342  0.00  0.00    +0.050 C 
ATOM     16  C   LIG    1       -0.153   1.132   0.079  0.00  0.00    +0.050 C 
ATOM     17  C   LIG    1       -0.893   1.660  -1.154  0.00  0.00    +0.300 C 
ATOM     18  N   LIG    1       -0.910   3.128  -1.102  0.00  0.00    -0.990 NA
ATOM     19  C   LIG    1       -1.425   3.787   0.106  0.00  0.00    +0.310 C 
BRANCH  14  20
ATOM     20  N   LIG    1       -1.268   3.786   2.552  0.00  0.00    -0.630 N 
ATOM     21  H   LIG    1       -1.192   4.792   2.539  0.00  0.00    +0.440 HD
ATOM     22  H   LIG    1       -0.776   3.423   3.354  0.00  0.00    +0.440 HD
ATOM     23  H   LIG    1       -2.240   3.523   2.606  0.00  0.00    +0.440 HD
ENDBRANCH  14  20
ENDBRANCH   1  18
TORSDOF 3
