REMARK  Name = ZINCrD000000Cuq0.0
REMARK                            x       y       z     vdW  Elec       q    Type
REMARK                         _______ _______ _______ _____ _____    ______ ____
ROOT
ATOM      1  C   LIG    1        0.968   3.602   0.998  0.00  0.00    +0.180 C 
ATOM      2  C   LIG    1        1.095   2.579  -0.140  0.00  0.00    +0.300 C 
ATOM      3  N   LIG    1       -0.147   1.788  -0.169  0.00  0.00    -0.940 N 
ATOM      4  C   LIG    1       -1.361   2.473  -0.002  0.00  0.00    +0.090 A 
ATOM      5  C   LIG    1       -2.560   1.844  -0.291  0.00  0.00    +0.000 A 
ATOM      6  C   LIG    1       -3.753   2.521  -0.117  0.00  0.00    +0.030 A 
ATOM      7  C   LIG    1       -3.749   3.822   0.351  0.00  0.00    +0.040 A 
ATOM      8  C   LIG    1       -2.555   4.454   0.645  0.00  0.00    +0.030 A 
ATOM      9  C   LIG    1       -1.354   3.783   0.472  0.00  0.00    +0.100 A 
ATOM     10  O   LIG    1       -0.185   4.413   0.761  0.00  0.00    -0.280 OA
ENDROOT
BRANCH   1  12
ATOM     11  O   LIG    1        2.124   5.641   0.729  0.00  0.00    -0.500 OA
ATOM     12  C   LIG    1        2.199   4.470   1.037  0.00  0.00    +0.530 C 
ATOM     13  N   LIG    1        3.382   3.947   1.413  0.00  0.00    -0.610 N 
ATOM     14  C   LIG    1        4.567   4.803   1.558  0.00  0.00    +0.280 C 
ATOM     15  C   LIG    1        5.156   4.588   2.961  0.00  0.00    +0.010 C 
ATOM     16  C   LIG    1        5.428   3.097   3.171  0.00  0.00    +0.020 C 
ATOM     17  C   LIG    1        4.114   2.318   3.077  0.00  0.00    +0.010 C 
ATOM     18  C   LIG    1        3.513   2.508   1.681  0.00  0.00    +0.250 C 
ENDBRANCH   1  12
BRANCH   3  19
ATOM     19  S   LIG    1       -0.113   0.148  -0.396  0.00  0.00    +2.720 S 
ATOM     20  O   LIG    1       -1.233  -0.377   0.303  0.00  0.00    -0.920 OA
ATOM     21  O   LIG    1        1.224  -0.264  -0.144  0.00  0.00    -0.930 OA
BRANCH  19  22
ATOM     22  C   LIG    1       -0.410  -0.148  -2.107  0.00  0.00    -0.810 A 
ATOM     23  C   LIG    1        0.530  -0.222  -3.049  0.00  0.00    +0.200 A 
ATOM     24  C   LIG    1        0.058  -0.468  -4.328  0.00  0.00    +0.010 A 
ATOM     25  C   LIG    1       -1.268  -0.582  -4.424  0.00  0.00    -0.110 A 
ATOM     26 CL   LIG    1       -2.143  -0.883  -5.893  0.00  0.00    +0.010 Cl
ATOM     27  S   LIG    1       -1.994  -0.382  -2.835  0.00  0.00    +0.280 S 
ENDBRANCH  19  22
ENDBRANCH   3  19
TORSDOF 3
