REMARK  Name = ZINCnE000007MDne.0
REMARK                            x       y       z     vdW  Elec       q    Type
REMARK                         _______ _______ _______ _____ _____    ______ ____
ROOT
ATOM      1  O   LIG    1       -0.761   9.920  -0.486  0.00  0.00    -1.000 OA
ATOM      2  S   LIG    1       -1.618   8.928   0.062  0.00  0.00    +2.630 S 
ATOM      3  O   LIG    1       -2.901   8.628  -0.472  0.00  0.00    -1.000 OA
ENDROOT
BRANCH   2   4
ATOM      4  C   LIG    1       -0.708   7.420   0.045  0.00  0.00    -0.510 A 
ATOM      5  C   LIG    1       -1.219   6.168   0.044  0.00  0.00    +0.070 A 
ATOM      6  C   LIG    1       -0.070   5.328   0.029  0.00  0.00    +0.040 A 
ATOM      7  N   LIG    1        0.966   6.129   0.029  0.00  0.00    -0.340 NA
ATOM      8  O   LIG    1        0.627   7.290   0.032  0.00  0.00    +0.170 OA
BRANCH   6   9
ATOM      9  C   LIG    1       -0.050   3.844   0.022  0.00  0.00    -0.010 A 
ATOM     10  C   LIG    1        1.164   3.161   0.007  0.00  0.00    +0.040 A 
ATOM     11  C   LIG    1        1.177   1.781   0.000  0.00  0.00    +0.010 A 
ATOM     12  C   LIG    1       -0.013   1.076   0.008  0.00  0.00    +0.010 A 
ATOM     13  C   LIG    1       -1.221   1.748   0.017  0.00  0.00    +0.010 A 
ATOM     14  C   LIG    1       -1.246   3.128   0.030  0.00  0.00    +0.030 A 
ENDBRANCH   6   9
ENDBRANCH   2   4
BRANCH   2  15
ATOM     15  N   LIG    1       -1.856   9.340   1.648  0.00  0.00    -1.070 NA
BRANCH  15  16
ATOM     16  C   LIG    1       -2.556  10.504   1.969  0.00  0.00    +0.330 A 
ATOM     17  C   LIG    1       -3.050  11.321   0.960  0.00  0.00    -0.190 A 
ATOM     18  C   LIG    1       -3.748  12.471   1.280  0.00  0.00    +0.180 A 
ATOM     19  C   LIG    1       -3.946  12.814   2.607  0.00  0.00    -0.160 A 
ATOM     20  C   LIG    1       -3.451  12.005   3.616  0.00  0.00    +0.160 A 
ATOM     21  F   LIG    1       -3.646  12.342   4.909  0.00  0.00    -0.150 F 
ATOM     22  F   LIG    1       -4.233  13.262   0.299  0.00  0.00    -0.150 F 
ATOM     23  C   LIG    1       -2.756  10.851   3.299  0.00  0.00    -0.090 A 
ENDBRANCH  15  16
ENDBRANCH   2  15
TORSDOF 4
