REMARK  Name = ZINCqH0000003I1m.0
REMARK                            x       y       z     vdW  Elec       q    Type
REMARK                         _______ _______ _______ _____ _____    ______ ____
ROOT
ATOM      1  C   LIG    1       -5.763  -1.635  -0.491  0.00  0.00    +0.220 A 
ATOM      2  N   LIG    1       -5.671  -1.607   0.813  0.00  0.00    -0.370 NA
ATOM      3  O   LIG    1       -4.573  -1.214   1.145  0.00  0.00    +0.090 OA
ATOM      4  C   LIG    1       -3.840  -0.935   0.063  0.00  0.00    +0.170 A 
ATOM      5  N   LIG    1       -4.581  -1.201  -0.984  0.00  0.00    -0.450 NA
ENDROOT
BRANCH   1   9
ATOM      6  C   LIG    1       -9.146  -2.861  -2.759  0.00  0.00    +0.160 A 
ATOM      7  C   LIG    1       -9.196  -2.885  -1.371  0.00  0.00    -0.010 A 
ATOM      8  C   LIG    1       -8.101  -2.489  -0.634  0.00  0.00    +0.100 A 
ATOM      9  C   LIG    1       -6.943  -2.063  -1.282  0.00  0.00    -0.070 A 
ATOM     10  C   LIG    1       -6.897  -2.035  -2.675  0.00  0.00    +0.110 A 
ATOM     11  C   LIG    1       -7.993  -2.439  -3.408  0.00  0.00    -0.070 A 
BRANCH   6  12
ATOM     12  O   LIG    1      -10.226  -3.253  -3.483  0.00  0.00    -0.310 OA
BRANCH  12  14
ATOM     13  C   LIG    1      -11.413  -3.678  -5.545  0.00  0.00    +0.070 C 
ATOM     14  C   LIG    1      -10.106  -3.204  -4.906  0.00  0.00    +0.190 C 
ENDBRANCH  12  14
ENDBRANCH   6  12
ENDBRANCH   1   9
BRANCH   4  15
ATOM     15  C   LIG    1       -2.424  -0.418   0.050  0.00  0.00    +0.440 C 
BRANCH  15  16
ATOM     16  N   LIG    1       -2.439   1.046   0.051  0.00  0.00    -0.740 N 
ATOM     17  H   LIG    1       -3.284   1.523   0.059  0.00  0.00    +0.410 HD
BRANCH  16  18
ATOM     18  C   LIG    1       -1.237   1.757   0.040  0.00  0.00    +0.230 A 
ATOM     19  C   LIG    1       -0.026   1.076   0.028  0.00  0.00    -0.090 A 
ATOM     20  C   LIG    1        1.164   1.778   0.011  0.00  0.00    +0.080 A 
ATOM     21  C   LIG    1        1.154   3.159   0.011  0.00  0.00    -0.080 A 
ATOM     22  C   LIG    1       -0.054   3.847   0.029  0.00  0.00    +0.190 A 
ATOM     23  C   LIG    1       -1.250   3.145   0.045  0.00  0.00    -0.050 A 
BRANCH  22  24
ATOM     24  N   LIG    1       -0.063   5.246   0.029  0.00  0.00    -0.670 N 
ATOM     25  H   LIG    1        0.628   5.736   0.502  0.00  0.00    +0.410 HD
ATOM     26  C   LIG    1       -1.031   5.914  -0.628  0.00  0.00    +0.510 C 
ATOM     27  O   LIG    1       -1.941   5.305  -1.150  0.00  0.00    -0.520 OA
ATOM     28  C   LIG    1       -0.983   7.418  -0.716  0.00  0.00    +0.110 C 
ENDBRANCH  22  24
ENDBRANCH  16  18
ENDBRANCH  15  16
ENDBRANCH   4  15
TORSDOF 7
