REMARK  Name = ZINCvU0000000C93.0
REMARK                            x       y       z     vdW  Elec       q    Type
REMARK                         _______ _______ _______ _____ _____    ______ ____
ROOT
ATOM      1  C   LIG    1        0.197  -4.107   7.109  0.00  0.00    +0.140 A 
ATOM      2  N   LIG    1        0.048  -5.366   6.765  0.00  0.00    -0.290 NA
ATOM      3  N   LIG    1        0.026  -6.112   7.811  0.00  0.00    -0.260 NA
ATOM      4  C   LIG    1        0.161  -5.375   8.891  0.00  0.00    +0.260 A 
ATOM      5  N   LIG    1        0.280  -4.068   8.474  0.00  0.00    -0.450 N 
ENDROOT
BRANCH   4   6
ATOM      6  C   LIG    1        0.186  -5.856  10.282  0.00  0.00    -0.130 A 
ATOM      7  C   LIG    1        0.395  -7.135  10.661  0.00  0.00    +0.080 A 
ATOM      8  C   LIG    1        0.377  -7.341  12.024  0.00  0.00    +0.020 A 
ATOM      9  C   LIG    1        0.146  -6.249  12.759  0.00  0.00    -0.030 A 
ATOM     10  S   LIG    1       -0.060  -4.855  11.707  0.00  0.00    +0.120 S 
ENDBRANCH   4   6
BRANCH   1  11
ATOM     11  S   LIG    1        0.282  -2.728   6.017  0.00  0.00    +0.130 S 
BRANCH  11  12
ATOM     12  C   LIG    1        0.108  -3.575   4.427  0.00  0.00    +0.180 C 
BRANCH  12  20
ATOM     13  C   LIG    1        0.094  -0.051  -2.459  0.00  0.00    +0.160 C 
ATOM     14  C   LIG    1        0.111  -0.657  -1.079  0.00  0.00    -0.200 A 
ATOM     15  C   LIG    1        0.249   0.034   0.037  0.00  0.00    -0.030 A 
ATOM     16  C   LIG    1        0.231  -0.760   1.249  0.00  0.00    -0.220 A 
ATOM     17  C   LIG    1        0.076  -2.112   0.987  0.00  0.00    +0.050 A 
ATOM     18  N   LIG    1        0.040  -2.994   2.045  0.00  0.00    -0.580 N 
ATOM     19  H   LIG    1       -0.068  -3.943   1.872  0.00  0.00    +0.430 HD
ATOM     20  C   LIG    1        0.153  -2.563   3.311  0.00  0.00    +0.460 A 
ATOM     21  N   LIG    1        0.302  -1.304   3.614  0.00  0.00    -0.570 NA
ATOM     22  C   LIG    1        0.349  -0.355   2.664  0.00  0.00    +0.550 A 
ATOM     23  O   LIG    1        0.489   0.819   2.965  0.00  0.00    -0.480 OA
ATOM     24  C   LIG    1        0.406   1.533   0.051  0.00  0.00    +0.130 C 
ATOM     25  S   LIG    1       -0.044  -2.372  -0.746  0.00  0.00    +0.180 S 
ENDBRANCH  12  20
ENDBRANCH  11  12
ENDBRANCH   1  11
BRANCH   5  26
ATOM     26  C   LIG    1        0.457  -2.882   9.316  0.00  0.00    +0.360 C 
BRANCH  26  27
ATOM     27  C   LIG    1        1.924  -2.553   9.419  0.00  0.00    -0.130 A 
ATOM     28  C   LIG    1        2.708  -3.179  10.369  0.00  0.00    +0.020 A 
ATOM     29  C   LIG    1        4.054  -2.881  10.460  0.00  0.00    +0.010 A 
ATOM     30  C   LIG    1        4.615  -1.948   9.608  0.00  0.00    +0.030 A 
ATOM     31  C   LIG    1        3.829  -1.317   8.662  0.00  0.00    +0.010 A 
ATOM     32  C   LIG    1        2.484  -1.619   8.567  0.00  0.00    +0.040 A 
ENDBRANCH  26  27
ENDBRANCH   5  26
TORSDOF 6
