REMARK  Name = ZINCrg00000bouQi.0
REMARK                            x       y       z     vdW  Elec       q    Type
REMARK                         _______ _______ _______ _____ _____    ______ ____
ROOT
ATOM      1  C   LIG    1        7.766  -0.246  -3.157  0.00  0.00    +0.200 C 
ENDROOT
BRANCH   1   2
ATOM      2  O   LIG    1        8.543   0.303  -2.091  0.00  0.00    -0.550 OA
ATOM      3  H   LIG    1        8.807   1.223  -2.231  0.00  0.00    +0.380 HD
ENDBRANCH   1   2
BRANCH   1   4
ATOM      4  C   LIG    1        6.484   0.571  -3.328  0.00  0.00    +0.250 C 
BRANCH   4   6
ATOM      5  C   LIG    1        4.533   1.182  -2.002  0.00  0.00    +0.520 C 
ATOM      6  N   LIG    1        5.709   0.528  -2.085  0.00  0.00    -0.720 N 
ATOM      7  H   LIG    1        6.041   0.029  -1.323  0.00  0.00    +0.410 HD
ATOM      8  O   LIG    1        4.117   1.806  -2.955  0.00  0.00    -0.530 OA
BRANCH   5  10
ATOM      9  C   LIG    1        4.567   1.725   0.418  0.00  0.00    +0.070 C 
ATOM     10  C   LIG    1        3.735   1.137  -0.724  0.00  0.00    +0.040 C 
BRANCH  10  11
ATOM     11  C   LIG    1        2.472   1.942  -0.892  0.00  0.00    -0.110 A 
ATOM     12  C   LIG    1        2.546   3.289  -1.192  0.00  0.00    +0.070 A 
ATOM     13  C   LIG    1        1.387   4.027  -1.347  0.00  0.00    +0.000 A 
ATOM     14  C   LIG    1        0.155   3.420  -1.201  0.00  0.00    +0.040 A 
ATOM     15  C   LIG    1        0.078   2.073  -0.899  0.00  0.00    -0.020 A 
ATOM     16  C   LIG    1        1.238   1.332  -0.745  0.00  0.00    +0.100 A 
ATOM     17  F   LIG    1        1.164   0.016  -0.451  0.00  0.00    -0.140 F 
ENDBRANCH  10  11
ENDBRANCH   5  10
ENDBRANCH   4   6
ENDBRANCH   1   4
BRANCH   1  18
ATOM     18  C   LIG    1        8.576  -0.201  -4.454  0.00  0.00    +0.260 C 
BRANCH  18  19
ATOM     19  N   LIG    1        9.742  -1.079  -4.333  0.00  0.00    -0.710 N 
ATOM     20  H   LIG    1        9.894  -1.574  -3.512  0.00  0.00    +0.410 HD
ATOM     21  C   LIG    1       10.606  -1.198  -5.361  0.00  0.00    +0.490 C 
ATOM     22  O   LIG    1       10.417  -0.580  -6.387  0.00  0.00    -0.480 OA
BRANCH  21  23
ATOM     23  C   LIG    1       11.806  -2.102  -5.236  0.00  0.00    +0.260 C 
ATOM     24  F   LIG    1       11.451  -3.252  -4.523  0.00  0.00    -0.190 F 
ATOM     25  F   LIG    1       12.827  -1.429  -4.556  0.00  0.00    -0.170 F 
BRANCH  23  26
ATOM     26  C   LIG    1       12.295  -2.496  -6.631  0.00  0.00    +0.080 C 
ATOM     27  C   LIG    1       13.722  -3.069  -6.644  0.00  0.00    +0.020 C 
ATOM     28  C   LIG    1       13.946  -2.270  -7.939  0.00  0.00    +0.040 C 
ATOM     29  C   LIG    1       12.846  -1.315  -7.447  0.00  0.00    +0.080 C 
BRANCH  26  30
ATOM     30  O   LIG    1       11.349  -3.294  -7.345  0.00  0.00    -0.510 OA
ATOM     31  H   LIG    1       11.067  -4.088  -6.871  0.00  0.00    +0.380 HD
ENDBRANCH  26  30
ENDBRANCH  23  26
ENDBRANCH  21  23
ENDBRANCH  18  19
ENDBRANCH   1  18
TORSDOF 10
