REMARK  Name = ZINCrD0000075KwV.0
REMARK                            x       y       z     vdW  Elec       q    Type
REMARK                         _______ _______ _______ _____ _____    ______ ____
ROOT
ATOM      1  C   LIG    1       -4.870   1.210   0.246  0.00  0.00    +0.010 A 
ATOM      2  N   LIG    1       -4.849  -0.104   0.233  0.00  0.00    -0.160 NA
ATOM      3  N   LIG    1       -5.918  -0.807   0.334  0.00  0.00    -0.330 N 
ATOM      4  C   LIG    1       -7.133  -0.239   0.448  0.00  0.00    +0.480 A 
ATOM      5  C   LIG    1       -7.245   1.169   0.464  0.00  0.00    -0.020 A 
ATOM      6  O   LIG    1       -8.130  -0.936   0.537  0.00  0.00    -0.520 OA
ATOM      7  C   LIG    1       -6.100   1.902   0.362  0.00  0.00    +0.140 A 
ENDROOT
BRANCH   1   9
ATOM      8  O   LIG    1       -3.624   3.184   0.138  0.00  0.00    -0.500 OA
ATOM      9  C   LIG    1       -3.606   1.969   0.132  0.00  0.00    +0.600 C 
ATOM     10  N   LIG    1       -2.434   1.313   0.021  0.00  0.00    -0.650 N 
ATOM     11  H   LIG    1       -2.424   0.346  -0.049  0.00  0.00    +0.430 HD
BRANCH  10  12
ATOM     12  C   LIG    1       -1.230   2.028   0.007  0.00  0.00    +0.120 A 
ATOM     13  C   LIG    1       -1.171   3.279  -0.591  0.00  0.00    +0.080 A 
ATOM     14  C   LIG    1        0.019   3.980  -0.607  0.00  0.00    +0.050 A 
ATOM     15  C   LIG    1        1.151   3.440  -0.024  0.00  0.00    -0.020 A 
ATOM     16  C   LIG    1        1.096   2.195   0.579  0.00  0.00    +0.020 A 
ATOM     17 CL   LIG    1        2.644   4.325  -0.047  0.00  0.00    -0.050 Cl
ATOM     18  C   LIG    1       -0.092   1.488   0.599  0.00  0.00    +0.090 A 
ATOM     19  F   LIG    1       -0.147   0.273   1.187  0.00  0.00    -0.130 F 
ENDBRANCH  10  12
ENDBRANCH   1   9
BRANCH   3  20
ATOM     20  C   LIG    1       -5.813  -2.269   0.318  0.00  0.00    +0.360 C 
BRANCH  20  21
ATOM     21  C   LIG    1       -5.909  -2.772  -1.123  0.00  0.00    +0.200 C 
BRANCH  21  22
ATOM     22  O   LIG    1       -4.782  -2.304  -1.867  0.00  0.00    -0.310 OA
BRANCH  22  23
ATOM     23  C   LIG    1       -4.714  -2.664  -3.176  0.00  0.00    +0.130 A 
ATOM     24  C   LIG    1       -5.708  -3.457  -3.731  0.00  0.00    -0.080 A 
ATOM     25  C   LIG    1       -5.639  -3.817  -5.063  0.00  0.00    +0.050 A 
ATOM     26  C   LIG    1       -4.575  -3.398  -5.840  0.00  0.00    -0.030 A 
ATOM     27  C   LIG    1       -3.580  -2.613  -5.287  0.00  0.00    +0.050 A 
ATOM     28  C   LIG    1       -3.647  -2.245  -3.957  0.00  0.00    -0.020 A 
ENDBRANCH  22  23
ENDBRANCH  21  22
ENDBRANCH  20  21
ENDBRANCH   3  20
TORSDOF 6
