REMARK  Name = ZINCkj00000dDzEd.0
REMARK                            x       y       z     vdW  Elec       q    Type
REMARK                         _______ _______ _______ _____ _____    ______ ____
ROOT
ATOM      1  C   LIG    1        2.440   1.013  -0.046  0.00  0.00    +0.230 C 
ENDROOT
BRANCH   1   6
ATOM      2  C   LIG    1       -1.331   0.839   0.126  0.00  0.00    +0.150 A 
ATOM      3  C   LIG    1       -1.658   2.172   0.320  0.00  0.00    -0.040 A 
ATOM      4  C   LIG    1       -0.660   3.125   0.389  0.00  0.00    +0.080 A 
ATOM      5  C   LIG    1        0.665   2.749   0.271  0.00  0.00    -0.040 A 
ATOM      6  C   LIG    1        0.995   1.419   0.083  0.00  0.00    -0.100 A 
ATOM      7  C   LIG    1        0.000   0.463   0.014  0.00  0.00    +0.020 A 
BRANCH   2   9
ATOM      8  C   LIG    1       -3.659   0.359   0.177  0.00  0.00    +0.250 C 
ATOM      9  O   LIG    1       -2.311  -0.100   0.053  0.00  0.00    -0.310 OA
ENDBRANCH   2   9
ENDBRANCH   1   6
BRANCH   1  10
ATOM     10  N   LIG    1        3.124   1.923  -0.974  0.00  0.00    -0.390 N 
ATOM     11  C   LIG    1        4.495   1.429  -1.260  0.00  0.00    +0.270 C 
ATOM     12  C   LIG    1        4.846   2.114  -2.604  0.00  0.00    +0.070 C 
ATOM     13  C   LIG    1        3.501   2.088  -3.367  0.00  0.00    +0.070 C 
ATOM     14  C   LIG    1        2.423   1.945  -2.276  0.00  0.00    +0.250 C 
ATOM     15  H   LIG    1        3.163   2.853  -0.584  0.00  0.00    +0.430 HD
ENDBRANCH   1  10
BRANCH   1  16
ATOM     16  C   LIG    1        3.114   1.082   1.326  0.00  0.00    +0.330 C 
BRANCH  16  17
ATOM     17  N   LIG    1        4.502   0.626   1.212  0.00  0.00    -1.140 NA
ATOM     18  H   LIG    1        4.778   0.099   0.446  0.00  0.00    +0.420 HD
BRANCH  17  19
ATOM     19  S   LIG    1        5.599   1.009   2.392  0.00  0.00    +2.610 S 
ATOM     20  O   LIG    1        5.468   2.415   2.549  0.00  0.00    -0.950 OA
ATOM     21  O   LIG    1        6.816   0.433   1.939  0.00  0.00    -0.940 OA
ATOM     22  C   LIG    1        4.996   0.145   3.868  0.00  0.00    -0.260 C 
ENDBRANCH  17  19
ENDBRANCH  16  17
ENDBRANCH   1  16
TORSDOF 6
