REMARK  Name = ZINCvU0000000GIu.0
REMARK                            x       y       z     vdW  Elec       q    Type
REMARK                         _______ _______ _______ _____ _____    ______ ____
ROOT
ATOM      1  C   LIG    1       -3.773   2.741   0.055  0.00  0.00    +0.540 C 
ATOM      2  N   LIG    1       -2.666   3.431  -0.283  0.00  0.00    -0.660 N 
ATOM      3  H   LIG    1       -2.739   4.353  -0.575  0.00  0.00    +0.420 HD
ATOM      4  O   LIG    1       -3.675   1.615   0.495  0.00  0.00    -0.500 OA
ENDROOT
BRANCH   2   5
ATOM      5  C   LIG    1       -1.409   2.816  -0.214  0.00  0.00    +0.150 A 
ATOM      6  C   LIG    1       -0.290   3.560   0.139  0.00  0.00    +0.010 A 
ATOM      7  C   LIG    1        0.949   2.954   0.202  0.00  0.00    +0.040 A 
ATOM      8  C   LIG    1        1.075   1.601  -0.077  0.00  0.00    +0.070 A 
ATOM      9  C   LIG    1       -0.042   0.856  -0.424  0.00  0.00    +0.030 A 
ATOM     10  C   LIG    1       -1.282   1.462  -0.493  0.00  0.00    +0.040 A 
BRANCH   8  11
ATOM     11  O   LIG    1        2.295   1.004  -0.009  0.00  0.00    -0.260 OA
BRANCH  11  12
ATOM     12  C   LIG    1        2.935   0.728  -1.175  0.00  0.00    +0.120 A 
ATOM     13  C   LIG    1        2.340   1.047  -2.387  0.00  0.00    -0.070 A 
ATOM     14  C   LIG    1        2.995   0.768  -3.571  0.00  0.00    +0.050 A 
ATOM     15  C   LIG    1        4.239   0.163  -3.549  0.00  0.00    -0.020 A 
ATOM     16  C   LIG    1        4.831  -0.161  -2.343  0.00  0.00    +0.050 A 
ATOM     17  C   LIG    1        4.183   0.120  -1.156  0.00  0.00    -0.020 A 
ENDBRANCH  11  12
ENDBRANCH   8  11
ENDBRANCH   2   5
BRANCH   1  19
ATOM     18  C   LIG    1       -5.409   4.311   1.058  0.00  0.00    +0.100 C 
ATOM     19  C   LIG    1       -5.133   3.368  -0.115  0.00  0.00    +0.000 C 
BRANCH  19  20
ATOM     20  S   LIG    1       -6.395   2.071  -0.156  0.00  0.00    +0.150 S 
BRANCH  20  21
ATOM     21  C   LIG    1       -7.822   3.044  -0.505  0.00  0.00    +0.120 A 
ATOM     22  N   LIG    1       -7.853   4.346  -0.672  0.00  0.00    -0.280 NA
ATOM     23  N   LIG    1       -9.061   4.718  -0.912  0.00  0.00    -0.260 NA
ATOM     24  C   LIG    1       -9.848   3.670  -0.908  0.00  0.00    +0.210 A 
ATOM     25  O   LIG    1       -9.080   2.587  -0.655  0.00  0.00    -0.190 OA
BRANCH  24  26
ATOM     26  C   LIG    1      -11.307   3.672  -1.143  0.00  0.00    -0.060 A 
ATOM     27  C   LIG    1      -11.975   4.870  -1.399  0.00  0.00    +0.110 A 
ATOM     28  C   LIG    1      -13.337   4.865  -1.618  0.00  0.00    +0.010 A 
ATOM     29  C   LIG    1      -14.043   3.675  -1.583  0.00  0.00    +0.080 A 
ATOM     30  C   LIG    1      -13.389   2.482  -1.329  0.00  0.00    +0.000 A 
ATOM     31  C   LIG    1      -12.024   2.472  -1.115  0.00  0.00    +0.130 A 
ATOM     32  F   LIG    1      -11.386   1.306  -0.873  0.00  0.00    -0.120 F 
ENDBRANCH  24  26
ENDBRANCH  20  21
ENDBRANCH  19  20
ENDBRANCH   1  19
TORSDOF 7
