REMARK  Name = ZINCpe00000bjuQc.0
REMARK                            x       y       z     vdW  Elec       q    Type
REMARK                         _______ _______ _______ _____ _____    ______ ____
ROOT
ATOM      1  C   LIG    1       -2.186  10.423  -0.700  0.00  0.00    +0.520 C 
ATOM      2  N   LIG    1       -1.825   9.141  -0.497  0.00  0.00    -0.640 N 
ATOM      3  C   LIG    1       -1.173   8.413   0.609  0.00  0.00    +0.290 C 
ATOM      4  C   LIG    1       -1.874   7.158   0.057  0.00  0.00    +0.260 C 
ATOM      5  C   LIG    1       -1.925   7.899  -1.292  0.00  0.00    +0.280 C 
ATOM      6  O   LIG    1       -1.975  11.256   0.157  0.00  0.00    -0.510 OA
ENDROOT
BRANCH   4   7
ATOM      7  N   LIG    1       -1.023   5.965   0.043  0.00  0.00    -0.720 N 
ATOM      8  H   LIG    1       -0.057   6.059   0.035  0.00  0.00    +0.400 HD
ATOM      9  C   LIG    1       -1.581   4.739   0.041  0.00  0.00    +0.600 C 
ATOM     10  O   LIG    1       -2.793   4.622   0.051  0.00  0.00    -0.510 OA
BRANCH   9  11
ATOM     11  C   LIG    1       -0.729   3.544   0.027  0.00  0.00    -0.060 A 
ATOM     12  C   LIG    1       -1.165   2.252   0.019  0.00  0.00    +0.110 A 
ATOM     13  C   LIG    1       -0.017   1.428   0.010  0.00  0.00    -0.130 A 
ATOM     14  C   LIG    1        1.083   2.264   0.004  0.00  0.00    +0.290 A 
ATOM     15  N   LIG    1        0.649   3.536   0.014  0.00  0.00    -0.520 N 
ATOM     16  H   LIG    1        1.215   4.323   0.013  0.00  0.00    +0.430 HD
BRANCH  13  17
ATOM     17  C   LIG    1        0.002  -0.004   0.002  0.00  0.00    +0.280 C 
ATOM     18  N   LIG    1        0.018  -1.140  -0.004  0.00  0.00    -0.420 NA
ENDBRANCH  13  17
ENDBRANCH   9  11
ENDBRANCH   4   7
BRANCH   1  19
ATOM     19  C   LIG    1       -2.852  10.823  -1.991  0.00  0.00    +0.330 C 
BRANCH  19  24
ATOM     20  C   LIG    1       -2.293  13.254  -2.298  0.00  0.00    +0.230 A 
ATOM     21  N   LIG    1       -2.909  14.396  -2.155  0.00  0.00    -0.480 NA
ATOM     22  C   LIG    1       -4.159  14.172  -1.722  0.00  0.00    +0.150 A 
ATOM     23  C   LIG    1       -4.325  12.842  -1.598  0.00  0.00    +0.120 A 
ATOM     24  N   LIG    1       -3.143  12.259  -1.967  0.00  0.00    -0.450 N 
BRANCH  20  26
ATOM     25  C   LIG    1       -0.710  13.672  -4.161  0.00  0.00    +0.040 C 
ATOM     26  C   LIG    1       -0.870  13.077  -2.761  0.00  0.00    +0.060 C 
ATOM     27  C   LIG    1        0.074  13.792  -1.792  0.00  0.00    +0.050 C 
ENDBRANCH  20  26
ENDBRANCH  19  24
ENDBRANCH   1  19
TORSDOF 6
