REMARK  Name = ZINCtV000002ra0P.0
REMARK                            x       y       z     vdW  Elec       q    Type
REMARK                         _______ _______ _______ _____ _____    ______ ____
ROOT
ATOM      1  C   LIG    1       -2.224   5.711   0.176  0.00  0.00    +0.180 A 
ATOM      2  N   LIG    1       -1.052   6.273   0.170  0.00  0.00    -0.370 NA
ATOM      3  O   LIG    1       -1.162   7.475   0.291  0.00  0.00    +0.080 OA
ATOM      4  C   LIG    1       -2.454   7.804   0.389  0.00  0.00    +0.180 A 
ATOM      5  N   LIG    1       -3.138   6.689   0.312  0.00  0.00    -0.470 NA
ENDROOT
BRANCH   1   7
ATOM      6  C   LIG    1       -3.275   3.976  -1.250  0.00  0.00    +0.060 C 
ATOM      7  C   LIG    1       -2.507   4.237   0.047  0.00  0.00    +0.070 C 
ATOM      8  C   LIG    1       -3.348   3.773   1.239  0.00  0.00    +0.060 C 
BRANCH   7   9
ATOM      9  C   LIG    1       -1.207   3.476   0.023  0.00  0.00    -0.080 A 
ATOM     10  C   LIG    1       -0.348   3.649  -1.019  0.00  0.00    +0.040 A 
ATOM     11  C   LIG    1        0.863   2.937  -1.047  0.00  0.00    -0.050 A 
ATOM     12  C   LIG    1        1.772   3.087  -2.108  0.00  0.00    +0.030 A 
ATOM     13  C   LIG    1        2.939   2.385  -2.099  0.00  0.00    +0.000 A 
ATOM     14  C   LIG    1        3.246   1.517  -1.052  0.00  0.00    +0.000 A 
ATOM     15  C   LIG    1        2.389   1.347  -0.009  0.00  0.00    +0.020 A 
ATOM     16  C   LIG    1        1.176   2.055   0.018  0.00  0.00    -0.050 A 
ATOM     17  C   LIG    1        0.266   1.907   1.079  0.00  0.00    +0.020 A 
ATOM     18  C   LIG    1       -0.899   2.609   1.070  0.00  0.00    +0.020 A 
ENDBRANCH   7   9
ENDBRANCH   1   7
BRANCH   4  19
ATOM     19  C   LIG    1       -3.016   9.193   0.552  0.00  0.00    +0.240 C 
BRANCH  19  20
ATOM     20  C   LIG    1       -3.131   9.519   2.019  0.00  0.00    -0.100 A 
ATOM     21  C   LIG    1       -4.282   9.224   2.683  0.00  0.00    +0.050 A 
ATOM     22  C   LIG    1       -4.391   9.523   4.052  0.00  0.00    -0.050 A 
ATOM     23  C   LIG    1       -5.561   9.229   4.772  0.00  0.00    +0.030 A 
ATOM     24  C   LIG    1       -5.633   9.539   6.095  0.00  0.00    +0.000 A 
ATOM     25  C   LIG    1       -4.563  10.144   6.750  0.00  0.00    +0.010 A 
ATOM     26  C   LIG    1       -3.413  10.443   6.085  0.00  0.00    +0.020 A 
ATOM     27  C   LIG    1       -3.301  10.138   4.718  0.00  0.00    -0.050 A 
ATOM     28  C   LIG    1       -2.131  10.433   3.997  0.00  0.00    +0.030 A 
ATOM     29  C   LIG    1       -2.060  10.124   2.674  0.00  0.00    +0.020 A 
ENDBRANCH  19  20
ENDBRANCH   4  19
TORSDOF 4
