REMARK  Name = ZINCnE000001PLwp.0
REMARK                            x       y       z     vdW  Elec       q    Type
REMARK                         _______ _______ _______ _____ _____    ______ ____
ROOT
ATOM      1  C   LIG    1       -8.965   7.191  -1.183  0.00  0.00    +0.080 C 
ATOM      2  C   LIG    1       -7.614   7.257  -0.519  0.00  0.00    -0.140 A 
ATOM      3  C   LIG    1       -7.209   8.424   0.104  0.00  0.00    +0.040 A 
ATOM      4  C   LIG    1       -5.972   8.495   0.716  0.00  0.00    -0.080 A 
ATOM      5  C   LIG    1       -5.133   7.393   0.714  0.00  0.00    +0.150 A 
ATOM      6  C   LIG    1       -5.537   6.214   0.080  0.00  0.00    -0.090 A 
ATOM      7  C   LIG    1       -6.785   6.154  -0.534  0.00  0.00    +0.050 A 
ENDROOT
BRANCH   6   8
ATOM      8  C   LIG    1       -4.642   5.031   0.066  0.00  0.00    -0.030 A 
ATOM      9  C   LIG    1       -5.127   3.782   0.452  0.00  0.00    +0.010 A 
ATOM     10  C   LIG    1       -4.290   2.685   0.438  0.00  0.00    +0.000 A 
ATOM     11  C   LIG    1       -2.972   2.823   0.041  0.00  0.00    -0.110 A 
ATOM     12  C   LIG    1       -2.484   4.060  -0.337  0.00  0.00    +0.020 A 
ATOM     13  C   LIG    1       -3.313   5.163  -0.332  0.00  0.00    +0.060 A 
BRANCH  11  14
ATOM     14  C   LIG    1       -2.063   1.621   0.029  0.00  0.00    +0.150 C 
ATOM     15  C   LIG    1       -0.959   1.695  -1.040  0.00  0.00    +0.040 C 
ATOM     16  C   LIG    1       -0.013   1.086   0.008  0.00  0.00    +0.010 C 
ATOM     17  C   LIG    1       -0.939   1.683   1.080  0.00  0.00    +0.010 C 
BRANCH  14  18
ATOM     18  O   LIG    1       -2.778   0.384   0.028  0.00  0.00    -0.540 OA
ATOM     19  H   LIG    1       -3.473   0.331   0.698  0.00  0.00    +0.380 HD
ENDBRANCH  14  18
ENDBRANCH  11  14
ENDBRANCH   6   8
BRANCH   5  20
ATOM     20  O   LIG    1       -3.919   7.459   1.321  0.00  0.00    -0.270 OA
BRANCH  20  21
ATOM     21  C   LIG    1       -3.574   8.695   1.948  0.00  0.00    +0.110 C 
BRANCH  21  22
ATOM     22  C   LIG    1       -2.202   8.581   2.563  0.00  0.00    +0.500 C 
ATOM     23  O   LIG    1       -1.717   9.532   3.151  0.00  0.00    -0.690 OA
ATOM     24  O   LIG    1       -1.578   7.538   2.472  0.00  0.00    -0.670 OA
ENDBRANCH  21  22
ENDBRANCH  20  21
ENDBRANCH   5  20
TORSDOF 6
