REMARK  Name = ZINCpk00000e9cuh.0
REMARK                            x       y       z     vdW  Elec       q    Type
REMARK                         _______ _______ _______ _____ _____    ______ ____
ROOT
ATOM      1  N   LIG    1       -6.477   2.914   0.007  0.00  0.00    -0.480 N 
ATOM      2  C   LIG    1       -5.717   2.635   1.233  0.00  0.00    +0.240 C 
ATOM      3  C   LIG    1       -4.427   3.459   1.229  0.00  0.00    +0.200 C 
ATOM      4  N   LIG    1       -3.638   3.124   0.035  0.00  0.00    -0.490 N 
ATOM      5  C   LIG    1       -4.399   3.404  -1.191  0.00  0.00    +0.210 C 
ATOM      6  C   LIG    1       -5.688   2.579  -1.187  0.00  0.00    +0.220 C 
ENDROOT
BRANCH   1  10
ATOM      7  C   LIG    1      -10.056   0.901   0.033  0.00  0.00    -0.260 A 
ATOM      8  C   LIG    1       -9.744   1.710  -1.074  0.00  0.00    +0.150 A 
ATOM      9  C   LIG    1       -8.553   2.383  -1.074  0.00  0.00    -0.060 A 
ATOM     10  C   LIG    1       -7.685   2.240   0.008  0.00  0.00    +0.350 A 
ATOM     11  N   LIG    1       -8.002   1.469   1.040  0.00  0.00    -0.530 NA
ATOM     12  C   LIG    1       -9.139   0.809   1.086  0.00  0.00    +0.350 A 
BRANCH   7  13
ATOM     13  C   LIG    1      -11.324   0.164   0.083  0.00  0.00    +0.400 C 
ATOM     14  O   LIG    1      -12.113   0.250  -0.835  0.00  0.00    -0.450 OA
BRANCH  13  16
ATOM     15  C   LIG    1      -13.017  -1.353   1.075  0.00  0.00    +0.030 C 
ATOM     16  C   LIG    1      -11.647  -0.701   1.274  0.00  0.00    +0.030 C 
ENDBRANCH  13  16
ENDBRANCH   7  13
ENDBRANCH   1  10
BRANCH   4  17
ATOM     17  C   LIG    1       -2.429   3.800   0.034  0.00  0.00    +0.200 A 
ATOM     18  C   LIG    1       -2.387   5.194   0.042  0.00  0.00    -0.070 A 
ATOM     19  C   LIG    1       -1.164   5.829   0.040  0.00  0.00    +0.290 A 
ATOM     20  N   LIG    1       -0.035   5.142   0.032  0.00  0.00    -0.490 NA
ATOM     21  C   LIG    1       -0.017   3.825   0.029  0.00  0.00    +0.300 A 
ATOM     22  C   LIG    1       -1.207   3.098   0.025  0.00  0.00    -0.170 A 
BRANCH  22  23
ATOM     23  C   LIG    1       -1.187   1.624   0.017  0.00  0.00    +0.560 C 
ATOM     24  O   LIG    1       -2.232   1.002   0.018  0.00  0.00    -0.500 OA
ATOM     25  N   LIG    1       -0.011   0.966   0.007  0.00  0.00    -0.860 N 
ATOM     26  H   LIG    1        0.822   1.462   0.002  0.00  0.00    +0.400 HD
ATOM     27  H   LIG    1        0.002  -0.004   0.002  0.00  0.00    +0.410 HD
ENDBRANCH  22  23
ENDBRANCH   4  17
TORSDOF 5
