REMARK  Name = ZINCbw0000000HbR.0
REMARK                            x       y       z     vdW  Elec       q    Type
REMARK                         _______ _______ _______ _____ _____    ______ ____
ROOT
ATOM      1  C   LIG    1       -2.392   0.058  -1.236  0.00  0.00    +0.040 C 
ATOM      2  C   LIG    1       -2.479   0.929   0.019  0.00  0.00    -0.020 C 
ATOM      3  C   LIG    1       -2.380   0.044   1.263  0.00  0.00    +0.030 C 
ENDROOT
BRANCH   2   4
ATOM      4  C   LIG    1       -3.814   1.676   0.029  0.00  0.00    -0.050 C 
ATOM      5  C   LIG    1       -4.665   1.585   1.298  0.00  0.00    +0.010 C 
ATOM      6  C   LIG    1       -5.093   0.837   0.033  0.00  0.00    +0.000 C 
ENDBRANCH   2   4
BRANCH   2   7
ATOM      7  C   LIG    1       -1.329   1.939   0.019  0.00  0.00    +0.050 C 
BRANCH   7   8
ATOM      8  C   LIG    1       -0.014   1.203   0.009  0.00  0.00    +0.340 C 
ATOM      9  O   LIG    1        0.002  -0.004   0.002  0.00  0.00    -0.410 OA
BRANCH   8  10
ATOM     10  C   LIG    1        1.280   1.975   0.000  0.00  0.00    +0.160 C 
ATOM     11 CL   LIG    1        2.667   0.822  -0.019  0.00  0.00    -0.150 Cl
ENDBRANCH   8  10
ENDBRANCH   7   8
ENDBRANCH   2   7
TORSDOF 4
