REMARK  Name = ZINCpk000000om7w.0
REMARK                            x       y       z     vdW  Elec       q    Type
REMARK                         _______ _______ _______ _____ _____    ______ ____
ROOT
ATOM      1  C   LIG    1       -2.449   0.876  -0.093  0.00  0.00    -0.280 A 
ATOM      2  C   LIG    1       -3.666   1.548  -0.189  0.00  0.00    +0.220 A 
ATOM      3  C   LIG    1       -4.842   0.805  -0.291  0.00  0.00    -0.080 A 
ATOM      4  C   LIG    1       -4.792  -0.551  -0.297  0.00  0.00    +0.340 A 
ATOM      5  N   LIG    1       -3.613  -1.211  -0.204  0.00  0.00    -0.480 N 
ATOM      6  C   LIG    1       -2.449  -0.543  -0.108  0.00  0.00    +0.530 A 
ATOM      7  O   LIG    1       -1.397  -1.155  -0.030  0.00  0.00    -0.530 OA
ENDROOT
BRANCH   1  10
ATOM      8  N   LIG    1       -0.011   0.967  -0.009  0.00  0.00    -0.710 N 
ATOM      9  H   LIG    1        0.004  -0.003  -0.028  0.00  0.00    +0.430 HD
ATOM     10  C   LIG    1       -1.187   1.624   0.017  0.00  0.00    +0.580 C 
ATOM     11  O   LIG    1       -1.206   2.835   0.130  0.00  0.00    -0.550 OA
BRANCH   8  12
ATOM     12  C   LIG    1        1.247   1.718  -0.013  0.00  0.00    +0.300 C 
BRANCH  12  15
ATOM     13  N   LIG    1        3.671   1.224  -0.059  0.00  0.00    -0.730 N 
ATOM     14  H   LIG    1        3.834   2.180  -0.042  0.00  0.00    +0.400 HD
ATOM     15  C   LIG    1        2.407   0.756  -0.049  0.00  0.00    +0.510 C 
ATOM     16  O   LIG    1        2.202  -0.439  -0.070  0.00  0.00    -0.530 OA
BRANCH  13  17
ATOM     17  C   LIG    1        4.798   0.289  -0.095  0.00  0.00    +0.260 C 
BRANCH  17  19
ATOM     18  C   LIG    1        7.288   0.096  -0.136  0.00  0.00    +0.030 C 
ATOM     19  C   LIG    1        6.111   1.073  -0.099  0.00  0.00    +0.000 C 
ENDBRANCH  17  19
ENDBRANCH  13  17
ENDBRANCH  12  15
ENDBRANCH   8  12
ENDBRANCH   1  10
BRANCH   5  20
ATOM     20  C   LIG    1       -3.605  -2.676  -0.213  0.00  0.00    +0.340 C 
BRANCH  20  21
ATOM     21  C   LIG    1       -3.485  -3.168  -1.633  0.00  0.00    -0.120 A 
ATOM     22  C   LIG    1       -2.236  -3.388  -2.185  0.00  0.00    +0.040 A 
ATOM     23  C   LIG    1       -2.126  -3.840  -3.487  0.00  0.00    +0.010 A 
ATOM     24  C   LIG    1       -3.264  -4.072  -4.236  0.00  0.00    +0.010 A 
ATOM     25  C   LIG    1       -4.512  -3.853  -3.684  0.00  0.00    -0.090 A 
ATOM     26  C   LIG    1       -5.753  -4.106  -4.502  0.00  0.00    +0.090 C 
ATOM     27  C   LIG    1       -4.623  -3.406  -2.381  0.00  0.00    +0.020 A 
ENDBRANCH  20  21
ENDBRANCH   5  20
TORSDOF 7
