REMARK  Name = ZINCrg00000T25O2.0
REMARK                            x       y       z     vdW  Elec       q    Type
REMARK                         _______ _______ _______ _____ _____    ______ ____
ROOT
ATOM      1  C   LIG    1       -3.655   6.438  -0.071  0.00  0.00    +0.040 C 
ATOM      2  C   LIG    1       -2.328   5.686   0.044  0.00  0.00    +0.230 C 
ENDROOT
BRANCH   2   3
ATOM      3  N   LIG    1       -1.468   6.036  -1.090  0.00  0.00    -0.710 N 
ATOM      4  H   LIG    1       -1.453   5.472  -1.879  0.00  0.00    +0.410 HD
ATOM      5  C   LIG    1       -0.698   7.141  -1.036  0.00  0.00    +0.580 C 
ATOM      6  O   LIG    1       -0.717   7.847  -0.047  0.00  0.00    -0.520 OA
BRANCH   5   7
ATOM      7  C   LIG    1        0.171   7.495  -2.183  0.00  0.00    +0.080 A 
ATOM      8  C   LIG    1        0.964   8.638  -2.121  0.00  0.00    +0.040 A 
ATOM      9  C   LIG    1        1.772   8.956  -3.201  0.00  0.00    +0.070 A 
ATOM     10  C   LIG    1        1.758   8.119  -4.306  0.00  0.00    +0.030 A 
ATOM     11  CA  LIG    1        0.944   6.998  -4.298  0.00  0.00    +0.120 A 
ATOM     12  N   LIG    1        0.191   6.717  -3.258  0.00  0.00    -0.460 NA
BRANCH  11  13
ATOM     13  C   LIG    1        0.926   6.084  -5.497  0.00  0.00    +0.270 C 
BRANCH  13  14
ATOM     14  O   LIG    1        1.822   6.586  -6.492  0.00  0.00    -0.570 OA
ATOM     15  H   LIG    1        1.861   6.046  -7.293  0.00  0.00    +0.390 HD
ENDBRANCH  13  14
ENDBRANCH  11  13
ENDBRANCH   5   7
ENDBRANCH   2   3
BRANCH   2  16
ATOM     16  C   LIG    1       -2.593   4.179   0.037  0.00  0.00    +0.280 C 
BRANCH  16  17
ATOM     17  N   LIG    1       -1.317   3.459   0.027  0.00  0.00    -0.720 N 
ATOM     18  H   LIG    1       -0.482   3.952   0.026  0.00  0.00    +0.400 HD
ATOM     19  C   LIG    1       -1.304   2.111   0.020  0.00  0.00    +0.570 C 
ATOM     20  O   LIG    1       -2.351   1.494   0.021  0.00  0.00    -0.520 OA
BRANCH  19  21
ATOM     21  C   LIG    1       -0.017   1.385   0.010  0.00  0.00    -0.180 A 
ATOM     22  C   LIG    1        0.002  -0.004   0.002  0.00  0.00    +0.190 A 
ATOM     23  C   LIG    1        1.254  -0.649  -0.013  0.00  0.00    +0.070 A 
ATOM     24  N   LIG    1        1.341  -1.982  -0.021  0.00  0.00    -0.460 NA
ATOM     25  C   LIG    1        2.502  -2.588  -0.035  0.00  0.00    +0.310 A 
ATOM     26  C   LIG    1        3.700  -1.874  -0.042  0.00  0.00    +0.000 A 
ATOM     27  C   LIG    1        3.680  -0.509  -0.035  0.00  0.00    +0.100 A 
ATOM     28  C   LIG    1        2.429   0.141  -0.020  0.00  0.00    +0.090 A 
ATOM     29  N   LIG    1        2.349   1.475  -0.012  0.00  0.00    -0.460 NA
ATOM     30  C   LIG    1        1.197   2.094   0.002  0.00  0.00    +0.320 A 
ENDBRANCH  19  21
ENDBRANCH  16  17
ENDBRANCH   2  16
TORSDOF 7
