REMARK  Name = ZINCrH000004jgT6.0
REMARK                            x       y       z     vdW  Elec       q    Type
REMARK                         _______ _______ _______ _____ _____    ______ ____
ROOT
ATOM      1  C   LIG    1       -0.730   1.580   1.266  0.00  0.00    +0.110 C 
ATOM      2  C   LIG    1       -0.013   1.086   0.008  0.00  0.00    +0.030 C 
ATOM      3  C   LIG    1       -0.755   1.594  -1.232  0.00  0.00    +0.290 C 
ATOM      4  N   LIG    1       -2.163   1.185  -1.141  0.00  0.00    -0.610 N 
ATOM      5  C   LIG    1       -2.923   1.530   0.068  0.00  0.00    +0.280 C 
ATOM      6  C   LIG    1       -2.747   0.505  -2.148  0.00  0.00    +0.520 C 
ATOM      7  O   LIG    1       -2.109   0.226  -3.141  0.00  0.00    -0.530 OA
ATOM      8  C   LIG    1       -2.156   1.023   1.294  0.00  0.00    +0.020 C 
ENDROOT
BRANCH   1  12
ATOM      9  C   LIG    1        0.742  -0.077   4.146  0.00  0.00    +0.180 A 
ATOM     10  N   LIG    1        1.345   1.081   4.138  0.00  0.00    -0.290 NA
ATOM     11  N   LIG    1        0.918   1.784   3.149  0.00  0.00    -0.290 NA
ATOM     12  C   LIG    1        0.017   1.111   2.488  0.00  0.00    +0.180 A 
ATOM     13  N   LIG    1       -0.118  -0.091   3.099  0.00  0.00    -0.580 N 
ATOM     14  H   LIG    1       -0.710  -0.815   2.840  0.00  0.00    +0.430 HD
BRANCH   9  16
ATOM     15  C   LIG    1        2.448  -1.554   5.174  0.00  0.00    +0.040 C 
ATOM     16  C   LIG    1        0.962  -1.192   5.136  0.00  0.00    +0.140 C 
ENDBRANCH   9  16
ENDBRANCH   1  12
BRANCH   6  17
ATOM     17  C   LIG    1       -4.192   0.092  -2.040  0.00  0.00    +0.040 C 
BRANCH  17  18
ATOM     18  C   LIG    1       -4.604  -0.659  -3.308  0.00  0.00    +0.330 C 
BRANCH  18  19
ATOM     19  N   LIG    1       -6.010  -1.060  -3.203  0.00  0.00    -0.480 N 
ATOM     20  C   LIG    1       -6.447  -2.282  -2.770  0.00  0.00    +0.230 A 
ATOM     21  C   LIG    1       -7.789  -2.321  -2.791  0.00  0.00    -0.050 A 
ATOM     22  C   LIG    1       -8.248  -1.021  -3.286  0.00  0.00    -0.100 A 
ATOM     23  C   LIG    1       -9.505  -0.465  -3.531  0.00  0.00    +0.070 A 
ATOM     24  C   LIG    1       -9.599   0.823  -4.011  0.00  0.00    -0.060 A 
ATOM     25  C   LIG    1       -8.451   1.568  -4.251  0.00  0.00    +0.050 A 
ATOM     26  C   LIG    1       -7.204   1.033  -4.014  0.00  0.00    +0.010 A 
ATOM     27 CL   LIG    1      -11.159   1.519  -4.317  0.00  0.00    -0.070 Cl
ATOM     28  C   LIG    1       -7.086  -0.265  -3.530  0.00  0.00    +0.100 A 
ENDBRANCH  18  19
ENDBRANCH  17  18
ENDBRANCH   6  17
TORSDOF 5
