REMARK  Name = ZINCkj00000ORrrZ.0
REMARK                            x       y       z     vdW  Elec       q    Type
REMARK                         _______ _______ _______ _____ _____    ______ ____
ROOT
ATOM      1  C   LIG    1        2.500   1.352  -0.014  0.00  0.00    +0.160 C 
ENDROOT
BRANCH   1   6
ATOM      2  C   LIG    1       -0.714   3.033   0.024  0.00  0.00    +0.310 A 
ATOM      3  N   LIG    1       -1.148   1.790   0.017  0.00  0.00    -0.280 NA
ATOM      4  N   LIG    1       -0.011   0.966   0.007  0.00  0.00    -0.470 N 
ATOM      5  H   LIG    1        0.002  -0.004   0.002  0.00  0.00    +0.450 HD
ATOM      6  C   LIG    1        1.056   1.785   0.002  0.00  0.00    +0.280 A 
ATOM      7  N   LIG    1        0.627   3.019   0.012  0.00  0.00    -0.520 NA
BRANCH   2  11
ATOM      8  C   LIG    1       -3.308   5.619   0.060  0.00  0.00    -0.060 A 
ATOM      9  C   LIG    1       -2.176   6.351   0.053  0.00  0.00    +0.200 A 
ATOM     10  O   LIG    1       -1.124   5.517   0.045  0.00  0.00    -0.160 OA
ATOM     11  C   LIG    1       -1.563   4.243   0.038  0.00  0.00    +0.040 A 
ATOM     12  C   LIG    1       -2.922   4.264   0.050  0.00  0.00    +0.020 A 
ENDBRANCH   2  11
ENDBRANCH   1   6
BRANCH   1  13
ATOM     13  C   LIG    1        3.215   2.005  -1.199  0.00  0.00    +0.220 C 
BRANCH  13  14
ATOM     14  N   LIG    1        4.622   1.583  -1.214  0.00  0.00    -0.710 NA
ATOM     15  H   LIG    1        4.698   0.577  -1.237  0.00  0.00    +0.350 HD
BRANCH  14  16
ATOM     16  C   LIG    1        5.341   2.191  -2.341  0.00  0.00    +0.210 C 
BRANCH  16  17
ATOM     17  C   LIG    1        6.800   1.730  -2.324  0.00  0.00    +0.180 C 
ATOM     18  C   LIG    1        7.578   2.459  -3.421  0.00  0.00    +0.060 C 
ATOM     19  C   LIG    1        9.037   1.994  -3.400  0.00  0.00    +0.040 C 
ATOM     20  C   LIG    1        9.623   2.246  -2.008  0.00  0.00    +0.050 C 
ATOM     21  C   LIG    1        8.769   1.525  -0.963  0.00  0.00    +0.250 C 
ATOM     22  N   LIG    1        7.393   2.032  -1.016  0.00  0.00    -0.500 N 
ATOM     23  H   LIG    1        6.845   1.594  -0.290  0.00  0.00    +0.440 HD
ATOM     24  H   LIG    1        7.398   3.031  -0.873  0.00  0.00    +0.430 HD
ENDBRANCH  16  17
ENDBRANCH  14  16
ENDBRANCH  13  14
ENDBRANCH   1  13
TORSDOF 6
