REMARK  Name = ZINCkj00000ORrrZ.1
REMARK                            x       y       z     vdW  Elec       q    Type
REMARK                         _______ _______ _______ _____ _____    ______ ____
ROOT
ATOM      1  C   LIG    1        2.500   1.353  -0.015  0.00  0.00    +0.180 C 
ENDROOT
BRANCH   1   6
ATOM      2  C   LIG    1       -0.714   3.033   0.025  0.00  0.00    +0.320 A 
ATOM      3  N   LIG    1       -1.148   1.790   0.017  0.00  0.00    -0.260 NA
ATOM      4  N   LIG    1       -0.011   0.966   0.007  0.00  0.00    -0.460 N 
ATOM      5  H   LIG    1        0.002  -0.004   0.002  0.00  0.00    +0.450 HD
ATOM      6  C   LIG    1        1.056   1.785   0.002  0.00  0.00    +0.270 A 
ATOM      7  N   LIG    1        0.627   3.019   0.012  0.00  0.00    -0.510 NA
BRANCH   2  11
ATOM      8  C   LIG    1       -3.307   5.619   0.066  0.00  0.00    -0.060 A 
ATOM      9  C   LIG    1       -2.176   6.351   0.060  0.00  0.00    +0.220 A 
ATOM     10  O   LIG    1       -1.124   5.517   0.050  0.00  0.00    -0.160 OA
ATOM     11  C   LIG    1       -1.563   4.243   0.041  0.00  0.00    +0.030 A 
ATOM     12  C   LIG    1       -2.922   4.264   0.054  0.00  0.00    +0.030 A 
ENDBRANCH   2  11
ENDBRANCH   1   6
BRANCH   1  13
ATOM     13  C   LIG    1        3.214   2.005  -1.200  0.00  0.00    +0.290 C 
BRANCH  13  14
ATOM     14  N   LIG    1        4.622   1.584  -1.215  0.00  0.00    -0.510 N 
ATOM     15  H   LIG    1        4.671   0.580  -1.304  0.00  0.00    +0.430 HD
ATOM     16  H   LIG    1        5.067   1.868  -0.356  0.00  0.00    +0.430 HD
BRANCH  14  17
ATOM     17  C   LIG    1        5.308   2.210  -2.353  0.00  0.00    +0.280 C 
BRANCH  17  18
ATOM     18  C   LIG    1        6.773   1.771  -2.369  0.00  0.00    +0.130 C 
ATOM     19  C   LIG    1        7.517   2.518  -3.479  0.00  0.00    +0.050 C 
ATOM     20  C   LIG    1        8.987   2.091  -3.478  0.00  0.00    +0.010 C 
ATOM     21  C   LIG    1        9.593   2.376  -2.101  0.00  0.00    +0.040 C 
ATOM     22  C   LIG    1        8.789   1.633  -1.032  0.00  0.00    +0.190 C 
ATOM     23  N   LIG    1        7.390   2.078  -1.073  0.00  0.00    -0.690 NA
ATOM     24  H   LIG    1        6.860   1.673  -0.315  0.00  0.00    +0.330 HD
ENDBRANCH  17  18
ENDBRANCH  14  17
ENDBRANCH  13  14
ENDBRANCH   1  13
TORSDOF 6
