REMARK  Name = ZINCrH000004sQfe.0
REMARK                            x       y       z     vdW  Elec       q    Type
REMARK                         _______ _______ _______ _____ _____    ______ ____
ROOT
ATOM      1  C   LIG    1       -3.444  -0.544   2.744  0.00  0.00    +0.570 C 
ATOM      2  N   LIG    1       -2.665   0.218   1.951  0.00  0.00    -0.590 N 
ATOM      3  C   LIG    1       -3.263   1.281   1.139  0.00  0.00    +0.290 C 
ATOM      4  O   LIG    1       -2.961  -1.477   3.355  0.00  0.00    -0.520 OA
ENDROOT
BRANCH   1  12
ATOM      5  C   LIG    1       -7.245   3.897   2.778  0.00  0.00    +0.190 C 
ATOM      6  C   LIG    1       -7.613   2.445   2.937  0.00  0.00    +0.070 A 
ATOM      7  N   LIG    1       -8.802   1.945   3.103  0.00  0.00    -0.310 NA
ATOM      8  O   LIG    1       -8.809   0.741   3.204  0.00  0.00    +0.090 OA
ATOM      9  C   LIG    1       -7.582   0.197   3.119  0.00  0.00    +0.230 A 
ATOM     10  N   LIG    1       -7.099  -1.034   3.170  0.00  0.00    -0.460 NA
ATOM     11  C   LIG    1       -5.812  -1.278   3.049  0.00  0.00    +0.410 A 
ATOM     12  C   LIG    1       -4.885  -0.244   2.871  0.00  0.00    -0.200 A 
ATOM     13  C   LIG    1       -5.344   1.076   2.811  0.00  0.00    +0.190 A 
ATOM     14  C   LIG    1       -6.708   1.291   2.937  0.00  0.00    -0.230 A 
ENDBRANCH   1  12
BRANCH   2  15
ATOM     15  C   LIG    1       -1.220  -0.017   1.900  0.00  0.00    +0.360 C 
BRANCH  15  16
ATOM     16  C   LIG    1       -0.926  -1.131   0.928  0.00  0.00    -0.090 A 
ATOM     17  C   LIG    1       -0.739  -2.419   1.389  0.00  0.00    +0.050 A 
ATOM     18  C   LIG    1       -0.470  -3.442   0.497  0.00  0.00    +0.000 A 
ATOM     19  C   LIG    1       -0.386  -3.178  -0.858  0.00  0.00    +0.020 A 
ATOM     20  C   LIG    1       -0.577  -1.892  -1.325  0.00  0.00    -0.030 A 
ATOM     21  C   LIG    1       -0.842  -0.862  -0.432  0.00  0.00    +0.100 A 
BRANCH  21  22
ATOM     22  N   LIG    1       -1.031   0.440  -0.902  0.00  0.00    -0.500 N 
ATOM     23  C   LIG    1       -2.172   0.507  -1.823  0.00  0.00    +0.180 C 
ATOM     24  C   LIG    1       -2.439   1.966  -2.202  0.00  0.00    +0.020 C 
ATOM     25  C   LIG    1       -1.189   2.552  -2.864  0.00  0.00    +0.010 C 
ATOM     26  C   LIG    1       -0.004   2.426  -1.903  0.00  0.00    +0.020 C 
ATOM     27  C   LIG    1        0.192   0.954  -1.533  0.00  0.00    +0.180 C 
ENDBRANCH  21  22
ENDBRANCH  15  16
ENDBRANCH   2  15
TORSDOF 4
