REMARK  Name = ZINCqH0000007pEc.0
REMARK                            x       y       z     vdW  Elec       q    Type
REMARK                         _______ _______ _______ _____ _____    ______ ____
ROOT
ATOM      1  N   LIG    1       -1.965   1.881  -6.144  0.00  0.00    -0.720 N 
ATOM      2  H   LIG    1       -2.500   1.072  -6.166  0.00  0.00    +0.410 HD
ATOM      3  C   LIG    1       -1.034   2.047  -5.183  0.00  0.00    +0.600 C 
ATOM      4  O   LIG    1       -0.364   3.061  -5.154  0.00  0.00    -0.540 OA
ENDROOT
BRANCH   3   5
ATOM      5  C   LIG    1       -0.829   0.999  -4.167  0.00  0.00    -0.310 A 
ATOM      6  C   LIG    1        0.081   1.030  -3.130  0.00  0.00    +0.170 A 
ATOM      7  N   LIG    1       -0.055  -0.114  -2.441  0.00  0.00    -0.350 N 
ATOM      8  N   LIG    1       -1.056  -0.881  -3.047  0.00  0.00    -0.290 NA
ATOM      9  C   LIG    1        1.050   2.144  -2.826  0.00  0.00    +0.160 C 
ATOM     10  C   LIG    1       -1.527  -0.226  -4.072  0.00  0.00    +0.270 A 
BRANCH   7  11
ATOM     11  C   LIG    1        0.718  -0.497  -1.257  0.00  0.00    +0.330 C 
BRANCH  11  12
ATOM     12  C   LIG    1        0.002  -0.004   0.002  0.00  0.00    -0.030 C 
ATOM     13  C   LIG    1        0.742  -0.511   1.242  0.00  0.00    +0.040 C 
ATOM     14  C   LIG    1       -0.019   1.526   0.010  0.00  0.00    +0.020 C 
ENDBRANCH  11  12
ENDBRANCH   7  11
ENDBRANCH   3   5
BRANCH   1  15
ATOM     15  C   LIG    1       -2.169   2.923  -7.154  0.00  0.00    +0.280 C 
BRANCH  15  19
ATOM     16  C   LIG    1       -6.149   2.656  -8.690  0.00  0.00    +0.110 A 
ATOM     17  C   LIG    1       -5.425   1.502  -8.433  0.00  0.00    -0.040 A 
ATOM     18  C   LIG    1       -4.136   1.592  -7.942  0.00  0.00    +0.060 A 
ATOM     19  C   LIG    1       -3.572   2.829  -7.695  0.00  0.00    -0.120 A 
ATOM     20  C   LIG    1       -4.292   3.983  -7.950  0.00  0.00    +0.060 A 
ATOM     21  C   LIG    1       -5.580   3.900  -8.447  0.00  0.00    +0.070 A 
ATOM     22  F   LIG    1       -6.283   5.026  -8.695  0.00  0.00    -0.130 F 
BRANCH  16  24
ATOM     23  C   LIG    1       -7.936   1.259  -9.404  0.00  0.00    +0.250 C 
ATOM     24  O   LIG    1       -7.415   2.570  -9.179  0.00  0.00    -0.310 OA
ENDBRANCH  16  24
ENDBRANCH  15  19
BRANCH  15  25
ATOM     25  C   LIG    1       -1.168   2.729  -8.295  0.00  0.00    +0.370 C 
ATOM     26  F   LIG    1       -1.286   3.788  -9.202  0.00  0.00    -0.190 F 
ATOM     27  F   LIG    1       -1.434   1.522  -8.949  0.00  0.00    -0.200 F 
ENDBRANCH  15  25
ENDBRANCH   1  15
TORSDOF 7
