REMARK  Name = ZINCAx0000000fmk.0
REMARK                            x       y       z     vdW  Elec       q    Type
REMARK                         _______ _______ _______ _____ _____    ______ ____
ROOT
ATOM      1  C   LIG    1       -7.285   1.143   2.701  0.00  0.00    +0.340 C 
ATOM      2  C   LIG    1       -6.322   1.388   3.839  0.00  0.00    -0.220 C 
ATOM      3  C   LIG    1       -7.068   1.545   4.957  0.00  0.00    +0.100 C 
ATOM      4  C   LIG    1       -8.498   1.409   4.608  0.00  0.00    +0.520 C 
ATOM      5  O   LIG    1       -9.419   1.498   5.396  0.00  0.00    -0.500 OA
ATOM      6  N   LIG    1       -8.629   1.170   3.291  0.00  0.00    -0.590 N 
ENDROOT
BRANCH   1  10
ATOM      7  C   LIG    1       -6.539  -2.678   0.939  0.00  0.00    +0.140 A 
ATOM      8  C   LIG    1       -6.010  -1.532   0.363  0.00  0.00    -0.010 A 
ATOM      9  C   LIG    1       -6.253  -0.298   0.935  0.00  0.00    +0.070 A 
ATOM     10  C   LIG    1       -7.022  -0.204   2.080  0.00  0.00    -0.140 A 
ATOM     11  C   LIG    1       -7.545  -1.345   2.659  0.00  0.00    +0.070 A 
ATOM     12  C   LIG    1       -7.310  -2.581   2.088  0.00  0.00    -0.080 A 
BRANCH   7  13
ATOM     13  O   LIG    1       -6.302  -3.893   0.378  0.00  0.00    -0.310 OA
BRANCH  13  15
ATOM     14  C   LIG    1       -6.505  -6.298   0.256  0.00  0.00    +0.070 C 
ATOM     15  C   LIG    1       -6.878  -5.029   1.025  0.00  0.00    +0.170 C 
ENDBRANCH  13  15
ENDBRANCH   7  13
ENDBRANCH   1  10
BRANCH   3  16
ATOM     16  O   LIG    1       -6.583   1.789   6.196  0.00  0.00    -0.430 OA
ATOM     17  H   LIG    1       -7.266   1.872   6.876  0.00  0.00    +0.410 HD
ENDBRANCH   3  16
BRANCH   2  18
ATOM     18  C   LIG    1       -4.859   1.450   3.748  0.00  0.00    +0.480 C 
ATOM     19  O   LIG    1       -4.180   0.593   4.284  0.00  0.00    -0.420 OA
BRANCH  18  20
ATOM     20  C   LIG    1       -4.212   2.550   3.009  0.00  0.00    -0.160 A 
ATOM     21  C   LIG    1       -4.990   3.489   2.326  0.00  0.00    +0.070 A 
ATOM     22  C   LIG    1       -4.382   4.514   1.635  0.00  0.00    +0.020 A 
ATOM     23  C   LIG    1       -2.996   4.620   1.613  0.00  0.00    +0.090 A 
ATOM     24  O   LIG    1       -2.418   5.638   0.923  0.00  0.00    -0.300 OA
ATOM     25  C   LIG    1       -1.052   5.934   1.233  0.00  0.00    +0.230 C 
ATOM     26  C   LIG    1       -0.273   4.612   1.278  0.00  0.00    +0.230 C 
ATOM     27  O   LIG    1       -0.855   3.782   2.289  0.00  0.00    -0.300 OA
ATOM     28  C   LIG    1       -2.215   3.688   2.294  0.00  0.00    +0.040 A 
ATOM     29  C   LIG    1       -2.818   2.656   2.988  0.00  0.00    +0.100 A 
ENDBRANCH  18  20
ENDBRANCH   2  18
BRANCH   6  30
ATOM     30  C   LIG    1       -9.890   0.978   2.571  0.00  0.00    +0.330 C 
BRANCH  30  31
ATOM     31  C   LIG    1      -10.404   2.329   2.071  0.00  0.00    +0.160 C 
BRANCH  31  32
ATOM     32  N   LIG    1      -11.669   2.136   1.349  0.00  0.00    -0.530 NA
ATOM     33  C   LIG    1      -11.457   1.371   0.112  0.00  0.00    +0.150 C 
ATOM     34  C   LIG    1      -12.805   1.142  -0.577  0.00  0.00    +0.220 C 
ATOM     35  O   LIG    1      -13.431   2.405  -0.821  0.00  0.00    -0.380 OA
ATOM     36  C   LIG    1      -13.653   3.176   0.363  0.00  0.00    +0.220 C 
ATOM     37  C   LIG    1      -12.313   3.426   1.061  0.00  0.00    +0.160 C 
ENDBRANCH  31  32
ENDBRANCH  30  31
ENDBRANCH   6  30
TORSDOF 9
