REMARK  Name = ZINCqH0000050KhC.0
REMARK                            x       y       z     vdW  Elec       q    Type
REMARK                         _______ _______ _______ _____ _____    ______ ____
ROOT
ATOM      1  C   LIG    1       -5.167   3.068  -2.519  0.00  0.00    +0.600 C 
ATOM      2  N   LIG    1       -4.596   2.087  -1.792  0.00  0.00    -0.600 N 
ATOM      3  C   LIG    1       -4.700   0.694  -2.231  0.00  0.00    +0.320 C 
ATOM      4  O   LIG    1       -4.990   4.232  -2.216  0.00  0.00    -0.520 OA
ENDROOT
BRANCH   1  12
ATOM      5  C   LIG    1       -9.493   0.930  -8.428  0.00  0.00    +0.180 C 
ATOM      6  C   LIG    1       -8.685   1.699  -7.414  0.00  0.00    +0.350 A 
ATOM      7  N   LIG    1       -8.560   3.007  -7.555  0.00  0.00    -0.530 NA
ATOM      8  C   LIG    1       -7.865   3.727  -6.699  0.00  0.00    +0.260 A 
ATOM      9  C   LIG    1       -7.240   3.082  -5.607  0.00  0.00    -0.210 A 
ATOM     10  C   LIG    1       -7.402   1.691  -5.501  0.00  0.00    +0.080 A 
ATOM     11  S   LIG    1       -6.538   1.107  -4.085  0.00  0.00    +0.220 S 
ATOM     12  C   LIG    1       -6.004   2.729  -3.680  0.00  0.00    -0.260 A 
ATOM     13  C   LIG    1       -6.456   3.615  -4.574  0.00  0.00    +0.030 A 
ATOM     14  C   LIG    1       -6.144   5.086  -4.478  0.00  0.00    +0.130 C 
ATOM     15  C   LIG    1       -7.738   5.217  -6.880  0.00  0.00    +0.160 C 
ATOM     16  N   LIG    1       -8.127   1.048  -6.420  0.00  0.00    -0.500 NA
ENDBRANCH   1  12
BRANCH   2  17
ATOM     17  C   LIG    1       -3.872   2.416  -0.561  0.00  0.00    +0.430 C 
BRANCH  17  18
ATOM     18  C   LIG    1       -2.423   2.674  -0.885  0.00  0.00    +0.260 A 
ATOM     19  N   LIG    1       -1.507   1.756  -0.988  0.00  0.00    -0.480 NA
ATOM     20  C   LIG    1       -0.315   2.332  -1.289  0.00  0.00    +0.040 A 
ATOM     21  C   LIG    1        0.970   1.829  -1.508  0.00  0.00    +0.070 A 
ATOM     22  C   LIG    1        1.994   2.683  -1.806  0.00  0.00    +0.000 A 
ATOM     23  C   LIG    1        1.772   4.051  -1.890  0.00  0.00    +0.030 A 
ATOM     24  C   LIG    1        0.514   4.570  -1.672  0.00  0.00    +0.010 A 
ATOM     25  C   LIG    1       -0.538   3.717  -1.368  0.00  0.00    +0.050 A 
ATOM     26  N   LIG    1       -1.880   3.902  -1.102  0.00  0.00    -0.580 N 
ATOM     27  H   LIG    1       -2.351   4.750  -1.083  0.00  0.00    +0.430 HD
ENDBRANCH  17  18
ENDBRANCH   2  17
TORSDOF 3
