REMARK  Name = ZINCtj00001n1kgE.0
REMARK                            x       y       z     vdW  Elec       q    Type
REMARK                         _______ _______ _______ _____ _____    ______ ____
ROOT
ATOM      1  C   LIG    1        1.120  -0.854   2.099  0.00  0.00    +0.430 A 
ATOM      2  N   LIG    1        0.748  -1.245   3.301  0.00  0.00    -0.510 NA
ATOM      3  C   LIG    1       -0.579  -1.177   3.413  0.00  0.00    +0.340 A 
ATOM      4  C   LIG    1       -1.078  -0.706   2.203  0.00  0.00    -0.130 A 
ATOM      5  C   LIG    1       -2.466  -0.538   2.051  0.00  0.00    +0.600 A 
ATOM      6  N   LIG    1       -3.284  -0.838   3.081  0.00  0.00    -0.650 N 
ATOM      7  H   LIG    1       -4.241  -0.724   2.979  0.00  0.00    +0.440 HD
ATOM      8  C   LIG    1       -2.791  -1.293   4.246  0.00  0.00    +0.710 A 
ATOM      9  O   LIG    1       -3.559  -1.554   5.152  0.00  0.00    -0.520 OA
ATOM     10  O   LIG    1       -2.925  -0.127   1.000  0.00  0.00    -0.500 OA
ATOM     11  N   LIG    1       -1.470  -1.468   4.434  0.00  0.00    -0.510 N 
ATOM     12  C   LIG    1       -0.973  -1.966   5.718  0.00  0.00    +0.350 C 
ATOM     13  N   LIG    1        0.022  -0.502   1.380  0.00  0.00    -0.370 N 
ENDROOT
BRANCH   1  17
ATOM     14  N   LIG    1        5.228  -1.280   1.837  0.00  0.00    -0.390 N 
ATOM     15  C   LIG    1        4.678   0.075   1.972  0.00  0.00    +0.280 C 
ATOM     16  C   LIG    1        3.260  -0.003   2.543  0.00  0.00    +0.260 C 
ATOM     17  N   LIG    1        2.418  -0.805   1.645  0.00  0.00    -0.460 N 
ATOM     18  C   LIG    1        2.969  -2.158   1.480  0.00  0.00    +0.240 C 
ATOM     19  C   LIG    1        4.389  -2.061   0.918  0.00  0.00    +0.280 C 
ATOM     20  H   LIG    1        5.243  -1.728   2.741  0.00  0.00    +0.420 HD
BRANCH  14  21
ATOM     21  C   LIG    1        6.595  -1.203   1.306  0.00  0.00    +0.250 C 
BRANCH  21  22
ATOM     22  C   LIG    1        7.213  -2.603   1.282  0.00  0.00    +0.030 C 
BRANCH  22  24
ATOM     23  C   LIG    1        9.255  -3.922   0.706  0.00  0.00    +0.030 C 
ATOM     24  C   LIG    1        8.637  -2.522   0.729  0.00  0.00    +0.020 C 
ENDBRANCH  22  24
ENDBRANCH  21  22
ENDBRANCH  14  21
ENDBRANCH   1  17
BRANCH  13  25
ATOM     25  C   LIG    1        0.002  -0.010   0.000  0.00  0.00    +0.380 C 
BRANCH  25  26
ATOM     26  C   LIG    1        0.231   1.480  -0.005  0.00  0.00    -0.120 A 
ATOM     27  C   LIG    1       -0.844   2.345   0.069  0.00  0.00    +0.040 A 
ATOM     28  C   LIG    1       -0.633   3.711   0.070  0.00  0.00    +0.010 A 
ATOM     29  C   LIG    1        0.653   4.212  -0.015  0.00  0.00    +0.030 A 
ATOM     30  C   LIG    1        1.728   3.346  -0.095  0.00  0.00    -0.010 A 
ATOM     31  C   LIG    1        1.517   1.980  -0.090  0.00  0.00    +0.020 A 
ENDBRANCH  25  26
ENDBRANCH  13  25
TORSDOF 6
