REMARK  Name = ZINCpe000000UIjq.0
REMARK                            x       y       z     vdW  Elec       q    Type
REMARK                         _______ _______ _______ _____ _____    ______ ____
ROOT
ATOM      1  C   LIG    1        0.002  -0.004   0.002  0.00  0.00    +0.530 C 
ATOM      2  N   LIG    1       -1.156  -0.694   0.009  0.00  0.00    -0.720 N 
ATOM      3  H   LIG    1       -2.002  -0.220   0.020  0.00  0.00    +0.410 HD
ATOM      4  O   LIG    1        1.060  -0.596  -0.011  0.00  0.00    -0.520 OA
ENDROOT
BRANCH   1   7
ATOM      5  N   LIG    1        1.351   3.281  -0.834  0.00  0.00    -0.610 N 
ATOM      6  C   LIG    1        1.416   2.075  -0.000  0.00  0.00    +0.310 C 
ATOM      7  C   LIG    1       -0.018   1.503   0.010  0.00  0.00    +0.000 C 
ATOM      8  C   LIG    1       -0.588   2.056  -1.317  0.00  0.00    +0.080 C 
ATOM      9  C   LIG    1        0.238   3.294  -1.588  0.00  0.00    +0.520 C 
ATOM     10  O   LIG    1       -0.061   4.170  -2.371  0.00  0.00    -0.520 OA
BRANCH   5  14
ATOM     11  C   LIG    1        2.466   6.742  -3.118  0.00  0.00    +0.170 C 
ATOM     12  N   LIG    1        2.915   6.001  -1.932  0.00  0.00    -0.480 NA
ATOM     13  C   LIG    1        3.021   4.553  -2.220  0.00  0.00    +0.160 C 
ATOM     14  C   LIG    1        2.368   4.336  -0.844  0.00  0.00    +0.250 C 
ATOM     15  C   LIG    1        1.789   5.753  -1.004  0.00  0.00    +0.170 C 
ENDBRANCH   5  14
ENDBRANCH   1   7
BRANCH   2  16
ATOM     16  C   LIG    1       -1.136  -2.159   0.001  0.00  0.00    +0.330 C 
BRANCH  16  17
ATOM     17  C   LIG    1       -2.550  -2.680   0.012  0.00  0.00    -0.010 A 
ATOM     18  C   LIG    1       -3.131  -3.132   1.187  0.00  0.00    +0.000 A 
ATOM     19  C   LIG    1       -4.431  -3.599   1.159  0.00  0.00    +0.310 A 
ATOM     20  N   LIG    1       -5.114  -3.628   0.031  0.00  0.00    -0.470 NA
ATOM     21  C   LIG    1       -4.591  -3.211  -1.106  0.00  0.00    +0.330 A 
ATOM     22  C   LIG    1       -3.299  -2.726  -1.154  0.00  0.00    -0.230 A 
BRANCH  22  23
ATOM     23  C   LIG    1       -2.709  -2.252  -2.458  0.00  0.00    +0.510 C 
ATOM     24  F   LIG    1       -1.575  -3.013  -2.761  0.00  0.00    -0.170 F 
ATOM     25  F   LIG    1       -2.350  -0.905  -2.346  0.00  0.00    -0.170 F 
ATOM     26  F   LIG    1       -3.656  -2.399  -3.478  0.00  0.00    -0.170 F 
ENDBRANCH  22  23
ENDBRANCH  16  17
ENDBRANCH   2  16
TORSDOF 5
