REMARK  Name = ZINCtV00001bB3U5.0
REMARK                            x       y       z     vdW  Elec       q    Type
REMARK                         _______ _______ _______ _____ _____    ______ ____
ROOT
ATOM      1  N   LIG    1        0.160  -2.873   0.088  0.00  0.00    -0.580 N 
ATOM      2  H   LIG    1       -0.698  -2.428   0.172  0.00  0.00    +0.390 HD
ATOM      3  C   LIG    1        1.288  -2.145  -0.021  0.00  0.00    +0.580 C 
ATOM      4  O   LIG    1        2.364  -2.702  -0.126  0.00  0.00    -0.480 OA
ENDROOT
BRANCH   3   5
ATOM      5  C   LIG    1        1.219  -0.668  -0.013  0.00  0.00    -0.060 A 
ATOM      6  C   LIG    1        0.002  -0.004  -0.013  0.00  0.00    +0.010 A 
ATOM      7  C   LIG    1       -0.017   1.402  -0.004  0.00  0.00    +0.230 A 
ATOM      8  N   LIG    1        1.089   2.120   0.003  0.00  0.00    -0.440 NA
ATOM      9  C   LIG    1        2.302   1.562   0.003  0.00  0.00    +0.130 A 
ATOM     10  C   LIG    1        3.464   2.354   0.011  0.00  0.00    +0.050 A 
ATOM     11  C   LIG    1        4.688   1.757   0.010  0.00  0.00    +0.050 A 
ATOM     12  C   LIG    1        4.811   0.370   0.003  0.00  0.00    +0.020 A 
ATOM     13  C   LIG    1        3.705  -0.429  -0.006  0.00  0.00    +0.060 A 
ATOM     14  C   LIG    1        2.433   0.151  -0.005  0.00  0.00    -0.060 A 
BRANCH   7  15
ATOM     15  C   LIG    1       -1.318   2.097  -0.010  0.00  0.00    -0.170 A 
ATOM     16  C   LIG    1       -1.487   3.437   0.002  0.00  0.00    +0.070 A 
ATOM     17  C   LIG    1       -2.800   3.852  -0.009  0.00  0.00    +0.010 A 
ATOM     18  C   LIG    1       -3.706   2.868  -0.022  0.00  0.00    -0.020 A 
ATOM     19  S   LIG    1       -2.891   1.309  -0.026  0.00  0.00    +0.120 S 
ENDBRANCH   7  15
ENDBRANCH   3   5
BRANCH   1  21
ATOM     20  C   LIG    1       -0.862  -4.974   0.185  0.00  0.00    +0.150 C 
ATOM     21  N   LIG    1        0.226  -4.272   0.080  0.00  0.00    -0.220 NA
BRANCH  20  22
ATOM     22  C   LIG    1       -0.792  -6.447   0.177  0.00  0.00    -0.040 A 
ATOM     23  C   LIG    1        0.442  -7.090   0.057  0.00  0.00    +0.070 A 
ATOM     24  C   LIG    1        0.500  -8.469   0.050  0.00  0.00    +0.030 A 
ATOM     25  C   LIG    1       -0.660  -9.214   0.163  0.00  0.00    +0.050 A 
ATOM     26  C   LIG    1       -1.887  -8.583   0.283  0.00  0.00    -0.040 A 
ATOM     27 CL   LIG    1       -3.337  -9.528   0.424  0.00  0.00    -0.060 Cl
ATOM     28  C   LIG    1       -1.960  -7.205   0.296  0.00  0.00    +0.060 A 
ENDBRANCH  20  22
BRANCH  20  30
ATOM     29  C   LIG    1       -2.785  -4.048  -1.076  0.00  0.00    +0.050 C 
ATOM     30  C   LIG    1       -2.194  -4.283   0.315  0.00  0.00    +0.050 C 
ENDBRANCH  20  30
ENDBRANCH   1  21
TORSDOF 5
