REMARK  Name = ZINCAx00000009p1.0
REMARK                            x       y       z     vdW  Elec       q    Type
REMARK                         _______ _______ _______ _____ _____    ______ ____
ROOT
ATOM      1  C   LIG    1       -1.685  -1.333  -1.115  0.00  0.00    -0.120 A 
ATOM      2  C   LIG    1       -2.983  -1.850  -1.144  0.00  0.00    +0.200 A 
ATOM      3  C   LIG    1       -3.865  -1.548  -0.130  0.00  0.00    -0.690 A 
ATOM      4  C   LIG    1       -3.471  -0.739   0.924  0.00  0.00    +0.180 A 
ATOM      5  C   LIG    1       -2.191  -0.226   0.971  0.00  0.00    -0.040 A 
ATOM      6  C   LIG    1       -1.287  -0.519  -0.043  0.00  0.00    +0.210 A 
ENDROOT
BRANCH   6   7
ATOM      7  N   LIG    1        0.002  -0.004   0.002  0.00  0.00    -0.490 N 
ATOM      8  C   LIG    1       -0.018   1.466   0.010  0.00  0.00    +0.160 C 
ATOM      9  C   LIG    1        1.420   1.990  -0.001  0.00  0.00    +0.240 C 
ATOM     10  O   LIG    1        2.127   1.452   1.120  0.00  0.00    -0.380 OA
ATOM     11  C   LIG    1        2.167   0.023   1.143  0.00  0.00    +0.240 C 
ATOM     12  C   LIG    1        0.736  -0.521   1.166  0.00  0.00    +0.160 C 
ENDBRANCH   6   7
BRANCH   3  13
ATOM     13  S   LIG    1       -5.504  -2.194  -0.174  0.00  0.00    +2.690 S 
ATOM     14  O   LIG    1       -5.968  -2.203   1.170  0.00  0.00    -0.950 OA
ATOM     15  O   LIG    1       -5.455  -3.358  -0.987  0.00  0.00    -0.940 OA
BRANCH  13  16
ATOM     16  N   LIG    1       -6.442  -1.096  -0.985  0.00  0.00    -0.990 NA
ATOM     17  C   LIG    1       -7.130  -0.019  -0.260  0.00  0.00    +0.290 C 
ATOM     18  C   LIG    1       -6.753   1.323  -0.906  0.00  0.00    +0.010 C 
ATOM     19  C   LIG    1       -7.071   1.270  -2.402  0.00  0.00    +0.010 C 
ATOM     20  C   LIG    1       -6.240   0.167  -3.063  0.00  0.00    +0.010 C 
ATOM     21  C   LIG    1       -6.607  -1.185  -2.442  0.00  0.00    +0.290 C 
ENDBRANCH  13  16
ENDBRANCH   3  13
BRANCH   1  22
ATOM     22  C   LIG    1       -0.738  -1.646  -2.199  0.00  0.00    +0.510 C 
ATOM     23  O   LIG    1        0.391  -1.199  -2.168  0.00  0.00    -0.460 OA
BRANCH  22  24
ATOM     24  O   LIG    1       -1.125  -2.429  -3.227  0.00  0.00    -0.330 OA
BRANCH  24  25
ATOM     25  C   LIG    1       -0.140  -2.695  -4.259  0.00  0.00    +0.250 C 
BRANCH  25  28
ATOM     26  N   LIG    1       -0.013  -3.960  -6.381  0.00  0.00    -0.720 N 
ATOM     27  H   LIG    1        0.907  -3.664  -6.466  0.00  0.00    +0.400 HD
ATOM     28  C   LIG    1       -0.747  -3.580  -5.317  0.00  0.00    +0.510 C 
ATOM     29  O   LIG    1       -1.897  -3.949  -5.211  0.00  0.00    -0.510 OA
BRANCH  26  37
ATOM     30  C   LIG    1        0.005  -3.145  -9.160  0.00  0.00    +0.020 C 
ATOM     31  C   LIG    1        0.131  -4.609  -8.735  0.00  0.00    +0.000 C 
ATOM     32  C   LIG    1        1.609  -4.964  -8.560  0.00  0.00    -0.020 C 
ATOM     33  C   LIG    1        1.736  -6.428  -8.135  0.00  0.00    +0.000 C 
ATOM     34  C   LIG    1        1.001  -6.639  -6.809  0.00  0.00    +0.000 C 
ATOM     35  C   LIG    1       -0.477  -6.285  -6.984  0.00  0.00    +0.010 C 
ATOM     36  C   LIG    1        2.344  -4.753  -9.886  0.00  0.00    +0.030 C 
ATOM     37  C   LIG    1       -0.604  -4.820  -7.409  0.00  0.00    +0.240 C 
ENDBRANCH  26  37
ENDBRANCH  25  28
ENDBRANCH  24  25
ENDBRANCH  22  24
ENDBRANCH   1  22
TORSDOF 8
