REMARK  Name = ZINCkj000005kOSv.0
REMARK                            x       y       z     vdW  Elec       q    Type
REMARK                         _______ _______ _______ _____ _____    ______ ____
ROOT
ATOM      1  C   LIG    1        1.855   3.167  -0.459  0.00  0.00    +0.540 C 
ATOM      2  N   LIG    1        1.385   1.990  -0.001  0.00  0.00    -0.630 N 
ATOM      3  C   LIG    1       -0.019   1.537   0.011  0.00  0.00    +0.270 C 
ATOM      4  C   LIG    1        0.002  -0.004   0.002  0.00  0.00    +0.070 C 
ATOM      5  C   LIG    1        1.495  -0.379   0.030  0.00  0.00    -0.100 C 
ATOM      6  C   LIG    1        1.731  -1.565   0.956  0.00  0.00    +0.070 C 
ATOM      7  C   LIG    1        3.218  -1.936   0.927  0.00  0.00    +0.060 C 
ATOM      8  C   LIG    1        3.641  -2.205  -0.519  0.00  0.00    +0.250 C 
ATOM      9  N   LIG    1        3.432  -0.999  -1.329  0.00  0.00    -0.390 N 
ATOM     10  C   LIG    1        3.924  -1.235  -2.693  0.00  0.00    +0.320 C 
ATOM     11  H   LIG    1        3.939  -0.228  -0.919  0.00  0.00    +0.420 HD
ATOM     12  C   LIG    1        2.001  -0.673  -1.375  0.00  0.00    +0.280 C 
ATOM     13  C   LIG    1        2.176   0.885   0.594  0.00  0.00    +0.290 C 
ATOM     14  O   LIG    1        3.042   3.408  -0.406  0.00  0.00    -0.520 OA
ENDROOT
BRANCH   1  15
ATOM     15  C   LIG    1        0.904   4.184  -1.036  0.00  0.00    +0.200 C 
BRANCH  15  20
ATOM     16  C   LIG    1        3.525   8.836  -1.792  0.00  0.00    +0.210 C 
ATOM     17  C   LIG    1        2.851   7.488  -1.811  0.00  0.00    -0.000 A 
ATOM     18  N   LIG    1        2.805   6.681  -2.822  0.00  0.00    -0.260 NA
ATOM     19  N   LIG    1        2.195   5.588  -2.643  0.00  0.00    -0.240 NA
ATOM     20  C   LIG    1        1.676   5.402  -1.472  0.00  0.00    -0.020 A 
ATOM     21  S   LIG    1        2.018   6.769  -0.499  0.00  0.00    +0.190 S 
ENDBRANCH  15  20
ENDBRANCH   1  15
TORSDOF 2
