REMARK  Name = ZINCkj000005kOSv.1
REMARK                            x       y       z     vdW  Elec       q    Type
REMARK                         _______ _______ _______ _____ _____    ______ ____
ROOT
ATOM      1  C   LIG    1       -0.764  -0.770  -4.071  0.00  0.00    +0.540 C 
ATOM      2  N   LIG    1       -1.035   0.230  -3.210  0.00  0.00    -0.630 N 
ATOM      3  C   LIG    1       -2.373   0.697  -2.777  0.00  0.00    +0.290 C 
ATOM      4  C   LIG    1       -2.174   1.004  -1.270  0.00  0.00    +0.030 C 
ATOM      5  C   LIG    1       -0.748   1.590  -1.229  0.00  0.00    -0.090 C 
ATOM      6  C   LIG    1       -0.812   3.115  -1.229  0.00  0.00    +0.070 C 
ATOM      7  C   LIG    1       -1.460   3.590   0.076  0.00  0.00    +0.060 C 
ATOM      8  C   LIG    1       -0.674   3.026   1.262  0.00  0.00    +0.250 C 
ATOM      9  N   LIG    1       -0.699   1.559   1.218  0.00  0.00    -0.380 N 
ATOM     10  C   LIG    1       -0.018   1.024   2.405  0.00  0.00    +0.320 C 
ATOM     11  H   LIG    1       -1.655   1.238   1.208  0.00  0.00    +0.420 HD
ATOM     12  C   LIG    1       -0.013   1.086   0.008  0.00  0.00    +0.260 C 
ATOM     13  C   LIG    1       -0.060   1.085  -2.505  0.00  0.00    +0.300 C 
ATOM     14  O   LIG    1        0.386  -1.047  -4.336  0.00  0.00    -0.510 OA
ENDROOT
BRANCH   1  15
ATOM     15  C   LIG    1       -1.891  -1.545  -4.704  0.00  0.00    +0.200 C 
BRANCH  15  20
ATOM     16  C   LIG    1        0.096  -4.710  -8.593  0.00  0.00    +0.210 C 
ATOM     17  C   LIG    1       -0.433  -4.019  -7.363  0.00  0.00    -0.000 A 
ATOM     18  N   LIG    1       -0.554  -4.552  -6.190  0.00  0.00    -0.260 NA
ATOM     19  N   LIG    1       -1.020  -3.811  -5.278  0.00  0.00    -0.240 NA
ATOM     20  C   LIG    1       -1.324  -2.600  -5.619  0.00  0.00    -0.020 A 
ATOM     21  S   LIG    1       -0.980  -2.398  -7.284  0.00  0.00    +0.190 S 
ENDBRANCH  15  20
ENDBRANCH   1  15
TORSDOF 2
