REMARK  Name = ZINCrH000004qwSS.0
REMARK                            x       y       z     vdW  Elec       q    Type
REMARK                         _______ _______ _______ _____ _____    ______ ____
ROOT
ATOM      1  C   LIG    1       -1.732   0.846  -4.222  0.00  0.00    +0.510 C 
ATOM      2  N   LIG    1       -0.745   1.585  -3.677  0.00  0.00    -0.610 N 
ATOM      3  C   LIG    1       -0.381   2.873  -4.272  0.00  0.00    +0.280 C 
ATOM      4  O   LIG    1       -2.033  -0.221  -3.730  0.00  0.00    -0.530 OA
ENDROOT
BRANCH   1   5
ATOM      5  C   LIG    1       -2.461   1.345  -5.443  0.00  0.00    +0.300 C 
BRANCH   5   7
ATOM      6  C   LIG    1       -4.259   0.604  -6.910  0.00  0.00    +0.560 C 
ATOM      7  N   LIG    1       -3.479   0.368  -5.837  0.00  0.00    -0.720 N 
ATOM      8  H   LIG    1       -3.592  -0.448  -5.326  0.00  0.00    +0.410 HD
ATOM      9  O   LIG    1       -4.118   1.627  -7.551  0.00  0.00    -0.540 OA
BRANCH   6  15
ATOM     10  C   LIG    1       -6.591  -3.744  -6.161  0.00  0.00    +0.090 C 
ATOM     11  C   LIG    1       -6.412  -2.473  -6.952  0.00  0.00    -0.090 A 
ATOM     12  C   LIG    1       -7.211  -2.228  -8.054  0.00  0.00    +0.040 A 
ATOM     13  C   LIG    1       -7.053  -1.064  -8.786  0.00  0.00    -0.090 A 
ATOM     14  C   LIG    1       -6.097  -0.140  -8.419  0.00  0.00    +0.080 A 
ATOM     15  C   LIG    1       -5.287  -0.382  -7.308  0.00  0.00    -0.130 A 
ATOM     16  C   LIG    1       -7.928  -0.806  -9.985  0.00  0.00    +0.090 C 
ATOM     17  C   LIG    1       -5.448  -1.560  -6.578  0.00  0.00    +0.040 A 
ENDBRANCH   6  15
ENDBRANCH   5   7
ENDBRANCH   1   5
BRANCH   2  18
ATOM     18  C   LIG    1       -0.037   1.099  -2.490  0.00  0.00    +0.290 C 
BRANCH  18  19
ATOM     19  C   LIG    1       -0.753   1.593  -1.232  0.00  0.00    -0.070 C 
ATOM     20  C   LIG    1       -0.013   1.086   0.008  0.00  0.00    +0.020 C 
ATOM     21  C   LIG    1       -0.729   1.579   1.267  0.00  0.00    -0.010 C 
ATOM     22  C   LIG    1       -0.750   3.109   1.275  0.00  0.00    +0.010 C 
ATOM     23  C   LIG    1       -1.490   3.616   0.036  0.00  0.00    -0.020 C 
ATOM     24  C   LIG    1       -2.925   3.086   0.047  0.00  0.00    +0.010 C 
ATOM     25  C   LIG    1       -2.904   1.556   0.038  0.00  0.00    -0.020 C 
ATOM     26  C   LIG    1       -2.164   1.050   1.278  0.00  0.00    +0.010 C 
ATOM     27  C   LIG    1       -0.773   3.123  -1.223  0.00  0.00    +0.020 C 
ATOM     28  C   LIG    1       -2.188   1.063  -1.221  0.00  0.00    +0.040 C 
ENDBRANCH  18  19
ENDBRANCH   2  18
TORSDOF 5
