REMARK  Name = ZINCrD000000Aosw.0
REMARK                            x       y       z     vdW  Elec       q    Type
REMARK                         _______ _______ _______ _____ _____    ______ ____
ROOT
ATOM      1  C   LIG    1       -0.947  -7.263   0.064  0.00  0.00    +0.140 A 
ATOM      2  C   LIG    1       -2.205  -6.674   0.078  0.00  0.00    +0.030 A 
ATOM      3  C   LIG    1       -3.334  -7.464   0.170  0.00  0.00    +0.030 A 
ATOM      4  C   LIG    1       -3.213  -8.838   0.260  0.00  0.00    +0.030 A 
ATOM      5  C   LIG    1       -1.962  -9.427   0.253  0.00  0.00    -0.080 A 
ATOM      6  C   LIG    1       -0.829  -8.643   0.155  0.00  0.00    +0.010 A 
ENDROOT
BRANCH   1   9
ATOM      7  O   LIG    1       -0.824  -5.039  -1.392  0.00  0.00    -0.510 OA
ATOM      8  C   LIG    1        0.167  -5.326  -0.754  0.00  0.00    +0.510 C 
ATOM      9  N   LIG    1        0.199  -6.466  -0.036  0.00  0.00    -0.670 N 
ATOM     10  H   LIG    1        1.016  -6.734   0.412  0.00  0.00    +0.420 HD
BRANCH   8  11
ATOM     11  C   LIG    1        1.362  -4.408  -0.764  0.00  0.00    +0.320 C 
BRANCH  11  12
ATOM     12  N   LIG    1        1.079  -3.247  -1.612  0.00  0.00    -0.710 N 
ATOM     13  H   LIG    1        0.221  -3.171  -2.059  0.00  0.00    +0.420 HD
ATOM     14  C   LIG    1        2.010  -2.287  -1.772  0.00  0.00    +0.610 C 
ATOM     15  O   LIG    1        3.086  -2.383  -1.212  0.00  0.00    -0.520 OA
BRANCH  14  16
ATOM     16  C   LIG    1        1.727  -1.125  -2.621  0.00  0.00    -0.090 A 
ATOM     17  C   LIG    1        2.577  -0.085  -2.867  0.00  0.00    +0.050 A 
ATOM     18  C   LIG    1        1.899   0.795  -3.726  0.00  0.00    -0.070 A 
ATOM     19  C   LIG    1        0.681   0.261  -3.963  0.00  0.00    +0.210 A 
ATOM     20  O   LIG    1        0.581  -0.896  -3.295  0.00  0.00    -0.160 OA
ENDBRANCH  14  16
ENDBRANCH  11  12
ENDBRANCH   8  11
ENDBRANCH   1   9
BRANCH   5  21
ATOM     21  C   LIG    1       -1.835 -10.925   0.352  0.00  0.00    +0.260 C 
BRANCH  21  22
ATOM     22  O   LIG    1       -1.743 -11.306   1.726  0.00  0.00    -0.300 OA
BRANCH  22  23
ATOM     23  C   LIG    1       -1.622 -12.633   1.993  0.00  0.00    +0.160 A 
ATOM     24  C   LIG    1       -1.599 -13.550   0.952  0.00  0.00    -0.080 A 
ATOM     25  C   LIG    1       -1.470 -14.899   1.224  0.00  0.00    +0.090 A 
ATOM     26  C   LIG    1       -1.377 -15.337   2.532  0.00  0.00    -0.050 A 
ATOM     27  C   LIG    1       -1.406 -14.424   3.573  0.00  0.00    +0.140 A 
ATOM     28  F   LIG    1       -1.314 -14.853   4.851  0.00  0.00    -0.130 F 
ATOM     29  C   LIG    1       -1.528 -13.072   3.305  0.00  0.00    -0.050 A 
ENDBRANCH  22  23
ENDBRANCH  21  22
ENDBRANCH   5  21
TORSDOF 7
