REMARK  Name = ZINCkj000005heAj.1
REMARK                            x       y       z     vdW  Elec       q    Type
REMARK                         _______ _______ _______ _____ _____    ______ ____
ROOT
ATOM      1  C   LIG    1        0.067   1.600  -0.065  0.00  0.00    +0.310 C 
ATOM      2  N   LIG    1       -0.659   1.810   1.190  0.00  0.00    -0.610 N 
ATOM      3  C   LIG    1       -0.017   1.690   2.369  0.00  0.00    +0.590 C 
ATOM      4  O   LIG    1       -0.639   1.767   3.411  0.00  0.00    -0.520 OA
ENDROOT
BRANCH   3   5
ATOM      5  C   LIG    1        1.438   1.465   2.395  0.00  0.00    -0.190 A 
ATOM      6  C   LIG    1        2.178   1.214   1.282  0.00  0.00    -0.010 A 
ATOM      7  S   LIG    1        3.822   1.008   1.681  0.00  0.00    +0.340 S 
ATOM      8  C   LIG    1        3.515   1.256   3.391  0.00  0.00    -0.800 A 
ATOM      9  C   LIG    1        2.225   1.483   3.606  0.00  0.00    +0.220 A 
BRANCH   8  10
ATOM     10  S   LIG    1        4.748   1.208   4.649  0.00  0.00    +2.520 S 
ATOM     11  O   LIG    1        4.223   2.028   5.685  0.00  0.00    -0.920 OA
ATOM     12  O   LIG    1        5.949   1.558   3.975  0.00  0.00    -0.920 OA
ATOM     13  C   LIG    1        4.794  -0.528   5.172  0.00  0.00    -0.250 C 
ENDBRANCH   8  10
ENDBRANCH   3   5
BRANCH   2  14
ATOM     14  C   LIG    1       -2.084   2.151   1.163  0.00  0.00    +0.310 C 
BRANCH  14  15
ATOM     15  C   LIG    1       -2.916   0.867   1.194  0.00  0.00    +0.230 C 
BRANCH  15  16
ATOM     16  N   LIG    1       -4.344   1.209   1.168  0.00  0.00    -0.350 N 
ATOM     17  C   LIG    1       -4.670   1.852  -0.112  0.00  0.00    +0.320 C 
ATOM     18  H   LIG    1       -4.553   1.842   1.925  0.00  0.00    +0.420 HD
BRANCH  16  19
ATOM     19  C   LIG    1       -5.143  -0.015   1.318  0.00  0.00    +0.100 C 
ATOM     20  C   LIG    1       -6.228  -0.022   2.396  0.00  0.00    +0.100 C 
ATOM     21  C   LIG    1       -4.947  -0.834   2.595  0.00  0.00    +0.090 C 
ENDBRANCH  16  19
ENDBRANCH  15  16
ENDBRANCH  14  15
ENDBRANCH   2  14
TORSDOF 6
