REMARK  Name = ZINCkj000005heAj.0
REMARK                            x       y       z     vdW  Elec       q    Type
REMARK                         _______ _______ _______ _____ _____    ______ ____
ROOT
ATOM      1  C   LIG    1        2.441   4.426   3.876  0.00  0.00    +0.300 C 
ATOM      2  N   LIG    1        3.461   3.583   3.247  0.00  0.00    -0.610 N 
ATOM      3  C   LIG    1        4.740   4.003   3.190  0.00  0.00    +0.590 C 
ATOM      4  O   LIG    1        5.561   3.368   2.554  0.00  0.00    -0.520 OA
ENDROOT
BRANCH   3   5
ATOM      5  C   LIG    1        5.145   5.230   3.895  0.00  0.00    -0.190 A 
ATOM      6  C   LIG    1        4.343   5.888   4.775  0.00  0.00    -0.010 A 
ATOM      7  S   LIG    1        5.133   7.261   5.404  0.00  0.00    +0.340 S 
ATOM      8  C   LIG    1        6.579   6.956   4.457  0.00  0.00    -0.800 A 
ATOM      9  C   LIG    1        6.432   5.861   3.720  0.00  0.00    +0.220 A 
BRANCH   8  10
ATOM     10  S   LIG    1        8.024   7.964   4.479  0.00  0.00    +2.520 S 
ATOM     11  O   LIG    1        9.074   7.080   4.111  0.00  0.00    -0.920 OA
ATOM     12  O   LIG    1        8.001   8.582   5.758  0.00  0.00    -0.920 OA
ATOM     13  C   LIG    1        7.740   9.192   3.174  0.00  0.00    -0.250 C 
ENDBRANCH   8  10
ENDBRANCH   3   5
BRANCH   2  14
ATOM     14  C   LIG    1        3.090   2.284   2.681  0.00  0.00    +0.310 C 
BRANCH  14  15
ATOM     15  C   LIG    1        2.697   2.461   1.213  0.00  0.00    +0.240 C 
BRANCH  15  16
ATOM     16  N   LIG    1        2.325   1.158   0.645  0.00  0.00    -0.350 N 
ATOM     17  C   LIG    1        3.501   0.277   0.630  0.00  0.00    +0.340 C 
ATOM     18  H   LIG    1        1.599   0.741   1.208  0.00  0.00    +0.420 HD
BRANCH  16  19
ATOM     19  C   LIG    1        1.834   1.344  -0.727  0.00  0.00    +0.100 C 
ATOM     20  C   LIG    1        0.607   2.236  -0.923  0.00  0.00    +0.090 C 
ATOM     21  C   LIG    1        0.484   0.719  -1.085  0.00  0.00    +0.100 C 
ENDBRANCH  16  19
ENDBRANCH  15  16
ENDBRANCH  14  15
ENDBRANCH   2  14
TORSDOF 6
