REMARK  Name = ZINCvU00000006lX.0
REMARK                            x       y       z     vdW  Elec       q    Type
REMARK                         _______ _______ _______ _____ _____    ______ ____
ROOT
ATOM      1  C   LIG    1        0.053   1.610  -0.326  0.00  0.00    -0.120 A 
ATOM      2  C   LIG    1        1.193   2.412  -0.400  0.00  0.00    +0.040 A 
ATOM      3  C   LIG    1        2.431   1.831  -0.583  0.00  0.00    +0.030 A 
ATOM      4  C   LIG    1        2.544   0.456  -0.694  0.00  0.00    -0.060 A 
ATOM      5  C   LIG    1        1.418  -0.344  -0.621  0.00  0.00    +0.040 A 
ATOM      6  C   LIG    1        0.174   0.224  -0.438  0.00  0.00    +0.080 A 
ENDROOT
BRANCH   1   9
ATOM      7  C   LIG    1       -0.243   3.875   1.329  0.00  0.00    +0.290 C 
ATOM      8  N   LIG    1       -1.421   3.277   0.696  0.00  0.00    -0.610 N 
ATOM      9  C   LIG    1       -1.277   2.226  -0.136  0.00  0.00    +0.560 C 
ATOM     10  O   LIG    1       -2.242   1.785  -0.730  0.00  0.00    -0.500 OA
BRANCH   8  11
ATOM     11  C   LIG    1       -2.754   3.820   0.967  0.00  0.00    +0.410 C 
BRANCH  11  12
ATOM     12  C   LIG    1       -3.350   3.117   2.159  0.00  0.00    +0.260 A 
ATOM     13  N   LIG    1       -3.996   1.988   2.113  0.00  0.00    -0.460 NA
ATOM     14  C   LIG    1       -4.396   1.640   3.362  0.00  0.00    +0.040 A 
ATOM     15  C   LIG    1       -5.107   0.553   3.879  0.00  0.00    +0.070 A 
ATOM     16  C   LIG    1       -5.361   0.481   5.219  0.00  0.00    +0.000 A 
ATOM     17  C   LIG    1       -4.921   1.478   6.078  0.00  0.00    +0.030 A 
ATOM     18  C   LIG    1       -4.218   2.560   5.590  0.00  0.00    +0.010 A 
ATOM     19  C   LIG    1       -3.950   2.650   4.232  0.00  0.00    +0.050 A 
ATOM     20  N   LIG    1       -3.287   3.567   3.441  0.00  0.00    -0.600 N 
ATOM     21  H   LIG    1       -2.857   4.383   3.744  0.00  0.00    +0.420 HD
ENDBRANCH  11  12
ENDBRANCH   8  11
ENDBRANCH   1   9
BRANCH   4  22
ATOM     22  C   LIG    1        3.899  -0.171  -0.895  0.00  0.00    +0.160 C 
BRANCH  22  23
ATOM     23  S   LIG    1        4.247  -0.303  -2.666  0.00  0.00    +0.010 S 
BRANCH  23  24
ATOM     24  C   LIG    1        5.843  -1.047  -2.610  0.00  0.00    +0.260 A 
ATOM     25  N   LIG    1        6.487  -1.366  -1.514  0.00  0.00    -0.490 NA
ATOM     26  C   LIG    1        7.686  -1.919  -1.835  0.00  0.00    +0.060 A 
ATOM     27  C   LIG    1        8.743  -2.425  -1.074  0.00  0.00    +0.060 A 
ATOM     28  C   LIG    1        9.857  -2.933  -1.705  0.00  0.00    +0.010 A 
ATOM     29  C   LIG    1        9.938  -2.946  -3.089  0.00  0.00    +0.030 A 
ATOM     30  C   LIG    1        8.902  -2.450  -3.854  0.00  0.00    +0.010 A 
ATOM     31  C   LIG    1        7.773  -1.935  -3.237  0.00  0.00    +0.060 A 
ATOM     32  N   LIG    1        6.591  -1.383  -3.703  0.00  0.00    -0.580 N 
ATOM     33  H   LIG    1        6.343  -1.255  -4.632  0.00  0.00    +0.430 HD
ENDBRANCH  23  24
ENDBRANCH  22  23
ENDBRANCH   4  22
TORSDOF 6
