REMARK  Name = ZINCpe000000YTsY.1
REMARK                            x       y       z     vdW  Elec       q    Type
REMARK                         _______ _______ _______ _____ _____    ______ ____
ROOT
ATOM      1  N   LIG    1        1.059   2.233  -0.307  0.00  0.00    -0.510 NA
ATOM      2  C   LIG    1        1.946   1.946   0.827  0.00  0.00    +0.180 C 
ATOM      3  C   LIG    1        3.344   2.498   0.536  0.00  0.00    +0.060 C 
ATOM      4  C   LIG    1        3.252   4.009   0.307  0.00  0.00    -0.070 C 
ATOM      5  C   LIG    1        4.638   4.551  -0.051  0.00  0.00    +0.060 C 
ATOM      6  C   LIG    1        5.514   4.509   1.207  0.00  0.00    +0.160 C 
ATOM      7  C   LIG    1        4.971   5.522   2.216  0.00  0.00    +0.240 C 
ATOM      8  N   LIG    1        3.538   5.333   2.407  0.00  0.00    -0.720 N 
ATOM      9  H   LIG    1        3.133   5.707   3.205  0.00  0.00    +0.400 HD
ATOM     10  C   LIG    1        2.286   4.283  -0.849  0.00  0.00    +0.060 C 
ATOM     11  C   LIG    1        2.749   4.678   1.554  0.00  0.00    +0.530 C 
ATOM     12  O   LIG    1        1.563   4.621   1.798  0.00  0.00    -0.540 OA
ATOM     13  C   LIG    1        0.919   3.680  -0.519  0.00  0.00    +0.180 C 
ENDROOT
BRANCH   6  14
ATOM     14  O   LIG    1        6.860   4.848   0.866  0.00  0.00    -0.550 OA
ATOM     15  H   LIG    1        7.470   4.841   1.616  0.00  0.00    +0.380 HD
ENDBRANCH   6  14
BRANCH   1  16
ATOM     16  C   LIG    1       -0.253   1.599  -0.124  0.00  0.00    +0.200 C 
BRANCH  16  18
ATOM     17  O   LIG    1        0.982  -0.390  -0.421  0.00  0.00    -0.500 OA
ATOM     18  C   LIG    1       -0.095   0.100  -0.156  0.00  0.00    +0.520 C 
ATOM     19  N   LIG    1       -1.150  -0.694   0.111  0.00  0.00    -0.590 N 
BRANCH  19  20
ATOM     20  C   LIG    1       -0.973  -2.147   0.187  0.00  0.00    +0.230 C 
ATOM     21  C   LIG    1        0.034  -2.499   1.301  0.00  0.00    +0.010 C 
ATOM     22  C   LIG    1        0.830  -3.698   0.728  0.00  0.00    +0.010 C 
ATOM     23  C   LIG    1        0.975  -3.328  -0.769  0.00  0.00    +0.020 C 
ATOM     24  C   LIG    1       -0.375  -2.674  -1.129  0.00  0.00    +0.000 C 
ENDBRANCH  19  20
BRANCH  19  25
ATOM     25  C   LIG    1       -2.475  -0.106   0.325  0.00  0.00    +0.200 C 
ATOM     26  C   LIG    1       -3.553  -0.998   0.944  0.00  0.00    +0.020 C 
ATOM     27  C   LIG    1       -3.626  -0.624  -0.538  0.00  0.00    +0.010 C 
ENDBRANCH  19  25
ENDBRANCH  16  18
ENDBRANCH   1  16
TORSDOF 5
