REMARK  Name = ZINCrD000000fIY0.0
REMARK                            x       y       z     vdW  Elec       q    Type
REMARK                         _______ _______ _______ _____ _____    ______ ____
ROOT
ATOM      1  C   LIG    1        0.043  -0.175   0.000  0.00  0.00    -0.010 C 
ATOM      2  C   LIG    1        0.222   1.339   0.124  0.00  0.00    +0.100 C 
ENDROOT
BRANCH   1   3
ATOM      3  C   LIG    1       -1.427  -0.509   0.006  0.00  0.00    +0.420 C 
ATOM      4  O   LIG    1       -2.022  -0.644  -1.042  0.00  0.00    -0.430 OA
BRANCH   3   8
ATOM      5  C   LIG    1       -3.478  -0.974   3.683  0.00  0.00    +0.190 A 
ATOM      6  C   LIG    1       -4.164  -1.130   2.481  0.00  0.00    +0.000 A 
ATOM      7  C   LIG    1       -3.504  -0.981   1.289  0.00  0.00    +0.110 A 
ATOM      8  C   LIG    1       -2.138  -0.670   1.281  0.00  0.00    -0.180 A 
ATOM      9  C   LIG    1       -1.452  -0.520   2.492  0.00  0.00    +0.090 A 
ATOM     10  C   LIG    1       -2.121  -0.666   3.680  0.00  0.00    -0.020 A 
BRANCH   5  13
ATOM     11  C   LIG    1       -5.967  -2.099   6.264  0.00  0.00    +0.110 C 
ATOM     12  C   LIG    1       -5.159  -2.017   4.995  0.00  0.00    +0.510 C 
ATOM     13  N   LIG    1       -4.153  -1.126   4.892  0.00  0.00    -0.680 N 
ATOM     14  H   LIG    1       -3.899  -0.592   5.660  0.00  0.00    +0.420 HD
ATOM     15  O   LIG    1       -5.415  -2.753   4.065  0.00  0.00    -0.520 OA
ENDBRANCH   5  13
ENDBRANCH   3   8
ENDBRANCH   1   3
BRANCH   1  16
ATOM     16  S   LIG    1        0.786  -0.748  -1.552  0.00  0.00    +0.090 S 
BRANCH  16  17
ATOM     17  C   LIG    1        2.500  -0.412  -1.318  0.00  0.00    +0.240 A 
ATOM     18  N   LIG    1        3.453  -0.668  -2.192  0.00  0.00    -0.310 NA
ATOM     19  N   LIG    1        4.660  -0.249  -1.617  0.00  0.00    -0.320 N 
ATOM     20  C   LIG    1        4.350   0.245  -0.381  0.00  0.00    +0.460 A 
ATOM     21  N   LIG    1        5.314   0.722   0.415  0.00  0.00    -0.460 NA
ATOM     22  C   LIG    1        6.569   0.724   0.028  0.00  0.00    +0.240 A 
ATOM     23  C   LIG    1        6.920   0.225  -1.232  0.00  0.00    -0.190 A 
ATOM     24  C   LIG    1        8.360   0.226  -1.678  0.00  0.00    +0.140 C 
ATOM     25  C   LIG    1        7.636   1.267   0.944  0.00  0.00    +0.180 C 
ATOM     26  C   LIG    1        5.948  -0.261  -2.047  0.00  0.00    +0.200 A 
ATOM     27  C   LIG    1        6.294  -0.804  -3.409  0.00  0.00    +0.170 C 
ATOM     28  N   LIG    1        3.035   0.133  -0.228  0.00  0.00    -0.530 NA
ENDBRANCH  16  17
ENDBRANCH   1  16
TORSDOF 5
