REMARK  Name = ZINCrD0000073slg.0
REMARK                            x       y       z     vdW  Elec       q    Type
REMARK                         _______ _______ _______ _____ _____    ______ ____
ROOT
ATOM      1  C   LIG    1       -2.300  -4.295   0.166  0.00  0.00    +0.510 C 
ATOM      2  N   LIG    1       -3.353  -5.120   0.005  0.00  0.00    -0.670 N 
ATOM      3  H   LIG    1       -4.252  -4.758  -0.031  0.00  0.00    +0.420 HD
ATOM      4  O   LIG    1       -1.186  -4.754   0.306  0.00  0.00    -0.490 OA
ENDROOT
BRANCH   2   5
ATOM      5  C   LIG    1       -3.150  -6.502  -0.110  0.00  0.00    +0.160 A 
ATOM      6  C   LIG    1       -4.094  -7.386   0.396  0.00  0.00    +0.010 A 
ATOM      7  C   LIG    1       -3.897  -8.750   0.284  0.00  0.00    +0.050 A 
ATOM      8  C   LIG    1       -2.755  -9.233  -0.333  0.00  0.00    +0.050 A 
ATOM      9  O   LIG    1       -2.551 -10.578  -0.447  0.00  0.00    -0.320 OA
ATOM     10  C   LIG    1       -2.611 -11.109  -1.772  0.00  0.00    +0.230 C 
ATOM     11  C   LIG    1       -1.271 -10.960  -2.474  0.00  0.00    -0.010 C 
ATOM     12  C   LIG    1       -0.891  -9.504  -2.693  0.00  0.00    +0.230 C 
ATOM     13  O   LIG    1       -0.689  -8.839  -1.444  0.00  0.00    -0.320 OA
ATOM     14  C   LIG    1       -1.810  -8.351  -0.839  0.00  0.00    +0.090 A 
ATOM     15  C   LIG    1       -2.007  -6.986  -0.735  0.00  0.00    +0.030 A 
ENDBRANCH   2   5
BRANCH   1  16
ATOM     16  C   LIG    1       -2.506  -2.802   0.170  0.00  0.00    +0.270 C 
BRANCH  16  17
ATOM     17  O   LIG    1       -1.228  -2.138   0.358  0.00  0.00    -0.330 OA
BRANCH  17  18
ATOM     18  C   LIG    1       -1.237  -0.791   0.386  0.00  0.00    +0.520 C 
ATOM     19  O   LIG    1       -2.284  -0.188   0.257  0.00  0.00    -0.480 OA
BRANCH  18  26
ATOM     20  C   LIG    1        0.018   1.353   0.602  0.00  0.00    +0.200 A 
ATOM     21  C   LIG    1        1.209   2.041   0.778  0.00  0.00    -0.060 A 
ATOM     22  C   LIG    1        2.394   1.347   0.923  0.00  0.00    +0.120 A 
ATOM     23  C   LIG    1        2.404  -0.038   0.894  0.00  0.00    -0.090 A 
ATOM     24  C   LIG    1        1.229  -0.739   0.720  0.00  0.00    +0.150 A 
ATOM     25 CL   LIG    1        3.902  -0.896   1.077  0.00  0.00    -0.050 Cl
ATOM     26  C   LIG    1        0.023  -0.049   0.572  0.00  0.00    -0.150 A 
BRANCH  20  28
ATOM     27  C   LIG    1       -1.074   3.460   0.495  0.00  0.00    +0.250 C 
ATOM     28  O   LIG    1       -1.147   2.033   0.454  0.00  0.00    -0.280 OA
ENDBRANCH  20  28
ENDBRANCH  18  26
ENDBRANCH  17  18
ENDBRANCH  16  17
ENDBRANCH   1  16
TORSDOF 6
