REMARK  Name = ZINCrH000004pLND.0
REMARK                            x       y       z     vdW  Elec       q    Type
REMARK                         _______ _______ _______ _____ _____    ______ ____
ROOT
ATOM      1  C   LIG    1       -0.940  -4.794   3.902  0.00  0.00    +0.180 A 
ATOM      2  C   LIG    1       -0.309  -3.591   4.196  0.00  0.00    -0.010 A 
ATOM      3  C   LIG    1       -0.093  -2.663   3.200  0.00  0.00    +0.080 A 
ATOM      4  C   LIG    1       -0.507  -2.933   1.895  0.00  0.00    -0.060 A 
ATOM      5  C   LIG    1       -1.145  -4.139   1.604  0.00  0.00    +0.040 A 
ATOM      6  C   LIG    1       -1.354  -5.065   2.603  0.00  0.00    +0.020 A 
ENDROOT
BRANCH   1  15
ATOM      7  C   LIG    1       -0.122 -11.431   4.891  0.00  0.00    +0.070 C 
ATOM      8  C   LIG    1       -0.121 -10.009   5.456  0.00  0.00    +0.140 C 
ATOM      9  C   LIG    1       -1.509  -9.356   5.212  0.00  0.00    +0.290 C 
ATOM     10  N   LIG    1       -1.448  -7.953   5.577  0.00  0.00    -0.620 N 
ATOM     11  C   LIG    1       -1.744  -7.476   6.941  0.00  0.00    +0.260 C 
ATOM     12  C   LIG    1       -1.121  -8.403   7.996  0.00  0.00    +0.010 C 
ATOM     13  C   LIG    1        0.257  -8.838   7.540  0.00  0.00    +0.220 C 
ATOM     14  C   LIG    1       -1.115  -7.050   4.633  0.00  0.00    +0.700 C 
ATOM     15  N   LIG    1       -1.159  -5.733   4.915  0.00  0.00    -0.690 N 
ATOM     16  H   LIG    1       -1.343  -5.436   5.820  0.00  0.00    +0.410 HD
ATOM     17  O   LIG    1       -0.774  -7.425   3.528  0.00  0.00    -0.560 OA
ATOM     18  O   LIG    1        0.135 -10.053   6.812  0.00  0.00    -0.380 OA
ENDBRANCH   1  15
BRANCH   4  19
ATOM     19  C   LIG    1       -0.277  -1.939   0.824  0.00  0.00    +0.140 A 
ATOM     20  C   LIG    1       -0.037  -0.604   0.995  0.00  0.00    -0.060 A 
ATOM     21  C   LIG    1        0.123  -0.033  -0.267  0.00  0.00    -0.020 A 
ATOM     22  N   LIG    1       -0.017  -0.970  -1.170  0.00  0.00    -0.230 NA
ATOM     23  N   LIG    1       -0.264  -2.184  -0.517  0.00  0.00    -0.350 N 
ATOM     24  C   LIG    1       -0.476  -3.484  -1.159  0.00  0.00    +0.380 C 
BRANCH  21  25
ATOM     25  C   LIG    1        0.404   1.421  -0.545  0.00  0.00    +0.560 C 
ATOM     26  F   LIG    1       -0.166   2.207   0.462  0.00  0.00    -0.160 F 
ATOM     27  F   LIG    1       -0.149   1.775  -1.781  0.00  0.00    -0.170 F 
ATOM     28  F   LIG    1        1.787   1.632  -0.576  0.00  0.00    -0.170 F 
ENDBRANCH  21  25
ENDBRANCH   4  19
TORSDOF 3
