REMARK  Name = ZINCpe00000MJM8w.0
REMARK                            x       y       z     vdW  Elec       q    Type
REMARK                         _______ _______ _______ _____ _____    ______ ____
ROOT
ATOM      1  C   LIG    1        4.750   1.918  -0.032  0.00  0.00    -0.050 A 
ATOM      2  C   LIG    1        5.079   0.562  -0.036  0.00  0.00    +0.070 A 
ATOM      3  C   LIG    1        6.404   0.177  -0.057  0.00  0.00    +0.100 A 
ATOM      4  C   LIG    1        7.405   1.132  -0.061  0.00  0.00    -0.660 A 
ATOM      5  C   LIG    1        7.085   2.478  -0.051  0.00  0.00    +0.110 A 
ATOM      6  C   LIG    1        5.764   2.876  -0.037  0.00  0.00    +0.050 A 
ENDROOT
BRANCH   4   7
ATOM      7  S   LIG    1        9.094   0.632  -0.079  0.00  0.00    +2.690 S 
ATOM      8  O   LIG    1        9.829   1.719  -0.625  0.00  0.00    -0.950 OA
ATOM      9  O   LIG    1        9.119  -0.678  -0.631  0.00  0.00    -0.950 OA
BRANCH   7  10
ATOM     10  N   LIG    1        9.579   0.485   1.497  0.00  0.00    -0.990 NA
ATOM     11  C   LIG    1       10.163   1.629   2.211  0.00  0.00    +0.300 C 
ATOM     12  C   LIG    1        9.378   1.843   3.514  0.00  0.00    +0.020 C 
ATOM     13  C   LIG    1        9.368   0.541   4.317  0.00  0.00    +0.000 C 
ATOM     14  C   LIG    1        8.668  -0.554   3.509  0.00  0.00    +0.150 C 
ATOM     15  C   LIG    1        9.439  -0.794   2.207  0.00  0.00    +0.320 C 
BRANCH  14  16
ATOM     16  O   LIG    1        8.632  -1.762   4.272  0.00  0.00    -0.560 OA
ATOM     17  H   LIG    1        8.158  -1.683   5.111  0.00  0.00    +0.380 HD
ENDBRANCH  14  16
ENDBRANCH   7  10
ENDBRANCH   4   7
BRANCH   1  18
ATOM     18  C   LIG    1        3.330   2.338  -0.017  0.00  0.00    +0.540 C 
ATOM     19  O   LIG    1        3.045   3.523  -0.008  0.00  0.00    -0.560 OA
BRANCH  18  25
ATOM     20  C   LIG    1       -2.540   1.315   0.019  0.00  0.00    +0.380 C 
ATOM     21  N   LIG    1       -1.151   1.781   0.017  0.00  0.00    -0.390 N 
ATOM     22  C   LIG    1       -0.746   3.083   0.025  0.00  0.00    +0.350 A 
ATOM     23  C   LIG    1        0.604   3.122   0.013  0.00  0.00    -0.110 A 
ATOM     24  C   LIG    1        1.084   1.795   0.001  0.00  0.00    +0.490 A 
ATOM     25  N   LIG    1        2.360   1.418  -0.013  0.00  0.00    -0.670 NA
ATOM     26  N   LIG    1       -0.011   0.966   0.007  0.00  0.00    -0.470 N 
ATOM     27  H   LIG    1        0.002  -0.004   0.002  0.00  0.00    +0.450 HD
ENDBRANCH  18  25
ENDBRANCH   1  18
TORSDOF 5
