REMARK  Name = ZINCrH000004sQcO.0
REMARK                            x       y       z     vdW  Elec       q    Type
REMARK                         _______ _______ _______ _____ _____    ______ ____
ROOT
ATOM      1  C   LIG    1       -1.397   1.936  -0.429  0.00  0.00    +0.560 C 
ATOM      2  N   LIG    1       -0.213   1.339  -0.667  0.00  0.00    -0.720 N 
ATOM      3  H   LIG    1       -0.169   0.378  -0.787  0.00  0.00    +0.410 HD
ATOM      4  O   LIG    1       -1.452   3.141  -0.280  0.00  0.00    -0.510 OA
ENDROOT
BRANCH   1  13
ATOM      5  C   LIG    1       -2.883   3.633   1.842  0.00  0.00    +0.190 C 
ATOM      6  C   LIG    1       -3.857   2.527   1.526  0.00  0.00    +0.160 A 
ATOM      7  N   LIG    1       -5.019   2.346   2.074  0.00  0.00    -0.270 NA
ATOM      8  O   LIG    1       -5.638   1.204   1.516  0.00  0.00    -0.080 OA
ATOM      9  C   LIG    1       -4.824   0.662   0.588  0.00  0.00    +0.300 A 
ATOM     10  N   LIG    1       -4.931  -0.393  -0.205  0.00  0.00    -0.460 NA
ATOM     11  C   LIG    1       -3.981  -0.731  -1.050  0.00  0.00    +0.240 A 
ATOM     12  C   LIG    1       -2.812   0.004  -1.161  0.00  0.00    -0.020 A 
ATOM     13  C   LIG    1       -2.632   1.124  -0.349  0.00  0.00    +0.000 A 
ATOM     14  C   LIG    1       -3.667   1.460   0.544  0.00  0.00    -0.210 A 
BRANCH  11  15
ATOM     15  C   LIG    1       -4.171  -1.945  -1.922  0.00  0.00    +0.010 C 
ATOM     16  C   LIG    1       -3.251  -2.094  -3.135  0.00  0.00    +0.040 C 
ATOM     17  C   LIG    1       -4.722  -1.722  -3.332  0.00  0.00    +0.060 C 
ENDBRANCH  11  15
ENDBRANCH   1  13
BRANCH   2  18
ATOM     18  C   LIG    1        1.009   2.143  -0.752  0.00  0.00    +0.280 C 
BRANCH  18  19
ATOM     19  C   LIG    1        2.203   1.229  -1.035  0.00  0.00    +0.030 C 
BRANCH  19  20
ATOM     20  C   LIG    1        3.479   2.069  -1.123  0.00  0.00    +0.160 C 
BRANCH  20  21
ATOM     21  O   LIG    1        4.594   1.216  -1.387  0.00  0.00    -0.380 OA
BRANCH  21  22
ATOM     22  C   LIG    1        5.842   1.904  -1.490  0.00  0.00    +0.220 C 
BRANCH  22  23
ATOM     23  C   LIG    1        6.941   0.912  -1.768  0.00  0.00    -0.090 A 
ATOM     24  C   LIG    1        7.622   0.324  -0.719  0.00  0.00    +0.020 A 
ATOM     25  C   LIG    1        8.628  -0.590  -0.973  0.00  0.00    +0.000 A 
ATOM     26  C   LIG    1        8.960  -0.907  -2.277  0.00  0.00    +0.010 A 
ATOM     27  C   LIG    1        8.283  -0.314  -3.326  0.00  0.00    +0.000 A 
ATOM     28  C   LIG    1        7.273   0.596  -3.072  0.00  0.00    +0.020 A 
ENDBRANCH  22  23
ENDBRANCH  21  22
ENDBRANCH  20  21
ENDBRANCH  19  20
ENDBRANCH  18  19
ENDBRANCH   2  18
TORSDOF 8
