REMARK  Name = ZINCrH000004qZ6B.0
REMARK                            x       y       z     vdW  Elec       q    Type
REMARK                         _______ _______ _______ _____ _____    ______ ____
ROOT
ATOM      1  C   LIG    1        0.518   8.977   3.488  0.00  0.00    +0.210 A 
ATOM      2  N   LIG    1        0.644   8.957   4.798  0.00  0.00    -0.260 NA
ATOM      3  N   LIG    1        0.648   7.630   5.236  0.00  0.00    -0.300 N 
ATOM      4  C   LIG    1        0.517   6.805   4.183  0.00  0.00    +0.290 A 
ATOM      5  C   LIG    1        0.435   7.580   3.045  0.00  0.00    -0.260 A 
ENDROOT
BRANCH   1  10
ATOM      6  C   LIG    1        1.171  12.023  -0.446  0.00  0.00    +0.170 C 
ATOM      7  C   LIG    1        0.753  11.513   0.909  0.00  0.00    +0.010 A 
ATOM      8  C   LIG    1        0.087  12.220   1.844  0.00  0.00    -0.070 A 
ATOM      9  C   LIG    1       -0.099  11.368   2.951  0.00  0.00    +0.000 A 
ATOM     10  C   LIG    1        0.471  10.175   2.627  0.00  0.00    +0.040 A 
ATOM     11  O   LIG    1        0.988  10.280   1.388  0.00  0.00    -0.130 OA
ENDBRANCH   1  10
BRANCH   3  12
ATOM     12  C   LIG    1        0.765   7.222   6.571  0.00  0.00    +0.150 A 
ATOM     13  C   LIG    1        0.751   5.870   6.889  0.00  0.00    -0.010 A 
ATOM     14  C   LIG    1        0.872   5.471   8.206  0.00  0.00    +0.050 A 
ATOM     15  C   LIG    1        0.997   6.416   9.208  0.00  0.00    +0.010 A 
ATOM     16  C   LIG    1        1.006   7.763   8.895  0.00  0.00    +0.050 A 
ATOM     17  C   LIG    1        0.891   8.168   7.580  0.00  0.00    +0.030 A 
ENDBRANCH   3  12
BRANCH   5  18
ATOM     18  C   LIG    1        0.287   7.101   1.661  0.00  0.00    +0.590 C 
ATOM     19  N   LIG    1        0.225   5.778   1.408  0.00  0.00    -0.720 N 
ATOM     20  H   LIG    1        0.277   5.142   2.139  0.00  0.00    +0.400 HD
ATOM     21  O   LIG    1        0.221   7.899   0.745  0.00  0.00    -0.520 OA
BRANCH  19  22
ATOM     22  C   LIG    1        0.077   5.302   0.031  0.00  0.00    +0.360 C 
BRANCH  22  23
ATOM     23  C   LIG    1        0.033   3.795   0.023  0.00  0.00    +0.100 A 
ATOM     24  C   LIG    1       -1.188   3.148   0.031  0.00  0.00    -0.010 A 
ATOM     25  C   LIG    1       -1.217   1.761   0.017  0.00  0.00    +0.060 A 
ATOM     26  C   LIG    1       -0.013   1.076   0.008  0.00  0.00    -0.030 A 
ATOM     27  C   LIG    1        1.170   1.792   0.001  0.00  0.00    +0.260 A 
ATOM     28  N   LIG    1        1.160   3.110   0.008  0.00  0.00    -0.470 NA
ENDBRANCH  22  23
ENDBRANCH  19  22
ENDBRANCH   5  18
TORSDOF 5
