REMARK  Name = ZINCpe00000KVA6P.0
REMARK                            x       y       z     vdW  Elec       q    Type
REMARK                         _______ _______ _______ _____ _____    ______ ____
ROOT
ATOM      1  C   LIG    1       -0.789   6.439   4.217  0.00  0.00    +0.500 C 
ATOM      2  N   LIG    1       -0.918   7.264   5.274  0.00  0.00    -0.610 N 
ATOM      3  C   LIG    1       -0.554   6.799   6.615  0.00  0.00    +0.270 C 
ATOM      4  O   LIG    1       -1.090   6.824   3.107  0.00  0.00    -0.510 OA
ENDROOT
BRANCH   1   5
ATOM      5  C   LIG    1       -0.271   5.037   4.413  0.00  0.00    +0.350 C 
BRANCH   5  10
ATOM      6  C   LIG    1       -0.750   3.109   1.275  0.00  0.00    +0.120 C 
ATOM      7  N   LIG    1        0.619   3.647   1.180  0.00  0.00    -0.720 N 
ATOM      8  H   LIG    1        1.243   3.515   0.449  0.00  0.00    +0.440 HD
ATOM      9  C   LIG    1        0.833   4.355   2.303  0.00  0.00    +0.710 C 
ATOM     10  N   LIG    1       -0.225   4.348   3.122  0.00  0.00    -0.560 N 
ATOM     11  O   LIG    1        1.872   4.936   2.547  0.00  0.00    -0.540 OA
ATOM     12  C   LIG    1       -1.617   3.640   0.133  0.00  0.00    +0.080 C 
ATOM     13  C   LIG    1       -1.244   3.628   2.611  0.00  0.00    +0.540 C 
ATOM     14  O   LIG    1       -2.330   3.437   3.114  0.00  0.00    -0.460 OA
BRANCH   6  16
ATOM     15  C   LIG    1       -0.013   1.086   0.008  0.00  0.00    +0.040 C 
ATOM     16  C   LIG    1       -0.729   1.579   1.267  0.00  0.00    +0.040 C 
ENDBRANCH   6  16
ENDBRANCH   5  10
ENDBRANCH   1   5
BRANCH   2  17
ATOM     17  C   LIG    1       -1.421   8.627   5.083  0.00  0.00    +0.390 C 
BRANCH  17  18
ATOM     18  C   LIG    1       -2.922   8.631   5.217  0.00  0.00    -0.020 A 
ATOM     19  C   LIG    1       -3.616   8.907   6.340  0.00  0.00    +0.130 A 
ATOM     20  N   LIG    1       -4.937   8.800   6.020  0.00  0.00    -0.460 N 
ATOM     21  C   LIG    1       -6.092   9.009   6.896  0.00  0.00    +0.270 C 
ATOM     22  C   LIG    1       -7.342   9.196   6.029  0.00  0.00    +0.030 C 
ATOM     23  C   LIG    1       -7.428   8.061   5.004  0.00  0.00    +0.020 C 
ATOM     24  C   LIG    1       -6.306   8.227   3.971  0.00  0.00    +0.140 C 
ATOM     25  C   LIG    1       -5.010   8.453   4.713  0.00  0.00    +0.210 A 
ATOM     26  N   LIG    1       -3.802   8.355   4.241  0.00  0.00    -0.460 NA
ENDBRANCH  17  18
ENDBRANCH   2  17
TORSDOF 5
