REMARK  Name = ZINCvU0000000DoF.0
REMARK                            x       y       z     vdW  Elec       q    Type
REMARK                         _______ _______ _______ _____ _____    ______ ____
ROOT
ATOM      1  O   LIG    1       -4.765   4.132  -1.301  0.00  0.00    -0.530 OA
ATOM      2  C   LIG    1       -5.459   4.213  -2.295  0.00  0.00    +0.580 C 
ATOM      3  N   LIG    1       -6.653   4.837  -2.234  0.00  0.00    -0.610 N 
ATOM      4  C   LIG    1       -7.174   5.583  -1.075  0.00  0.00    +0.250 C 
ATOM      5  C   LIG    1       -8.713   5.555  -1.244  0.00  0.00    +0.040 C 
ATOM      6  C   LIG    1       -8.860   5.684  -2.783  0.00  0.00    +0.040 C 
ATOM      7  C   LIG    1       -7.647   4.891  -3.316  0.00  0.00    +0.220 C 
ENDROOT
BRANCH   2   8
ATOM      8  C   LIG    1       -4.996   3.628  -3.571  0.00  0.00    -0.140 A 
ATOM      9  C   LIG    1       -5.913   3.338  -4.583  0.00  0.00    +0.060 A 
ATOM     10  C   LIG    1       -5.480   2.792  -5.774  0.00  0.00    -0.020 A 
ATOM     11  C   LIG    1       -4.139   2.533  -5.976  0.00  0.00    +0.070 A 
ATOM     12  C   LIG    1       -3.213   2.813  -4.971  0.00  0.00    -0.060 A 
ATOM     13  C   LIG    1       -3.641   3.364  -3.767  0.00  0.00    +0.110 A 
BRANCH  12  14
ATOM     14  C   LIG    1       -1.773   2.530  -5.187  0.00  0.00    -0.120 A 
ATOM     15  C   LIG    1       -0.851   3.576  -5.229  0.00  0.00    +0.140 A 
ATOM     16  C   LIG    1        0.489   3.306  -5.436  0.00  0.00    -0.010 A 
ATOM     17  C   LIG    1        0.918   2.000  -5.592  0.00  0.00    +0.100 A 
ATOM     18  C   LIG    1        0.010   0.958  -5.547  0.00  0.00    -0.010 A 
ATOM     19  F   LIG    1       -1.268   4.852  -5.071  0.00  0.00    -0.120 F 
ATOM     20  C   LIG    1       -1.333   1.215  -5.345  0.00  0.00    +0.140 A 
ATOM     21  F   LIG    1       -2.219   0.195  -5.301  0.00  0.00    -0.120 F 
ENDBRANCH  12  14
ENDBRANCH   2   8
BRANCH   7  22
ATOM     22  C   LIG    1       -7.053   5.601  -4.534  0.00  0.00    +0.000 C 
BRANCH  22  23
ATOM     23  C   LIG    1       -8.077   5.607  -5.670  0.00  0.00    +0.270 C 
BRANCH  23  24
ATOM     24  C   LIG    1       -7.485   6.289  -6.877  0.00  0.00    -0.130 A 
ATOM     25  C   LIG    1       -6.699   5.572  -7.759  0.00  0.00    +0.050 A 
ATOM     26  C   LIG    1       -6.161   6.195  -8.869  0.00  0.00    -0.010 A 
ATOM     27  C   LIG    1       -6.399   7.541  -9.091  0.00  0.00    +0.100 A 
ATOM     28  C   LIG    1       -7.182   8.259  -8.203  0.00  0.00    -0.010 A 
ATOM     29  F   LIG    1       -5.869   8.152 -10.172  0.00  0.00    -0.140 F 
ATOM     30  C   LIG    1       -7.724   7.633  -7.097  0.00  0.00    +0.060 A 
ENDBRANCH  23  24
BRANCH  23  31
ATOM     31  O   LIG    1       -8.424   4.262  -6.006  0.00  0.00    -0.550 OA
ATOM     32  H   LIG    1       -7.668   3.709  -6.249  0.00  0.00    +0.370 HD
ENDBRANCH  23  31
ENDBRANCH  22  23
ENDBRANCH   7  22
TORSDOF 6
