REMARK  Name = ZINCpe000000WY7V.0
REMARK                            x       y       z     vdW  Elec       q    Type
REMARK                         _______ _______ _______ _____ _____    ______ ____
ROOT
ATOM      1  C   LIG    1       -0.845  -0.751  -2.016  0.00  0.00    +0.200 C 
ENDROOT
BRANCH   1  12
ATOM      2  C   LIG    1        0.483   3.759   1.097  0.00  0.00    +0.020 C 
ATOM      3  C   LIG    1       -0.895   3.103   1.201  0.00  0.00    -0.020 C 
ATOM      4  C   LIG    1       -0.732   1.581   1.266  0.00  0.00    +0.020 C 
ATOM      5  C   LIG    1       -0.013   1.086   0.008  0.00  0.00    +0.250 C 
ATOM      6  N   LIG    1       -0.727   1.575  -1.182  0.00  0.00    -0.610 N 
ATOM      7  C   LIG    1       -0.991   3.013  -1.288  0.00  0.00    +0.220 C 
ATOM      8  C   LIG    1       -1.860   3.311  -2.510  0.00  0.00    +0.050 C 
ATOM      9  C   LIG    1       -2.108   4.820  -2.590  0.00  0.00    -0.010 C 
ATOM     10  C   LIG    1       -2.814   5.299  -1.321  0.00  0.00    +0.000 C 
ATOM     11  C   LIG    1       -1.955   4.978  -0.095  0.00  0.00    +0.030 C 
ATOM     12  C   LIG    1       -1.127   0.724  -2.147  0.00  0.00    +0.520 C 
ATOM     13  O   LIG    1       -1.715   1.144  -3.121  0.00  0.00    -0.500 OA
ATOM     14  C   LIG    1       -1.729   3.469  -0.025  0.00  0.00    -0.020 C 
ENDBRANCH   1  12
BRANCH   1  15
ATOM     15  N   LIG    1       -1.378  -1.458  -3.189  0.00  0.00    -0.470 NA
ATOM     16  C   LIG    1       -0.915  -2.865  -3.216  0.00  0.00    +0.280 C 
ATOM     17  C   LIG    1       -2.056  -3.655  -3.816  0.00  0.00    +0.170 A 
ATOM     18  C   LIG    1       -3.181  -2.909  -3.752  0.00  0.00    -0.270 A 
ATOM     19  C   LIG    1       -4.391  -3.440  -4.255  0.00  0.00    +0.570 A 
ATOM     20  N   LIG    1       -4.398  -4.679  -4.788  0.00  0.00    -0.650 N 
ATOM     21  H   LIG    1       -5.224  -5.051  -5.136  0.00  0.00    +0.440 HD
ATOM     22  C   LIG    1       -3.264  -5.401  -4.840  0.00  0.00    +0.710 A 
ATOM     23  O   LIG    1       -3.285  -6.517  -5.323  0.00  0.00    -0.530 OA
ATOM     24  O   LIG    1       -5.417  -2.785  -4.208  0.00  0.00    -0.500 OA
ATOM     25  N   LIG    1       -2.106  -4.907  -4.364  0.00  0.00    -0.620 N 
ATOM     26  H   LIG    1       -1.299  -5.444  -4.412  0.00  0.00    +0.440 HD
ATOM     27  C   LIG    1       -2.852  -1.583  -3.108  0.00  0.00    +0.280 C 
ENDBRANCH   1  15
TORSDOF 2
