REMARK  Name = ZINCrH000004v1xA.0
REMARK                            x       y       z     vdW  Elec       q    Type
REMARK                         _______ _______ _______ _____ _____    ______ ____
ROOT
ATOM      1  O   LIG    1       -0.601   7.101   3.332  0.00  0.00    -0.570 OA
ATOM      2  C   LIG    1       -0.239   5.941   3.281  0.00  0.00    +0.700 C 
ATOM      3  N   LIG    1        0.497   5.420   4.282  0.00  0.00    -0.730 N 
ATOM      4  H   LIG    1        0.785   4.495   4.242  0.00  0.00    +0.400 HD
ATOM      5  N   LIG    1       -0.575   5.177   2.223  0.00  0.00    -0.670 N 
ATOM      6  H   LIG    1       -0.360   4.231   2.221  0.00  0.00    +0.410 HD
ENDROOT
BRANCH   3   7
ATOM      7  C   LIG    1        0.863   6.252   5.432  0.00  0.00    +0.250 C 
ATOM      8  C   LIG    1       -0.275   6.235   6.458  0.00  0.00    -0.010 C 
ATOM      9  C   LIG    1        0.141   7.050   7.686  0.00  0.00    +0.220 C 
ATOM     10  O   LIG    1        1.341   6.501   8.236  0.00  0.00    -0.360 OA
ATOM     11  C   LIG    1        2.446   6.501   7.340  0.00  0.00    +0.090 C 
ATOM     12  C   LIG    1        2.827   7.945   6.961  0.00  0.00    -0.020 C 
ATOM     13  C   LIG    1        4.277   8.093   7.476  0.00  0.00    +0.220 C 
ATOM     14  O   LIG    1        4.790   6.744   7.531  0.00  0.00    -0.370 OA
ATOM     15  C   LIG    1        3.700   5.940   8.035  0.00  0.00    +0.240 C 
ATOM     16  C   LIG    1        2.132   5.694   6.086  0.00  0.00    +0.030 C 
ENDBRANCH   3   7
BRANCH   5  17
ATOM     17  C   LIG    1       -1.236   5.748   1.127  0.00  0.00    +0.170 A 
ATOM     18  C   LIG    1       -1.185   7.118   0.922  0.00  0.00    +0.060 A 
ATOM     19  C   LIG    1       -1.838   7.680  -0.161  0.00  0.00    -0.030 A 
ATOM     20  C   LIG    1       -2.542   6.878  -1.041  0.00  0.00    +0.020 A 
ATOM     21  C   LIG    1       -2.592   5.510  -0.847  0.00  0.00    +0.010 A 
ATOM     22 CL   LIG    1       -1.773   9.396  -0.415  0.00  0.00    -0.070 Cl
ATOM     23  C   LIG    1       -1.946   4.940   0.239  0.00  0.00    +0.070 A 
BRANCH  23  24
ATOM     24  N   LIG    1       -2.001   3.556   0.441  0.00  0.00    -0.490 N 
ATOM     25  C   LIG    1       -2.752   3.231   1.659  0.00  0.00    +0.180 C 
ATOM     26  C   LIG    1       -2.668   1.726   1.926  0.00  0.00    +0.020 C 
ATOM     27  C   LIG    1       -3.248   0.968   0.730  0.00  0.00    +0.010 C 
ATOM     28  C   LIG    1       -2.480   1.360  -0.536  0.00  0.00    +0.020 C 
ATOM     29  C   LIG    1       -2.568   2.876  -0.731  0.00  0.00    +0.180 C 
ENDBRANCH  23  24
ENDBRANCH   5  17
TORSDOF 3
