REMARK  Name = ZINCpe00000VVGag.0
REMARK                            x       y       z     vdW  Elec       q    Type
REMARK                         _______ _______ _______ _____ _____    ______ ____
ROOT
ATOM      1  C   LIG    1        0.002  -0.004   0.002  0.00  0.00    +0.590 C 
ATOM      2  N   LIG    1       -0.016   1.344   0.009  0.00  0.00    -0.710 N 
ATOM      3  H   LIG    1       -0.863   1.817   0.016  0.00  0.00    +0.410 HD
ATOM      4  O   LIG    1        1.063  -0.597  -0.011  0.00  0.00    -0.520 OA
ENDROOT
BRANCH   1   7
ATOM      5  N   LIG    1       -3.543  -0.728   0.033  0.00  0.00    -0.330 N 
ATOM      6  N   LIG    1       -2.414  -0.117   0.030  0.00  0.00    -0.180 NA
ATOM      7  C   LIG    1       -1.268  -0.761   0.010  0.00  0.00    +0.020 A 
ATOM      8  C   LIG    1       -1.247  -2.176   0.002  0.00  0.00    +0.140 A 
ATOM      9  C   LIG    1       -2.438  -2.840   0.011  0.00  0.00    -0.020 A 
ATOM     10  C   LIG    1       -3.623  -2.072   0.026  0.00  0.00    +0.480 A 
ATOM     11  O   LIG    1       -4.711  -2.622   0.034  0.00  0.00    -0.520 OA
BRANCH   5  12
ATOM     12  C   LIG    1       -4.779   0.059   0.049  0.00  0.00    +0.320 C 
BRANCH  12  14
ATOM     13  C   LIG    1       -6.485   1.147   1.515  0.00  0.00    +0.030 C 
ATOM     14  C   LIG    1       -5.195   0.325   1.498  0.00  0.00    +0.000 C 
ENDBRANCH  12  14
ENDBRANCH   5  12
ENDBRANCH   1   7
BRANCH   2  15
ATOM     15  C   LIG    1        1.242   2.093   0.001  0.00  0.00    +0.250 C 
ATOM     16  C   LIG    1        1.006   3.482  -0.599  0.00  0.00    +0.020 C 
ATOM     17  C   LIG    1        2.312   4.280  -0.548  0.00  0.00    +0.060 C 
ATOM     18  C   LIG    1        2.796   4.366   0.901  0.00  0.00    +0.210 C 
ATOM     19  N   LIG    1        3.008   3.013   1.429  0.00  0.00    -0.460 N 
ATOM     20  C   LIG    1        1.757   2.243   1.435  0.00  0.00    +0.220 C 
BRANCH  19  21
ATOM     21  C   LIG    1        3.569   3.056   2.694  0.00  0.00    +0.490 A 
ATOM     22  N   LIG    1        2.951   2.450   3.697  0.00  0.00    -0.550 NA
ATOM     23  C   LIG    1        3.463   2.467   4.916  0.00  0.00    +0.340 A 
ATOM     24  C   LIG    1        4.654   3.140   5.139  0.00  0.00    -0.110 A 
ATOM     25  C   LIG    1        5.272   3.768   4.069  0.00  0.00    +0.350 A 
ATOM     26  N   LIG    1        4.709   3.707   2.873  0.00  0.00    -0.530 NA
ENDBRANCH  19  21
ENDBRANCH   2  15
TORSDOF 5
