REMARK  Name = ZINCrD000000BHm7.0
REMARK                            x       y       z     vdW  Elec       q    Type
REMARK                         _______ _______ _______ _____ _____    ______ ____
ROOT
ATOM      1  C   LIG    1        3.086   3.704   0.010  0.00  0.00    +0.170 C 
ATOM      2  C   LIG    1        4.195   4.390  -0.827  0.00  0.00    +0.060 C 
ATOM      3  C   LIG    1        4.431   3.345  -1.949  0.00  0.00    +0.030 C 
ATOM      4  C   LIG    1        4.242   2.000  -1.218  0.00  0.00    +0.220 C 
ATOM      5  N   LIG    1        3.427   2.265  -0.018  0.00  0.00    -0.440 N 
ENDROOT
BRANCH   5   6
ATOM      6  C   LIG    1        2.289   1.488  -0.012  0.00  0.00    +0.410 A 
ATOM      7  N   LIG    1        1.085   2.043   0.003  0.00  0.00    -0.580 NA
ATOM      8  C   LIG    1       -0.016   1.308   0.009  0.00  0.00    +0.530 A 
ATOM      9  N   LIG    1        0.002  -0.004   0.002  0.00  0.00    -0.530 NA
ATOM     10  C   LIG    1        1.167  -0.668  -0.013  0.00  0.00    +0.170 A 
ATOM     11  C   LIG    1        1.224  -2.068  -0.021  0.00  0.00    +0.030 A 
ATOM     12  C   LIG    1        2.436  -2.693  -0.037  0.00  0.00    +0.060 A 
ATOM     13  C   LIG    1        3.620  -1.962  -0.044  0.00  0.00    +0.000 A 
ATOM     14  C   LIG    1        3.601  -0.598  -0.036  0.00  0.00    +0.070 A 
ATOM     15  C   LIG    1        2.374   0.074  -0.020  0.00  0.00    -0.160 A 
ENDBRANCH   5   6
BRANCH   1  17
ATOM     16  O   LIG    1        3.373   3.470   2.341  0.00  0.00    -0.510 OA
ATOM     17  C   LIG    1        3.103   4.220   1.426  0.00  0.00    +0.530 C 
ATOM     18  N   LIG    1        2.819   5.513   1.676  0.00  0.00    -0.720 N 
ATOM     19  H   LIG    1        2.603   6.112   0.944  0.00  0.00    +0.400 HD
BRANCH  18  20
ATOM     20  C   LIG    1        2.836   6.014   3.052  0.00  0.00    +0.320 C 
ATOM     21  C   LIG    1        1.923   7.242   3.166  0.00  0.00    +0.020 C 
ATOM     22  C   LIG    1        2.146   7.918   4.522  0.00  0.00    +0.050 C 
ATOM     23  C   LIG    1        3.531   8.575   4.546  0.00  0.00    +0.140 C 
ATOM     24  C   LIG    1        4.549   7.560   4.086  0.00  0.00    -0.010 A 
ATOM     25  O   LIG    1        5.877   7.601   4.244  0.00  0.00    -0.170 OA
ATOM     26  C   LIG    1        6.427   6.505   3.692  0.00  0.00    +0.150 A 
ATOM     27  C   LIG    1        5.441   5.748   3.172  0.00  0.00    -0.030 A 
ATOM     28  C   LIG    1        4.236   6.427   3.425  0.00  0.00    -0.190 A 
ENDBRANCH  18  20
ENDBRANCH   1  17
TORSDOF 3
