REMARK  Name = ZINCah0000006kZd.0
REMARK                            x       y       z     vdW  Elec       q    Type
REMARK                         _______ _______ _______ _____ _____    ______ ____
ROOT
ATOM      1  C   LIG    1       -0.961   1.696  -1.039  0.00  0.00    -0.070 C 
ATOM      2  C   LIG    1       -0.013   1.086   0.008  0.00  0.00    +0.070 C 
ATOM      3  C   LIG    1       -0.936   1.682   1.074  0.00  0.00    +0.080 C 
ATOM      4  C   LIG    1       -2.060   0.750   1.550  0.00  0.00    +0.030 C 
ATOM      5  C   LIG    1       -1.989   0.841   3.096  0.00  0.00    +0.000 C 
ATOM      6  C   LIG    1       -1.237   2.180   3.309  0.00  0.00    +0.190 C 
ATOM      7  O   LIG    1       -0.276   2.206   2.230  0.00  0.00    -0.360 OA
ATOM      8  C   LIG    1       -1.361   2.725   0.034  0.00  0.00    +0.040 C 
ENDROOT
BRANCH   1  10
ATOM      9  O   LIG    1       -0.458   1.883  -3.333  0.00  0.00    -0.460 OA
ATOM     10  C   LIG    1       -0.247   2.302  -2.220  0.00  0.00    +0.460 C 
ENDBRANCH   1  10
TORSDOF 1
