REMARK  Name = ZINCqH0000006MwD.1
REMARK                            x       y       z     vdW  Elec       q    Type
REMARK                         _______ _______ _______ _____ _____    ______ ____
ROOT
ATOM      1  N   LIG    1       -4.514  -2.078  -0.465  0.00  0.00    -0.360 N 
ATOM      2  C   LIG    1       -3.230  -2.758  -0.248  0.00  0.00    +0.300 C 
ATOM      3  H   LIG    1       -4.797  -1.614   0.385  0.00  0.00    +0.420 HD
ENDROOT
BRANCH   1   4
ATOM      4  C   LIG    1       -4.366  -1.086  -1.539  0.00  0.00    +0.330 C 
BRANCH   4   7
ATOM      5  C   LIG    1       -1.212   0.972  -1.240  0.00  0.00    +0.110 A 
ATOM      6  C   LIG    1       -2.113  -0.002  -1.638  0.00  0.00    -0.010 A 
ATOM      7  C   LIG    1       -3.390  -0.021  -1.108  0.00  0.00    -0.100 A 
ATOM      8  C   LIG    1       -3.775   0.938  -0.189  0.00  0.00    -0.050 A 
ATOM      9  C   LIG    1       -2.882   1.917   0.208  0.00  0.00    +0.060 A 
ATOM     10 CL   LIG    1       -5.382   0.913   0.467  0.00  0.00    -0.010 Cl
ATOM     11  C   LIG    1       -1.599   1.938  -0.315  0.00  0.00    +0.120 A 
BRANCH   5  13
ATOM     12  C   LIG    1        0.374  -0.033  -2.700  0.00  0.00    +0.250 C 
ATOM     13  O   LIG    1        0.046   0.989  -1.756  0.00  0.00    -0.300 OA
ENDBRANCH   5  13
BRANCH  11  14
ATOM     14  O   LIG    1       -0.720   2.899   0.075  0.00  0.00    -0.480 OA
ATOM     15  H   LIG    1       -0.742   3.697  -0.471  0.00  0.00    +0.400 HD
ENDBRANCH  11  14
ENDBRANCH   4   7
ENDBRANCH   1   4
BRANCH   1  16
ATOM     16  C   LIG    1       -5.533  -3.065  -0.847  0.00  0.00    +0.140 C 
BRANCH  16  17
ATOM     17  C   LIG    1       -5.643  -4.115   0.228  0.00  0.00    -0.050 A 
ATOM     18  C   LIG    1       -5.575  -3.750   1.559  0.00  0.00    +0.010 A 
ATOM     19  C   LIG    1       -5.681  -4.713   2.548  0.00  0.00    +0.120 A 
ATOM     20  C   LIG    1       -5.843  -6.045   2.203  0.00  0.00    +0.040 A 
ATOM     21  C   LIG    1       -5.905  -6.410   0.867  0.00  0.00    +0.110 A 
ATOM     22  F   LIG    1       -6.064  -7.708   0.528  0.00  0.00    -0.110 F 
ATOM     23  F   LIG    1       -5.942  -6.986   3.166  0.00  0.00    -0.110 F 
ATOM     24  F   LIG    1       -5.620  -4.354   3.849  0.00  0.00    -0.110 F 
ATOM     25  C   LIG    1       -5.805  -5.443  -0.119  0.00  0.00    +0.060 A 
ENDBRANCH  16  17
BRANCH  16  26
ATOM     26  C   LIG    1       -6.862  -2.376  -1.014  0.00  0.00    +0.500 C 
ATOM     27  O   LIG    1       -7.753  -2.914  -1.648  0.00  0.00    -0.620 OA
ATOM     28  O   LIG    1       -7.047  -1.279  -0.514  0.00  0.00    -0.640 OA
ENDBRANCH  16  26
ENDBRANCH   1  16
TORSDOF 7
