REMARK  Name = ZINCqH0000006MwD.2
REMARK                            x       y       z     vdW  Elec       q    Type
REMARK                         _______ _______ _______ _____ _____    ______ ____
ROOT
ATOM      1  N   LIG    1       -0.001  -0.188  -0.397  0.00  0.00    -0.360 N 
ATOM      2  C   LIG    1        0.521  -0.116  -1.768  0.00  0.00    +0.320 C 
ATOM      3  H   LIG    1        0.414  -0.974   0.080  0.00  0.00    +0.420 HD
ENDROOT
BRANCH   1   4
ATOM      4  C   LIG    1       -1.460  -0.355  -0.437  0.00  0.00    +0.310 C 
BRANCH   4   7
ATOM      5  C   LIG    1       -2.503  -2.835  -3.089  0.00  0.00    +0.120 A 
ATOM      6  C   LIG    1       -2.196  -1.644  -2.451  0.00  0.00    -0.010 A 
ATOM      7  C   LIG    1       -1.799  -1.651  -1.127  0.00  0.00    -0.100 A 
ATOM      8  C   LIG    1       -1.719  -2.844  -0.432  0.00  0.00    -0.050 A 
ATOM      9  C   LIG    1       -2.030  -4.037  -1.062  0.00  0.00    +0.070 A 
ATOM     10 CL   LIG    1       -1.228  -2.846   1.233  0.00  0.00    -0.040 Cl
ATOM     11  C   LIG    1       -2.422  -4.036  -2.390  0.00  0.00    +0.120 A 
BRANCH   5  13
ATOM     12  C   LIG    1       -2.948  -1.561  -5.047  0.00  0.00    +0.250 C 
ATOM     13  O   LIG    1       -2.888  -2.830  -4.393  0.00  0.00    -0.300 OA
ENDBRANCH   5  13
BRANCH  11  14
ATOM     14  O   LIG    1       -2.728  -5.207  -3.010  0.00  0.00    -0.480 OA
ATOM     15  H   LIG    1       -3.659  -5.458  -2.941  0.00  0.00    +0.400 HD
ENDBRANCH  11  14
ENDBRANCH   4   7
ENDBRANCH   1   4
BRANCH   1  16
ATOM     16  C   LIG    1        0.331   1.050   0.320  0.00  0.00    +0.140 C 
BRANCH  16  17
ATOM     17  C   LIG    1       -0.305   1.026   1.686  0.00  0.00    -0.050 A 
ATOM     18  C   LIG    1       -0.327  -0.147   2.416  0.00  0.00    +0.000 A 
ATOM     19  C   LIG    1       -0.905  -0.170   3.674  0.00  0.00    +0.110 A 
ATOM     20  C   LIG    1       -1.472   0.982   4.196  0.00  0.00    +0.040 A 
ATOM     21  C   LIG    1       -1.454   2.156   3.459  0.00  0.00    +0.110 A 
ATOM     22  F   LIG    1       -2.005   3.281   3.966  0.00  0.00    -0.110 F 
ATOM     23  F   LIG    1       -2.041   0.961   5.421  0.00  0.00    -0.110 F 
ATOM     24  F   LIG    1       -0.921  -1.315   4.390  0.00  0.00    -0.110 F 
ATOM     25  C   LIG    1       -0.869   2.176   2.204  0.00  0.00    +0.070 A 
ENDBRANCH  16  17
BRANCH  16  26
ATOM     26  C   LIG    1        1.827   1.162   0.463  0.00  0.00    +0.500 C 
ATOM     27  O   LIG    1        2.337   2.242   0.706  0.00  0.00    -0.620 OA
ATOM     28  O   LIG    1        2.527   0.172   0.337  0.00  0.00    -0.660 OA
ENDBRANCH  16  26
ENDBRANCH   1  16
TORSDOF 7
