REMARK  Name = ZINCtV00001bB3Fa.0
REMARK                            x       y       z     vdW  Elec       q    Type
REMARK                         _______ _______ _______ _____ _____    ______ ____
ROOT
ATOM      1  C   LIG    1        1.118  -6.004  -1.812  0.00  0.00    +0.270 C 
ATOM      2  C   LIG    1        0.201  -6.843  -1.217  0.00  0.00    -0.150 C 
ENDROOT
BRANCH   1   6
ATOM      3  C   LIG    1        0.914  -1.824  -1.133  0.00  0.00    +0.140 A 
ATOM      4  C   LIG    1        0.425  -2.707  -0.178  0.00  0.00    -0.040 A 
ATOM      5  C   LIG    1        0.489  -4.065  -0.393  0.00  0.00    +0.050 A 
ATOM      6  C   LIG    1        1.049  -4.560  -1.579  0.00  0.00    -0.120 A 
ATOM      7  C   LIG    1        1.542  -3.667  -2.543  0.00  0.00    +0.020 A 
ATOM      8  C   LIG    1        1.468  -2.308  -2.319  0.00  0.00    +0.090 A 
BRANCH   8   9
ATOM      9  O   LIG    1        1.940  -1.439  -3.253  0.00  0.00    -0.300 OA
ATOM     10  C   LIG    1        2.493  -2.004  -4.444  0.00  0.00    +0.240 C 
ENDBRANCH   8   9
BRANCH   3  11
ATOM     11  O   LIG    1        0.848  -0.486  -0.914  0.00  0.00    -0.300 OA
BRANCH  11  12
ATOM     12  C   LIG    1        0.264  -0.058   0.318  0.00  0.00    +0.190 C 
BRANCH  12  13
ATOM     13  C   LIG    1        0.277   1.470   0.385  0.00  0.00    +0.040 C 
BRANCH  13  14
ATOM     14  C   LIG    1       -0.348   1.928   1.704  0.00  0.00    +0.020 C 
BRANCH  14  16
ATOM     15  C   LIG    1       -0.960   3.915   3.091  0.00  0.00    +0.010 C 
ATOM     16  C   LIG    1       -0.335   3.457   1.771  0.00  0.00    +0.000 C 
ENDBRANCH  14  16
ENDBRANCH  13  14
ENDBRANCH  12  13
ENDBRANCH  11  12
ENDBRANCH   3  11
ENDBRANCH   1   6
BRANCH   2  17
ATOM     17  C   LIG    1        0.371  -8.301  -1.307  0.00  0.00    +0.580 C 
ATOM     18  N   LIG    1       -0.526  -9.121  -0.725  0.00  0.00    -0.660 N 
ATOM     19  H   LIG    1       -1.325  -8.754  -0.315  0.00  0.00    +0.420 HD
ATOM     20  O   LIG    1        1.322  -8.767  -1.906  0.00  0.00    -0.500 OA
BRANCH  18  21
ATOM     21  C   LIG    1       -0.305 -10.502  -0.711  0.00  0.00    +0.170 A 
ATOM     22  C   LIG    1        0.987 -11.002  -0.810  0.00  0.00    +0.040 A 
ATOM     23  C   LIG    1        1.203 -12.366  -0.791  0.00  0.00    +0.070 A 
ATOM     24  C   LIG    1        0.134 -13.236  -0.685  0.00  0.00    +0.030 A 
ATOM     25  C   LIG    1       -1.156 -12.743  -0.592  0.00  0.00    -0.010 A 
ATOM     26 CL   LIG    1       -2.496 -13.839  -0.459  0.00  0.00    -0.040 Cl
ATOM     27  C   LIG    1       -1.379 -11.379  -0.605  0.00  0.00    -0.070 A 
ATOM     28 CL   LIG    1       -2.997 -10.760  -0.487  0.00  0.00    -0.040 Cl
ENDBRANCH  18  21
ENDBRANCH   2  17
BRANCH   2  29
ATOM     29  C   LIG    1       -0.918  -6.295  -0.511  0.00  0.00    +0.240 C 
ATOM     30  N   LIG    1       -1.806  -5.860   0.049  0.00  0.00    -0.400 NA
ENDBRANCH   2  29
TORSDOF 10
