REMARK  Name = ZINCnE000005qvjE.0
REMARK                            x       y       z     vdW  Elec       q    Type
REMARK                         _______ _______ _______ _____ _____    ______ ____
ROOT
ATOM      1  C   LIG    1        1.892   3.712   0.004  0.00  0.00    +0.080 C 
ENDROOT
BRANCH   1   2
ATOM      2  C   LIG    1        3.355   4.071  -0.008  0.00  0.00    +0.520 C 
ATOM      3  N   LIG    1        3.732   5.365  -0.005  0.00  0.00    -0.730 N 
ATOM      4  H   LIG    1        3.061   6.066   0.005  0.00  0.00    +0.400 HD
ATOM      5  O   LIG    1        4.194   3.196  -0.021  0.00  0.00    -0.530 OA
BRANCH   3   6
ATOM      6  C   LIG    1        5.155   5.714  -0.017  0.00  0.00    +0.280 C 
ATOM      7  C   LIG    1        5.694   5.706   1.415  0.00  0.00    +0.040 C 
BRANCH   6   8
ATOM      8  C   LIG    1        5.330   7.088  -0.611  0.00  0.00    -0.090 A 
ATOM      9  C   LIG    1        4.430   8.092  -0.309  0.00  0.00    +0.010 A 
ATOM     10  C   LIG    1        4.593   9.353  -0.851  0.00  0.00    +0.000 A 
ATOM     11  C   LIG    1        5.652   9.607  -1.703  0.00  0.00    +0.000 A 
ATOM     12  C   LIG    1        6.549   8.602  -2.009  0.00  0.00    +0.000 A 
ATOM     13  C   LIG    1        6.388   7.342  -1.464  0.00  0.00    +0.010 A 
ENDBRANCH   6   8
ENDBRANCH   3   6
ENDBRANCH   1   2
BRANCH   1  14
ATOM     14  C   LIG    1        1.740   2.190  -0.003  0.00  0.00    +0.100 C 
BRANCH  14  15
ATOM     15  S   LIG    1       -0.022   1.758   0.012  0.00  0.00    -0.050 S 
BRANCH  15  20
ATOM     16  N   LIG    1       -0.852  -3.813  -0.008  0.00  0.00    -0.630 NA
ATOM     17  C   LIG    1       -0.426  -2.573  -0.006  0.00  0.00    +0.340 A 
ATOM     18  N   LIG    1        0.867  -2.134  -0.017  0.00  0.00    -0.510 NA
ATOM     19  N   LIG    1        1.047  -0.769  -0.012  0.00  0.00    -0.240 NA
ATOM     20  C   LIG    1        0.002  -0.004   0.002  0.00  0.00    -0.060 A 
ATOM     21  S   LIG    1       -1.399  -1.090   0.017  0.00  0.00    -0.100 S 
BRANCH  16  22
ATOM     22  C   LIG    1        0.109  -4.918  -0.023  0.00  0.00    +0.200 C 
BRANCH  22  24
ATOM     23  C   LIG    1       -0.220  -6.989   1.228  0.00  0.00    -0.040 C 
ATOM     24  C   LIG    1       -0.002  -5.697   1.262  0.00  0.00    -0.010 C 
ENDBRANCH  22  24
ENDBRANCH  16  22
ENDBRANCH  15  20
ENDBRANCH  14  15
ENDBRANCH   1  14
TORSDOF 8
