REMARK  Name = ZINCqH0000002Zc7.0
REMARK                            x       y       z     vdW  Elec       q    Type
REMARK                         _______ _______ _______ _____ _____    ______ ____
ROOT
ATOM      1  N   LIG    1       -1.767  -1.057   1.368  0.00  0.00    -0.510 NA
ENDROOT
BRANCH   1   3
ATOM      2  C   LIG    1       -2.913   1.001   0.699  0.00  0.00    -0.010 C 
ATOM      3  C   LIG    1       -2.034   0.334   1.759  0.00  0.00    +0.210 C 
ENDBRANCH   1   3
BRANCH   1   4
ATOM      4  C   LIG    1       -1.108  -1.118   0.057  0.00  0.00    +0.360 C 
BRANCH   4   5
ATOM      5  C   LIG    1        0.264  -0.503   0.154  0.00  0.00    +0.200 A 
ATOM      6  N   LIG    1        1.376  -1.127   0.451  0.00  0.00    -0.450 NA
ATOM      7  C   LIG    1        2.343  -0.180   0.420  0.00  0.00    +0.250 A 
ATOM      8  N   LIG    1        1.764   0.953   0.108  0.00  0.00    -0.360 NA
ATOM      9  O   LIG    1        0.573   0.782  -0.047  0.00  0.00    +0.090 OA
BRANCH   7  10
ATOM     10  C   LIG    1        3.782  -0.386   0.687  0.00  0.00    +0.040 A 
ATOM     11  C   LIG    1        4.745   0.573   0.652  0.00  0.00    +0.020 A 
ATOM     12  C   LIG    1        5.962  -0.063   0.968  0.00  0.00    -0.060 A 
ATOM     13  C   LIG    1        5.684  -1.365   1.177  0.00  0.00    +0.210 A 
ATOM     14  O   LIG    1        4.366  -1.556   1.012  0.00  0.00    -0.150 OA
ENDBRANCH   7  10
ENDBRANCH   4   5
ENDBRANCH   1   4
BRANCH   1  15
ATOM     15  C   LIG    1       -3.002  -1.853   1.375  0.00  0.00    +0.240 C 
BRANCH  15  16
ATOM     16  C   LIG    1       -3.432  -2.100   2.798  0.00  0.00    +0.510 C 
ATOM     17  N   LIG    1       -4.604  -2.715   3.050  0.00  0.00    -0.670 N 
ATOM     18  H   LIG    1       -5.136  -3.065   2.318  0.00  0.00    +0.410 HD
ATOM     19  O   LIG    1       -2.723  -1.747   3.716  0.00  0.00    -0.490 OA
BRANCH  17  20
ATOM     20  C   LIG    1       -5.054  -2.850   4.369  0.00  0.00    +0.160 A 
ATOM     21  C   LIG    1       -4.141  -2.912   5.412  0.00  0.00    +0.040 A 
ATOM     22  C   LIG    1       -4.589  -3.045   6.713  0.00  0.00    -0.020 A 
ATOM     23  C   LIG    1       -5.946  -3.116   6.975  0.00  0.00    +0.010 A 
ATOM     24  C   LIG    1       -6.857  -3.054   5.937  0.00  0.00    +0.050 A 
ATOM     25 CL   LIG    1       -3.448  -3.123   8.020  0.00  0.00    -0.060 Cl
ATOM     26  C   LIG    1       -6.415  -2.916   4.636  0.00  0.00    -0.110 A 
ATOM     27  C   LIG    1       -7.410  -2.842   3.506  0.00  0.00    +0.090 C 
ENDBRANCH  17  20
ENDBRANCH  15  16
ENDBRANCH   1  15
TORSDOF 7
