REMARK  Name = ZINCvU0000000Bou.0
REMARK                            x       y       z     vdW  Elec       q    Type
REMARK                         _______ _______ _______ _____ _____    ______ ____
ROOT
ATOM      1  C   LIG    1       -2.137   9.550  -0.158  0.00  0.00    +0.130 A 
ATOM      2  C   LIG    1       -2.220   8.168  -0.193  0.00  0.00    +0.060 A 
ATOM      3  C   LIG    1       -1.085   7.399   0.064  0.00  0.00    -0.100 A 
ATOM      4  C   LIG    1        0.125   8.027   0.360  0.00  0.00    +0.010 A 
ATOM      5  C   LIG    1        0.198   9.405   0.388  0.00  0.00    +0.060 A 
ATOM      6  C   LIG    1       -0.927  10.166   0.133  0.00  0.00    -0.040 A 
ENDROOT
BRANCH   3   7
ATOM      7  C   LIG    1       -1.166   5.923   0.029  0.00  0.00    +0.560 C 
ATOM      8  N   LIG    1       -0.068   5.182   0.278  0.00  0.00    -0.670 N 
ATOM      9  H   LIG    1        0.757   5.614   0.549  0.00  0.00    +0.410 HD
ATOM     10  O   LIG    1       -2.223   5.378  -0.224  0.00  0.00    -0.510 OA
BRANCH   8  11
ATOM     11  C   LIG    1       -0.119   3.791   0.144  0.00  0.00    +0.130 A 
ATOM     12  C   LIG    1        0.766   3.140  -0.706  0.00  0.00    -0.080 A 
ATOM     13  C   LIG    1        0.713   1.766  -0.835  0.00  0.00    +0.020 A 
ATOM     14  C   LIG    1       -0.219   1.038  -0.119  0.00  0.00    +0.010 A 
ATOM     15  C   LIG    1       -1.105   1.683   0.725  0.00  0.00    +0.010 A 
ATOM     16  C   LIG    1       -1.054   3.057   0.862  0.00  0.00    -0.070 A 
ATOM     17  C   LIG    1       -2.016   3.758   1.786  0.00  0.00    +0.090 C 
BRANCH  12  18
ATOM     18  C   LIG    1        1.782   3.933  -1.487  0.00  0.00    +0.010 C 
ATOM     19  C   LIG    1        1.560   3.712  -2.984  0.00  0.00    +0.040 C 
ATOM     20  C   LIG    1        3.191   3.472  -1.106  0.00  0.00    +0.040 C 
ENDBRANCH  12  18
ENDBRANCH   8  11
ENDBRANCH   3   7
BRANCH   1  21
ATOM     21  O   LIG    1       -3.240  10.304  -0.407  0.00  0.00    -0.310 OA
BRANCH  21  22
ATOM     22  C   LIG    1       -3.082  11.723  -0.354  0.00  0.00    +0.330 C 
BRANCH  22  30
ATOM     23  C   LIG    1       -5.976  16.454  -0.979  0.00  0.00    +0.120 C 
ATOM     24  C   LIG    1       -6.638  15.111  -1.149  0.00  0.00    -0.040 A 
ATOM     25  C   LIG    1       -7.959  15.030  -1.460  0.00  0.00    +0.030 A 
ATOM     26  C   LIG    1       -8.562  13.771  -1.615  0.00  0.00    +0.020 A 
ATOM     27  C   LIG    1       -7.837  12.645  -1.457  0.00  0.00    +0.220 A 
ATOM     28  N   LIG    1       -6.510  12.711  -1.145  0.00  0.00    -0.360 N 
ATOM     29  C   LIG    1       -5.558  11.749  -0.938  0.00  0.00    +0.120 A 
ATOM     30  C   LIG    1       -4.401  12.387  -0.655  0.00  0.00    +0.050 A 
ATOM     31  N   LIG    1       -4.620  13.703  -0.691  0.00  0.00    -0.480 NA
ATOM     32  C   LIG    1       -5.893  13.925  -0.987  0.00  0.00    +0.230 A 
ENDBRANCH  22  30
ENDBRANCH  21  22
ENDBRANCH   1  21
TORSDOF 6
