REMARK  Name = ZINCrH000004ka0u.0
REMARK                            x       y       z     vdW  Elec       q    Type
REMARK                         _______ _______ _______ _____ _____    ______ ____
ROOT
ATOM      1  C   LIG    1       -2.811   1.844   2.109  0.00  0.00    +0.570 C 
ATOM      2  N   LIG    1       -2.522   1.088   1.031  0.00  0.00    -0.700 N 
ATOM      3  H   LIG    1       -2.562   1.475   0.143  0.00  0.00    +0.400 HD
ATOM      4  O   LIG    1       -2.760   1.359   3.223  0.00  0.00    -0.540 OA
ENDROOT
BRANCH   1  11
ATOM      5  C   LIG    1       -3.103   8.147   1.483  0.00  0.00    +0.220 C 
ATOM      6  N   LIG    1       -4.267   7.274   1.682  0.00  0.00    -0.500 N 
ATOM      7  C   LIG    1       -4.889   7.513   3.002  0.00  0.00    +0.230 C 
ATOM      8  C   LIG    1       -4.224   6.436   3.890  0.00  0.00    +0.060 C 
ATOM      9  C   LIG    1       -3.844   5.365   2.887  0.00  0.00    -0.150 A 
ATOM     10  C   LIG    1       -3.497   4.046   3.052  0.00  0.00    +0.100 A 
ATOM     11  C   LIG    1       -3.190   3.259   1.937  0.00  0.00    -0.140 A 
ATOM     12  C   LIG    1       -3.250   3.821   0.659  0.00  0.00    +0.070 A 
ATOM     13  C   LIG    1       -3.601   5.140   0.501  0.00  0.00    +0.010 A 
ATOM     14  C   LIG    1       -3.901   5.930   1.614  0.00  0.00    +0.120 A 
ENDBRANCH   1  11
BRANCH   2  15
ATOM     15  C   LIG    1       -2.145  -0.317   1.202  0.00  0.00    +0.300 C 
BRANCH  15  16
ATOM     16  C   LIG    1       -3.389  -1.164   1.281  0.00  0.00    -0.100 A 
ATOM     17  C   LIG    1       -4.467  -0.888   0.461  0.00  0.00    +0.020 A 
ATOM     18  C   LIG    1       -5.607  -1.667   0.531  0.00  0.00    +0.000 A 
ATOM     19  C   LIG    1       -5.672  -2.718   1.427  0.00  0.00    +0.000 A 
ATOM     20  C   LIG    1       -4.596  -2.991   2.251  0.00  0.00    +0.000 A 
ATOM     21  C   LIG    1       -3.455  -2.214   2.178  0.00  0.00    +0.020 A 
ENDBRANCH  15  16
BRANCH  15  22
ATOM     22  C   LIG    1       -1.298  -0.767   0.010  0.00  0.00    +0.120 C 
BRANCH  22  23
ATOM     23  C   LIG    1        0.002  -0.004   0.002  0.00  0.00    +0.130 A 
ATOM     24  C   LIG    1        1.199  -0.695  -0.013  0.00  0.00    -0.040 A 
ATOM     25  C   LIG    1        2.389   0.017  -0.021  0.00  0.00    +0.060 A 
ATOM     26  C   LIG    1        2.331   1.401  -0.013  0.00  0.00    -0.050 A 
ATOM     27  C   LIG    1        1.096   2.023   0.003  0.00  0.00    +0.250 A 
ATOM     28  N   LIG    1       -0.016   1.315   0.009  0.00  0.00    -0.470 NA
ENDBRANCH  22  23
ENDBRANCH  15  22
ENDBRANCH   2  15
TORSDOF 5
