REMARK  Name = ZINCvU0000000IKp.0
REMARK                            x       y       z     vdW  Elec       q    Type
REMARK                         _______ _______ _______ _____ _____    ______ ____
ROOT
ATOM      1  C   LIG    1       -0.722   4.049   0.030  0.00  0.00    +0.050 C 
ENDROOT
BRANCH   1   2
ATOM      2  C   LIG    1       -1.006   5.529   0.040  0.00  0.00    +0.450 C 
ATOM      3  O   LIG    1       -0.087   6.325   0.035  0.00  0.00    -0.520 OA
BRANCH   2   4
ATOM      4  C   LIG    1       -2.333   5.990   0.054  0.00  0.00    -0.350 C 
ATOM      5  C   LIG    1       -2.598   7.371   0.064  0.00  0.00    +0.530 A 
ATOM      6  N   LIG    1       -1.659   8.352   0.066  0.00  0.00    -0.580 N 
ATOM      7  H   LIG    1       -0.698   8.219   0.061  0.00  0.00    +0.460 HD
ATOM      8  C   LIG    1       -2.311   9.580   0.072  0.00  0.00    +0.080 A 
ATOM      9  C   LIG    1       -1.859  10.893   0.075  0.00  0.00    +0.050 A 
ATOM     10  C   LIG    1       -2.768  11.932   0.090  0.00  0.00    +0.040 A 
ATOM     11  C   LIG    1       -4.128  11.671   0.101  0.00  0.00    +0.040 A 
ATOM     12  C   LIG    1       -4.587  10.369   0.098  0.00  0.00    +0.040 A 
ATOM     13  C   LIG    1       -3.683   9.317   0.084  0.00  0.00    +0.080 A 
ATOM     14  N   LIG    1       -3.834   7.935   0.078  0.00  0.00    -0.600 N 
ATOM     15  H   LIG    1       -4.677   7.456   0.084  0.00  0.00    +0.450 HD
BRANCH   4  16
ATOM     16  C   LIG    1       -3.416   5.053   0.060  0.00  0.00    +0.280 C 
ATOM     17  N   LIG    1       -4.276   4.310   0.064  0.00  0.00    -0.450 NA
ENDBRANCH   4  16
ENDBRANCH   2   4
ENDBRANCH   1   2
BRANCH   1  18
ATOM     18  S   LIG    1        1.067   3.778   0.012  0.00  0.00    +0.070 S 
BRANCH  18  22
ATOM     19  C   LIG    1       -1.307  -0.751   0.011  0.00  0.00    +0.180 C 
ATOM     20  C   LIG    1        0.002  -0.004   0.002  0.00  0.00    +0.350 A 
ATOM     21  N   LIG    1       -0.016   1.316   0.009  0.00  0.00    -0.520 NA
ATOM     22  C   LIG    1        1.110   2.017   0.002  0.00  0.00    +0.200 A 
ATOM     23  C   LIG    1        2.348   1.327  -0.013  0.00  0.00    -0.170 A 
ATOM     24  C   LIG    1        3.713   1.839  -0.024  0.00  0.00    +0.000 A 
ATOM     25  C   LIG    1        4.654   0.895  -0.040  0.00  0.00    +0.000 A 
ATOM     26  S   LIG    1        3.947  -0.709  -0.041  0.00  0.00    +0.190 S 
ATOM     27  C   LIG    1        2.311  -0.068  -0.021  0.00  0.00    +0.100 A 
ATOM     28  N   LIG    1        1.123  -0.687  -0.013  0.00  0.00    -0.500 NA
BRANCH  24  29
ATOM     29  C   LIG    1        4.027   3.283  -0.019  0.00  0.00    -0.160 A 
ATOM     30  C   LIG    1        4.888   3.889   0.823  0.00  0.00    +0.030 A 
ATOM     31  C   LIG    1        5.018   5.251   0.632  0.00  0.00    +0.010 A 
ATOM     32  C   LIG    1        4.267   5.759  -0.348  0.00  0.00    -0.050 A 
ATOM     33  S   LIG    1        3.330   4.478  -1.105  0.00  0.00    +0.190 S 
ENDBRANCH  24  29
ENDBRANCH  18  22
ENDBRANCH   1  18
TORSDOF 6
