REMARK  Name = ZINCvU0000000DwI.0
REMARK                            x       y       z     vdW  Elec       q    Type
REMARK                         _______ _______ _______ _____ _____    ______ ____
ROOT
ATOM      1  C   LIG    1       -1.962  -5.829   3.802  0.00  0.00    +0.610 C 
ATOM      2  N   LIG    1       -1.185  -4.753   4.037  0.00  0.00    -0.540 N 
ATOM      3  C   LIG    1       -0.116  -4.808   5.045  0.00  0.00    +0.290 C 
ATOM      4  C   LIG    1       -0.179  -3.528   5.884  0.00  0.00    +0.250 C 
ATOM      5  N   LIG    1       -0.074  -2.374   4.979  0.00  0.00    -0.540 N 
ATOM      6  C   LIG    1       -0.828  -2.372   3.797  0.00  0.00    +0.120 A 
ATOM      7  C   LIG    1       -1.024  -1.193   3.096  0.00  0.00    +0.040 A 
ATOM      8  C   LIG    1       -1.768  -1.200   1.930  0.00  0.00    +0.020 A 
ATOM      9  C   LIG    1       -2.315  -2.381   1.460  0.00  0.00    +0.010 A 
ATOM     10  C   LIG    1       -2.123  -3.561   2.154  0.00  0.00    +0.040 A 
ATOM     11  C   LIG    1        0.736  -1.339   5.279  0.00  0.00    +0.610 C 
ATOM     12  O   LIG    1        0.793  -0.376   4.537  0.00  0.00    -0.500 OA
ATOM     13  C   LIG    1       -1.381  -3.562   3.324  0.00  0.00    +0.120 A 
ATOM     14  O   LIG    1       -2.818  -5.785   2.938  0.00  0.00    -0.490 OA
ENDROOT
BRANCH   1  18
ATOM     15  C   LIG    1       -1.032  -8.456   6.101  0.00  0.00    +0.030 A 
ATOM     16  C   LIG    1       -1.950  -9.126   5.370  0.00  0.00    -0.060 A 
ATOM     17  C   LIG    1       -2.438  -8.234   4.402  0.00  0.00    +0.060 A 
ATOM     18  C   LIG    1       -1.778  -7.053   4.589  0.00  0.00    -0.090 A 
ATOM     19  O   LIG    1       -0.930  -7.207   5.627  0.00  0.00    -0.160 OA
BRANCH  15  21
ATOM     20  C   LIG    1        1.051  -9.641   6.741  0.00  0.00    +0.040 C 
ATOM     21  C   LIG    1       -0.249  -9.022   7.258  0.00  0.00    +0.140 C 
ENDBRANCH  15  21
ENDBRANCH   1  18
BRANCH  11  22
ATOM     22  C   LIG    1        1.550  -1.374   6.498  0.00  0.00    -0.090 A 
ATOM     23  C   LIG    1        2.515  -0.473   6.845  0.00  0.00    +0.060 A 
ATOM     24  C   LIG    1        3.028  -0.887   8.084  0.00  0.00    -0.060 A 
ATOM     25  C   LIG    1        2.368  -2.014   8.430  0.00  0.00    +0.020 A 
ATOM     26  O   LIG    1        1.476  -2.303   7.474  0.00  0.00    -0.160 OA
BRANCH  25  27
ATOM     27  C   LIG    1        2.595  -2.812   9.689  0.00  0.00    +0.140 C 
ATOM     28  C   LIG    1        1.681  -2.285  10.797  0.00  0.00    +0.040 C 
ENDBRANCH  25  27
ENDBRANCH  11  22
BRANCH   4  29
ATOM     29  C   LIG    1       -1.511  -3.475   6.636  0.00  0.00    -0.020 C 
ATOM     30  C   LIG    1       -1.562  -2.208   7.493  0.00  0.00    +0.020 C 
ATOM     31  C   LIG    1       -1.638  -4.705   7.537  0.00  0.00    +0.030 C 
ENDBRANCH   4  29
TORSDOF 5
