REMARK  Name = ZINCvU0000000FlB.0
REMARK                            x       y       z     vdW  Elec       q    Type
REMARK                         _______ _______ _______ _____ _____    ______ ____
ROOT
ATOM      1  N   LIG    1       -3.295   1.820  -1.111  0.00  0.00    -0.710 N 
ATOM      2  H   LIG    1       -2.838   1.947  -1.956  0.00  0.00    +0.400 HD
ATOM      3  C   LIG    1       -2.627   1.986   0.048  0.00  0.00    +0.600 C 
ATOM      4  O   LIG    1       -3.201   1.826   1.109  0.00  0.00    -0.510 OA
ENDROOT
BRANCH   3   5
ATOM      5  C   LIG    1       -1.204   2.361   0.031  0.00  0.00    -0.230 A 
ATOM      6  C   LIG    1       -0.649   3.616   0.032  0.00  0.00    +0.020 A 
ATOM      7  O   LIG    1        0.675   3.447   0.007  0.00  0.00    +0.110 OA
ATOM      8  N   LIG    1        1.010   2.288  -0.005  0.00  0.00    -0.320 NA
ATOM      9  C   LIG    1       -1.390   4.928   0.051  0.00  0.00    +0.210 C 
ATOM     10  C   LIG    1       -0.018   1.478   0.010  0.00  0.00    +0.080 A 
BRANCH  10  11
ATOM     11  C   LIG    1        0.002  -0.004   0.002  0.00  0.00    -0.060 A 
ATOM     12  C   LIG    1       -0.751  -0.721   0.934  0.00  0.00    +0.140 A 
ATOM     13  C   LIG    1       -0.731  -2.103   0.917  0.00  0.00    +0.000 A 
ATOM     14  C   LIG    1        0.041  -2.775  -0.013  0.00  0.00    +0.090 A 
ATOM     15  C   LIG    1        0.793  -2.070  -0.935  0.00  0.00    +0.030 A 
ATOM     16  F   LIG    1       -1.501  -0.065   1.847  0.00  0.00    -0.110 F 
ATOM     17  C   LIG    1        0.778  -0.689  -0.933  0.00  0.00    +0.020 A 
ATOM     18 CL   LIG    1        1.724   0.193  -2.092  0.00  0.00    -0.040 Cl
ENDBRANCH  10  11
ENDBRANCH   3   5
BRANCH   1  19
ATOM     19  C   LIG    1       -4.712   1.447  -1.093  0.00  0.00    +0.340 C 
BRANCH  19  29
ATOM     20  C   LIG    1       -4.952   0.177  -3.239  0.00  0.00    +0.130 A 
ATOM     21  C   LIG    1       -5.426   0.067  -4.539  0.00  0.00    -0.030 A 
ATOM     22  C   LIG    1       -6.147   1.099  -5.098  0.00  0.00    -0.120 A 
ATOM     23  C   LIG    1       -6.408   2.257  -4.377  0.00  0.00    +0.070 A 
ATOM     24  O   LIG    1       -7.119   3.151  -5.120  0.00  0.00    -0.300 OA
ATOM     25  C   LIG    1       -7.742   2.464  -6.219  0.00  0.00    +0.200 C 
ATOM     26  C   LIG    1       -9.138   1.973  -5.830  0.00  0.00    +0.040 C 
ATOM     27  C   LIG    1       -5.935   2.359  -3.071  0.00  0.00    +0.060 A 
ATOM     28  C   LIG    1       -6.788   1.270  -6.461  0.00  0.00    +0.080 C 
ATOM     29  C   LIG    1       -5.217   1.326  -2.508  0.00  0.00    -0.110 A 
BRANCH  20  30
ATOM     30  O   LIG    1       -4.237  -0.837  -2.684  0.00  0.00    -0.310 OA
BRANCH  30  32
ATOM     31  C   LIG    1       -3.189  -3.015  -2.710  0.00  0.00    +0.070 C 
ATOM     32  C   LIG    1       -4.004  -1.988  -3.499  0.00  0.00    +0.170 C 
ENDBRANCH  30  32
ENDBRANCH  20  30
ENDBRANCH  19  29
ENDBRANCH   1  19
TORSDOF 6
