REMARK  Name = ZINCqH0000004NfS.0
REMARK                            x       y       z     vdW  Elec       q    Type
REMARK                         _______ _______ _______ _____ _____    ______ ____
ROOT
ATOM      1  C   LIG    1       -4.623   8.732  -6.800  0.00  0.00    +0.130 A 
ATOM      2  N   LIG    1       -3.972   7.603  -6.633  0.00  0.00    -0.430 NA
ATOM      3  C   LIG    1       -3.748   7.142  -5.398  0.00  0.00    +0.100 A 
ATOM      4  C   LIG    1       -3.053   5.936  -5.192  0.00  0.00    +0.060 A 
ATOM      5  C   LIG    1       -2.828   5.486  -3.932  0.00  0.00    +0.090 A 
ATOM      6  C   LIG    1       -3.293   6.205  -2.816  0.00  0.00    -0.110 A 
ATOM      7  C   LIG    1       -3.980   7.396  -2.985  0.00  0.00    +0.160 A 
ATOM      8  C   LIG    1       -4.217   7.880  -4.281  0.00  0.00    +0.060 A 
ATOM      9  N   LIG    1       -4.877   9.028  -4.477  0.00  0.00    -0.410 NA
ATOM     10  C   LIG    1       -5.084   9.459  -5.699  0.00  0.00    +0.120 A 
ENDROOT
BRANCH   1  12
ATOM     11  C   LIG    1       -6.192   8.679  -8.719  0.00  0.00    +0.040 C 
ATOM     12  C   LIG    1       -4.873   9.249  -8.193  0.00  0.00    +0.100 C 
ENDBRANCH   1  12
BRANCH   6  13
ATOM     13  C   LIG    1       -3.041   5.690  -1.454  0.00  0.00    +0.520 C 
ATOM     14  O   LIG    1       -3.435   6.311  -0.488  0.00  0.00    -0.490 OA
BRANCH  13  15
ATOM     15  O   LIG    1       -2.373   4.533  -1.285  0.00  0.00    -0.350 OA
BRANCH  15  16
ATOM     16  C   LIG    1       -2.161   4.088   0.081  0.00  0.00    +0.360 C 
BRANCH  16  17
ATOM     17  C   LIG    1       -1.403   2.785   0.073  0.00  0.00    +0.210 A 
ATOM     18  N   LIG    1       -0.104   2.661   0.100  0.00  0.00    -0.450 NA
ATOM     19  C   LIG    1        0.217   1.359   0.081  0.00  0.00    +0.180 A 
ATOM     20  C   LIG    1       -0.927   0.649   0.041  0.00  0.00    +0.160 A 
ATOM     21  N   LIG    1       -1.954   1.554   0.030  0.00  0.00    -0.510 N 
BRANCH  21  22
ATOM     22  C   LIG    1       -3.385   1.243  -0.017  0.00  0.00    +0.640 C 
ATOM     23  F   LIG    1       -4.102   2.247   0.643  0.00  0.00    -0.180 F 
ATOM     24  F   LIG    1       -3.617   0.015   0.612  0.00  0.00    -0.170 F 
ENDBRANCH  21  22
ENDBRANCH  16  17
ENDBRANCH  15  16
ENDBRANCH  13  15
ENDBRANCH   6  13
BRANCH  10  25
ATOM     25  C   LIG    1       -5.828  10.751  -5.918  0.00  0.00    +0.100 C 
ATOM     26  C   LIG    1       -4.835  11.915  -5.931  0.00  0.00    +0.040 C 
ENDBRANCH  10  25
TORSDOF 7
