REMARK  Name = ZINCrD00000hQ6ah.0
REMARK                            x       y       z     vdW  Elec       q    Type
REMARK                         _______ _______ _______ _____ _____    ______ ____
ROOT
ATOM      1  N   LIG    1       -0.037  -0.644   2.223  0.00  0.00    -0.470 N 
ATOM      2  C   LIG    1       -0.790  -1.607   2.837  0.00  0.00    +0.150 A 
ATOM      3  N   LIG    1       -2.041  -1.263   2.706  0.00  0.00    -0.250 NA
ATOM      4  N   LIG    1       -2.127  -0.155   2.060  0.00  0.00    -0.320 NA
ATOM      5  C   LIG    1       -0.928   0.266   1.734  0.00  0.00    +0.370 A 
ENDROOT
BRANCH   5   6
ATOM      6  N   LIG    1       -0.624   1.421   1.031  0.00  0.00    -0.440 N 
ATOM      7  C   LIG    1        0.107   1.106  -0.210  0.00  0.00    +0.190 C 
ATOM      8  C   LIG    1       -0.696   1.710  -1.383  0.00  0.00    +0.020 C 
ATOM      9  C   LIG    1       -1.538   2.817  -0.696  0.00  0.00    +0.010 C 
ATOM     10  C   LIG    1       -1.853   2.167   0.674  0.00  0.00    +0.230 C 
BRANCH   9  11
ATOM     11  C   LIG    1       -2.821   3.095  -1.481  0.00  0.00    -0.060 C 
ATOM     12  C   LIG    1       -2.466   3.525  -2.905  0.00  0.00    +0.040 C 
ATOM     13  C   LIG    1       -3.608   4.212  -0.792  0.00  0.00    +0.040 C 
ATOM     14  C   LIG    1       -3.675   1.826  -1.529  0.00  0.00    +0.030 C 
ENDBRANCH   9  11
ENDBRANCH   5   6
BRANCH   1  15
ATOM     15  C   LIG    1        1.423  -0.601   2.113  0.00  0.00    +0.310 C 
BRANCH  15  17
ATOM     16  C   LIG    1        3.530   0.088   3.264  0.00  0.00    +0.040 C 
ATOM     17  C   LIG    1        2.003   0.150   3.313  0.00  0.00    -0.040 C 
ATOM     18  C   LIG    1        1.549   1.611   3.268  0.00  0.00    +0.040 C 
ENDBRANCH  15  17
ENDBRANCH   1  15
BRANCH   2  19
ATOM     19  C   LIG    1       -0.271  -2.836   3.537  0.00  0.00    +0.420 C 
BRANCH  19  20
ATOM     20  N   LIG    1       -0.034  -2.531   4.950  0.00  0.00    -0.720 N 
ATOM     21  H   LIG    1       -0.214  -1.641   5.291  0.00  0.00    +0.410 HD
ATOM     22  C   LIG    1        0.435  -3.487   5.776  0.00  0.00    +0.610 C 
ATOM     23  O   LIG    1        0.662  -4.604   5.348  0.00  0.00    -0.510 OA
BRANCH  22  24
ATOM     24  C   LIG    1        0.673  -3.181   7.191  0.00  0.00    -0.090 A 
ATOM     25  C   LIG    1        1.138  -4.053   8.133  0.00  0.00    +0.050 A 
ATOM     26  C   LIG    1        1.215  -3.340   9.339  0.00  0.00    -0.070 A 
ATOM     27  C   LIG    1        0.790  -2.083   9.086  0.00  0.00    +0.210 A 
ATOM     28  O   LIG    1        0.464  -1.991   7.790  0.00  0.00    -0.170 OA
ENDBRANCH  22  24
ENDBRANCH  19  20
ENDBRANCH   2  19
TORSDOF 7
