REMARK  Name = ZINCvU0000000CQD.0
REMARK                            x       y       z     vdW  Elec       q    Type
REMARK                         _______ _______ _______ _____ _____    ______ ____
ROOT
ATOM      1  C   LIG    1       -2.245   9.222   2.929  0.00  0.00    +0.210 C 
ATOM      2  C   LIG    1       -3.388   9.998   3.591  0.00  0.00    +0.010 C 
ATOM      3  C   LIG    1       -3.632   9.439   4.995  0.00  0.00    +0.010 C 
ATOM      4  C   LIG    1       -4.042   7.968   4.895  0.00  0.00    +0.010 C 
ATOM      5  C   LIG    1       -2.912   7.170   4.246  0.00  0.00    +0.270 C 
ATOM      6  N   LIG    1       -2.567   7.789   2.959  0.00  0.00    -0.610 N 
ATOM      7  C   LIG    1       -2.552   7.057   1.828  0.00  0.00    +0.520 C 
ATOM      8  O   LIG    1       -2.175   7.556   0.788  0.00  0.00    -0.530 OA
ENDROOT
BRANCH   1   9
ATOM      9  C   LIG    1       -2.087   9.681   1.478  0.00  0.00    +0.340 C 
BRANCH   9  10
ATOM     10  N   LIG    1       -1.810  11.119   1.448  0.00  0.00    -0.590 N 
ATOM     11  C   LIG    1       -0.439  11.605   1.621  0.00  0.00    +0.300 C 
BRANCH  10  14
ATOM     12  C   LIG    1       -5.153  12.507   0.907  0.00  0.00    +0.220 A 
ATOM     13  C   LIG    1       -4.156  11.570   1.089  0.00  0.00    -0.140 A 
ATOM     14  C   LIG    1       -2.845  12.021   1.256  0.00  0.00    +0.460 A 
ATOM     15  N   LIG    1       -2.604  13.328   1.224  0.00  0.00    -0.570 NA
ATOM     16  C   LIG    1       -3.587  14.188   1.042  0.00  0.00    +0.410 A 
ATOM     17 CL   LIG    1       -3.227  15.886   1.006  0.00  0.00    +0.020 Cl
ATOM     18  N   LIG    1       -4.836  13.794   0.886  0.00  0.00    -0.550 NA
BRANCH  12  19
ATOM     19  C   LIG    1       -6.585  12.072   0.728  0.00  0.00    +0.100 C 
BRANCH  19  21
ATOM     20  C   LIG    1       -8.919  12.334   1.582  0.00  0.00    +0.020 C 
ATOM     21  C   LIG    1       -7.465  12.775   1.764  0.00  0.00    +0.020 C 
ENDBRANCH  19  21
ENDBRANCH  12  19
ENDBRANCH  10  14
ENDBRANCH   9  10
ENDBRANCH   1   9
BRANCH   7  22
ATOM     22  C   LIG    1       -3.002   5.619   1.854  0.00  0.00    +0.060 C 
BRANCH  22  23
ATOM     23  C   LIG    1       -2.946   5.041   0.438  0.00  0.00    -0.040 C 
ATOM     24  C   LIG    1       -3.825   5.882  -0.490  0.00  0.00    +0.020 C 
ATOM     25  C   LIG    1       -1.502   5.066  -0.066  0.00  0.00    +0.030 C 
BRANCH  23  26
ATOM     26  C   LIG    1       -3.456   3.599   0.456  0.00  0.00    -0.010 C 
ATOM     27  C   LIG    1       -3.400   3.021  -0.960  0.00  0.00    +0.010 C 
ATOM     28  C   LIG    1       -3.910   1.579  -0.942  0.00  0.00    +0.000 C 
ATOM     29  C   LIG    1       -3.031   0.738  -0.014  0.00  0.00    +0.000 C 
ATOM     30  C   LIG    1       -3.087   1.316   1.402  0.00  0.00    +0.000 C 
ATOM     31  C   LIG    1       -2.577   2.759   1.385  0.00  0.00    +0.010 C 
ENDBRANCH  23  26
ENDBRANCH  22  23
ENDBRANCH   7  22
TORSDOF 8
