REMARK  Name = ZINCpe000000XIjL.0
REMARK                            x       y       z     vdW  Elec       q    Type
REMARK                         _______ _______ _______ _____ _____    ______ ____
ROOT
ATOM      1  C   LIG    1        3.089   0.640   3.091  0.00  0.00    +0.140 A 
ATOM      2  N   LIG    1        3.411  -0.320   2.255  0.00  0.00    -0.290 NA
ATOM      3  N   LIG    1        2.879  -0.095   1.107  0.00  0.00    -0.270 NA
ATOM      4  C   LIG    1        2.192   1.012   1.140  0.00  0.00    +0.190 A 
ATOM      5  N   LIG    1        2.305   1.523   2.404  0.00  0.00    -0.460 N 
ATOM      6  C   LIG    1        1.707   2.758   2.915  0.00  0.00    +0.350 C 
ENDROOT
BRANCH   1   7
ATOM      7  S   LIG    1        3.581   0.769   4.778  0.00  0.00    +0.090 S 
BRANCH   7   8
ATOM      8  C   LIG    1        4.579  -0.733   4.929  0.00  0.00    +0.130 C 
BRANCH   8  11
ATOM      9  N   LIG    1        5.898  -1.882   6.679  0.00  0.00    -0.620 N 
ATOM     10  H   LIG    1        6.108  -2.568   6.026  0.00  0.00    +0.440 HD
ATOM     11  C   LIG    1        5.121  -0.837   6.332  0.00  0.00    +0.530 C 
ATOM     12  O   LIG    1        4.858   0.021   7.149  0.00  0.00    -0.480 OA
BRANCH   9  17
ATOM     13  C   LIG    1        8.222  -3.327  10.838  0.00  0.00    +0.160 C 
ATOM     14  C   LIG    1        7.406  -2.587   9.810  0.00  0.00    +0.040 A 
ATOM     15  N   LIG    1        6.761  -1.468   9.985  0.00  0.00    -0.360 NA
ATOM     16  O   LIG    1        6.199  -1.111   8.976  0.00  0.00    +0.110 OA
ATOM     17  C   LIG    1        6.396  -1.977   7.970  0.00  0.00    +0.210 A 
ATOM     18  C   LIG    1        7.191  -2.968   8.470  0.00  0.00    -0.080 A 
ENDBRANCH   9  17
ENDBRANCH   8  11
ENDBRANCH   7   8
ENDBRANCH   1   7
BRANCH   4  19
ATOM     19  C   LIG    1        1.421   1.620  -0.003  0.00  0.00    +0.180 C 
BRANCH  19  20
ATOM     20  C   LIG    1       -0.013   1.086   0.008  0.00  0.00    +0.030 C 
ATOM     21  C   LIG    1       -0.742   1.586   1.267  0.00  0.00    +0.050 C 
ATOM     22  C   LIG    1       -2.247   1.300   1.056  0.00  0.00    -0.310 C 
ATOM     23  S   LIG    1       -2.503   1.791  -0.692  0.00  0.00    +2.390 S 
ATOM     24  O   LIG    1       -3.309   0.819  -1.344  0.00  0.00    -0.930 OA
ATOM     25  O   LIG    1       -2.866   3.163  -0.747  0.00  0.00    -0.930 OA
ATOM     26  C   LIG    1       -0.767   1.601  -1.234  0.00  0.00    -0.300 C 
ENDBRANCH  19  20
ENDBRANCH   4  19
TORSDOF 6
