REMARK  Name = ZINCqH0000038eRg.0
REMARK                            x       y       z     vdW  Elec       q    Type
REMARK                         _______ _______ _______ _____ _____    ______ ____
ROOT
ATOM      1  C   LIG    1        2.490   1.047  -0.016  0.00  0.00    +0.270 C 
ATOM      2  C   LIG    1        2.817   0.527   1.400  0.00  0.00    +0.050 C 
ATOM      3  C   LIG    1        3.450  -0.863   1.121  0.00  0.00    +0.040 C 
ATOM      4  C   LIG    1        2.625  -1.340  -0.101  0.00  0.00    +0.250 C 
ATOM      5  N   LIG    1        2.399  -0.121  -0.904  0.00  0.00    -0.610 N 
ATOM      6  C   LIG    1        2.148  -0.084  -2.227  0.00  0.00    +0.540 C 
ATOM      7  O   LIG    1        1.976   0.981  -2.782  0.00  0.00    -0.490 OA
ENDROOT
BRANCH   6   8
ATOM      8  C   LIG    1        2.082  -1.365  -3.018  0.00  0.00    +0.200 C 
ATOM      9  C   LIG    1        0.894  -2.199  -2.540  0.00  0.00    +0.100 C 
ATOM     10  C   LIG    1        0.659  -3.358  -3.473  0.00  0.00    -0.040 A 
ATOM     11  C   LIG    1       -0.042  -4.463  -3.034  0.00  0.00    +0.010 A 
ATOM     12  C   LIG    1       -0.264  -5.529  -3.889  0.00  0.00    +0.050 A 
ATOM     13  C   LIG    1        0.214  -5.499  -5.187  0.00  0.00    +0.010 A 
ATOM     14  C   LIG    1        0.918  -4.400  -5.639  0.00  0.00    +0.090 A 
ATOM     15  C   LIG    1        1.144  -3.326  -4.781  0.00  0.00    -0.180 A 
ATOM     16  C   LIG    1        1.902  -2.141  -5.247  0.00  0.00    +0.530 C 
ATOM     17  O   LIG    1        2.486  -2.141  -6.312  0.00  0.00    -0.440 OA
ATOM     18  O   LIG    1        1.915  -1.055  -4.432  0.00  0.00    -0.330 OA
ENDBRANCH   6   8
BRANCH   1  23
ATOM     19  C   LIG    1       -2.553   3.868   0.044  0.00  0.00    +0.080 C 
ATOM     20  C   LIG    1       -1.238   3.133   0.029  0.00  0.00    -0.080 A 
ATOM     21  C   LIG    1       -1.219   1.751   0.017  0.00  0.00    +0.000 A 
ATOM     22  C   LIG    1       -0.013   1.076   0.008  0.00  0.00    +0.000 A 
ATOM     23  C   LIG    1        1.175   1.783   0.000  0.00  0.00    -0.090 A 
ATOM     24  C   LIG    1        1.156   3.166   0.008  0.00  0.00    +0.020 A 
ATOM     25  C   LIG    1       -0.050   3.840   0.022  0.00  0.00    -0.080 A 
ATOM     26  C   LIG    1       -0.070   5.347   0.030  0.00  0.00    +0.090 C 
ENDBRANCH   1  23
TORSDOF 2
