REMARK  Name = ZINCrH000004s3ZE.0
REMARK                            x       y       z     vdW  Elec       q    Type
REMARK                         _______ _______ _______ _____ _____    ______ ____
ROOT
ATOM      1  C   LIG    1       -2.211   1.326   1.248  0.00  0.00    +0.260 C 
ATOM      2  C   LIG    1       -3.358   1.137   0.256  0.00  0.00    +0.090 C 
ATOM      3  C   LIG    1       -2.845   1.115  -1.159  0.00  0.00    -0.070 A 
ATOM      4  C   LIG    1       -3.661   0.550  -2.132  0.00  0.00    +0.010 A 
ATOM      5  C   LIG    1       -3.262   0.521  -3.452  0.00  0.00    +0.010 A 
ATOM      6  C   LIG    1       -2.040   1.057  -3.813  0.00  0.00    +0.020 A 
ATOM      7  C   LIG    1       -1.224   1.612  -2.848  0.00  0.00    +0.020 A 
ATOM      8  C   LIG    1       -1.623   1.639  -1.519  0.00  0.00    -0.090 A 
ATOM      9  C   LIG    1       -0.679   2.250  -0.514  0.00  0.00    +0.360 C 
ATOM     10  N   LIG    1       -1.374   2.436   0.764  0.00  0.00    -0.600 N 
ATOM     11  C   LIG    1       -1.251   3.578   1.470  0.00  0.00    +0.600 C 
ATOM     12  O   LIG    1       -1.796   3.687   2.552  0.00  0.00    -0.480 OA
ENDROOT
BRANCH  11  13
ATOM     13  C   LIG    1       -0.460   4.690   0.932  0.00  0.00    -0.080 A 
ATOM     14  C   LIG    1       -0.185   5.863   1.574  0.00  0.00    +0.050 A 
ATOM     15  C   LIG    1        0.596   6.630   0.696  0.00  0.00    -0.060 A 
ATOM     16  C   LIG    1        0.760   5.902  -0.430  0.00  0.00    +0.200 A 
ATOM     17  O   LIG    1        0.127   4.731  -0.282  0.00  0.00    -0.160 OA
ENDBRANCH  11  13
BRANCH   1  20
ATOM     18  N   LIG    1       -4.097   1.684   2.808  0.00  0.00    -0.670 N 
ATOM     19  H   LIG    1       -4.701   1.565   2.058  0.00  0.00    +0.410 HD
ATOM     20  C   LIG    1       -2.764   1.660   2.609  0.00  0.00    +0.520 C 
ATOM     21  O   LIG    1       -2.010   1.907   3.526  0.00  0.00    -0.470 OA
BRANCH  18  28
ATOM     22  C   LIG    1       -6.722   2.754   3.061  0.00  0.00    +0.090 C 
ATOM     23  C   LIG    1       -5.886   2.401   4.264  0.00  0.00    -0.120 A 
ATOM     24  C   LIG    1       -6.388   2.595   5.536  0.00  0.00    +0.020 A 
ATOM     25  C   LIG    1       -5.622   2.271   6.640  0.00  0.00    -0.020 A 
ATOM     26  C   LIG    1       -4.351   1.753   6.476  0.00  0.00    +0.020 A 
ATOM     27  C   LIG    1       -3.844   1.551   5.206  0.00  0.00    +0.010 A 
ATOM     28  C   LIG    1       -4.609   1.881   4.095  0.00  0.00    +0.160 A 
ENDBRANCH  18  28
ENDBRANCH   1  20
TORSDOF 3
