REMARK  Name = ZINCpe000000ZkUk.0
REMARK                            x       y       z     vdW  Elec       q    Type
REMARK                         _______ _______ _______ _____ _____    ______ ____
ROOT
ATOM      1  C   LIG    1        5.838   3.036   3.029  0.00  0.00    +0.240 C 
ATOM      2  C   LIG    1        5.916   4.034   4.189  0.00  0.00    +0.040 C 
ATOM      3  C   LIG    1        7.031   3.609   5.147  0.00  0.00    +0.020 C 
ATOM      4  C   LIG    1        8.372   3.621   4.410  0.00  0.00    +0.010 C 
ATOM      5  C   LIG    1        8.322   2.619   3.252  0.00  0.00    +0.290 C 
ATOM      6  N   LIG    1        7.164   2.933   2.404  0.00  0.00    -0.980 NA
ENDROOT
BRANCH   1   8
ATOM      7  O   LIG    1        4.960   4.621   1.517  0.00  0.00    -0.540 OA
ATOM      8  C   LIG    1        4.837   3.521   2.012  0.00  0.00    +0.520 C 
ATOM      9  N   LIG    1        3.805   2.732   1.653  0.00  0.00    -0.690 N 
ATOM     10  H   LIG    1        3.707   1.852   2.049  0.00  0.00    +0.400 HD
BRANCH   9  11
ATOM     11  CA  LIG    1        2.832   3.203   0.664  0.00  0.00    +0.270 C 
BRANCH  11  12
ATOM     12  C   LIG    1        2.178   2.001  -0.020  0.00  0.00    +0.040 C 
BRANCH  12  13
ATOM     13  C   LIG    1        3.231   1.235  -0.822  0.00  0.00    +0.180 C 
BRANCH  13  14
ATOM     14  O   LIG    1        2.619   0.112  -1.461  0.00  0.00    -0.580 OA
ATOM     15  H   LIG    1        3.230  -0.420  -1.989  0.00  0.00    +0.380 HD
ENDBRANCH  13  14
ENDBRANCH  12  13
ENDBRANCH  11  12
BRANCH  11  16
ATOM     16  C   LIG    1        1.759   4.039   1.364  0.00  0.00    +0.170 C 
BRANCH  16  17
ATOM     17  O   LIG    1        1.016   3.208   2.259  0.00  0.00    -0.570 OA
ATOM     18  H   LIG    1        0.317   3.673   2.738  0.00  0.00    +0.380 HD
ENDBRANCH  16  17
ENDBRANCH  11  16
ENDBRANCH   9  11
ENDBRANCH   1   8
BRANCH   6  19
ATOM     19  S   LIG    1        7.350   3.167   0.775  0.00  0.00    +2.690 S 
ATOM     20  O   LIG    1        6.070   2.967   0.193  0.00  0.00    -0.940 OA
ATOM     21  O   LIG    1        8.502   2.428   0.393  0.00  0.00    -0.950 OA
BRANCH  19  22
ATOM     22  C   LIG    1        7.747   4.866   0.534  0.00  0.00    -0.660 A 
ATOM     23  C   LIG    1        6.770   5.752   0.119  0.00  0.00    +0.190 A 
ATOM     24  C   LIG    1        7.079   7.086  -0.065  0.00  0.00    +0.020 A 
ATOM     25  C   LIG    1        8.370   7.534   0.155  0.00  0.00    -0.040 A 
ATOM     26  C   LIG    1        9.348   6.646   0.565  0.00  0.00    +0.020 A 
ATOM     27 BR   LIG    1        8.796   9.358  -0.104  0.00  0.00    -0.040 Br
ATOM     28  C   LIG    1        9.037   5.313   0.754  0.00  0.00    +0.120 A 
ENDBRANCH  19  22
ENDBRANCH   6  19
TORSDOF 9
