REMARK  Name = ZINCnE000001Ubdj.0
REMARK                            x       y       z     vdW  Elec       q    Type
REMARK                         _______ _______ _______ _____ _____    ______ ____
ROOT
ATOM      1  C   LIG    1        4.706   0.721  -1.746  0.00  0.00    +0.320 A 
ATOM      2  C   LIG    1        5.333  -0.114  -0.830  0.00  0.00    -0.170 A 
ATOM      3  C   LIG    1        6.566  -0.660  -1.126  0.00  0.00    +0.110 A 
ATOM      4  C   LIG    1        7.184  -0.366  -2.335  0.00  0.00    -0.250 A 
ATOM      5  C   LIG    1        6.559   0.473  -3.249  0.00  0.00    +0.100 A 
ATOM      6  C   LIG    1        5.323   1.014  -2.955  0.00  0.00    -0.070 A 
ENDROOT
BRANCH   1   7
ATOM      7  N   LIG    1        3.453   1.270  -1.448  0.00  0.00    -1.070 NA
BRANCH   7   9
ATOM      8  O   LIG    1        3.519   1.509   1.007  0.00  0.00    -1.010 OA
ATOM      9  S   LIG    1        2.717   0.920  -0.007  0.00  0.00    +2.600 S 
ATOM     10  O   LIG    1        2.403  -0.465  -0.043  0.00  0.00    -1.030 OA
BRANCH   9  11
ATOM     11  C   LIG    1        1.178   1.778   0.015  0.00  0.00    -0.620 A 
ATOM     12  C   LIG    1       -0.008   1.070   0.027  0.00  0.00    +0.130 A 
ATOM     13  C   LIG    1       -1.216   1.743   0.038  0.00  0.00    -0.010 A 
ATOM     14  C   LIG    1       -1.237   3.125   0.048  0.00  0.00    +0.060 A 
ATOM     15  C   LIG    1       -0.051   3.835   0.037  0.00  0.00    +0.000 A 
ATOM     16  C   LIG    1        1.158   3.162   0.020  0.00  0.00    +0.060 A 
ATOM     17 CL   LIG    1        2.648   4.053   0.006  0.00  0.00    -0.030 Cl
ENDBRANCH   9  11
ENDBRANCH   7   9
ENDBRANCH   1   7
BRANCH   4  18
ATOM     18  S   LIG    1        8.761  -1.057  -2.709  0.00  0.00    +0.100 S 
BRANCH  18  19
ATOM     19  C   LIG    1        8.353  -2.633  -3.384  0.00  0.00    +0.190 A 
ATOM     20  N   LIG    1        7.139  -3.072  -3.621  0.00  0.00    -0.300 NA
ATOM     21  N   LIG    1        7.273  -4.363  -4.157  0.00  0.00    -0.490 N 
ATOM     22  H   LIG    1        6.556  -4.953  -4.437  0.00  0.00    +0.440 HD
ATOM     23  C   LIG    1        8.591  -4.623  -4.199  0.00  0.00    +0.480 A 
ATOM     24  N   LIG    1        9.229  -3.580  -3.734  0.00  0.00    -0.530 NA
ENDBRANCH  18  19
ENDBRANCH   4  18
TORSDOF 5
