REMARK  Name = ZINCrD000000AqVh.0
REMARK                            x       y       z     vdW  Elec       q    Type
REMARK                         _______ _______ _______ _____ _____    ______ ____
ROOT
ATOM      1  O   LIG    1        0.048  -6.738  -0.041  0.00  0.00    -0.490 OA
ATOM      2  C   LIG    1        1.157  -6.259  -0.149  0.00  0.00    +0.520 C 
ATOM      3  N   LIG    1        2.232  -7.065  -0.250  0.00  0.00    -0.670 N 
ATOM      4  H   LIG    1        3.124  -6.685  -0.256  0.00  0.00    +0.420 HD
ENDROOT
BRANCH   3   5
ATOM      5  C   LIG    1        2.061  -8.451  -0.347  0.00  0.00    +0.090 A 
ATOM      6  C   LIG    1        0.975  -8.971  -1.025  0.00  0.00    +0.090 A 
ATOM      7  C   LIG    1        0.848 -10.370  -1.095  0.00  0.00    -0.080 A 
ATOM      8  C   LIG    1       -0.228 -10.972  -1.767  0.00  0.00    +0.030 A 
ATOM      9  C   LIG    1       -0.318 -12.330  -1.814  0.00  0.00    +0.020 A 
ATOM     10  C   LIG    1        0.644 -13.131  -1.202  0.00  0.00    +0.030 A 
ATOM     11  C   LIG    1        1.700 -12.581  -0.542  0.00  0.00    +0.050 A 
ATOM     12  C   LIG    1        1.829 -11.183  -0.472  0.00  0.00    +0.110 A 
ATOM     13  N   LIG    1        2.857 -10.618   0.169  0.00  0.00    -0.450 NA
ATOM     14  C   LIG    1        2.992  -9.318   0.238  0.00  0.00    +0.280 A 
ENDBRANCH   3   5
BRANCH   2  15
ATOM     15  C   LIG    1        1.333  -4.762  -0.169  0.00  0.00    +0.240 C 
BRANCH  15  16
ATOM     16  O   LIG    1        0.057  -4.131  -0.048  0.00  0.00    -0.290 OA
BRANCH  16  17
ATOM     17  C   LIG    1        0.038  -2.771  -0.049  0.00  0.00    +0.100 A 
ATOM     18  C   LIG    1       -1.167  -2.094   0.066  0.00  0.00    +0.020 A 
ATOM     19  C   LIG    1       -1.187  -0.714   0.064  0.00  0.00    +0.010 A 
ATOM     20  C   LIG    1        0.000  -0.003  -0.052  0.00  0.00    +0.130 A 
ATOM     21  C   LIG    1        1.206  -0.681  -0.171  0.00  0.00    +0.050 A 
ATOM     22  C   LIG    1        1.225  -2.062  -0.164  0.00  0.00    -0.050 A 
BRANCH  20  23
ATOM     23  N   LIG    1       -0.019   1.398  -0.054  0.00  0.00    -0.560 N 
ATOM     24  C   LIG    1       -1.242   2.209  -0.057  0.00  0.00    +0.260 C 
ATOM     25  C   LIG    1       -0.798   3.623  -0.494  0.00  0.00    +0.060 C 
ATOM     26  C   LIG    1        0.688   3.633  -0.068  0.00  0.00    +0.070 C 
ATOM     27  C   LIG    1        1.080   2.172  -0.049  0.00  0.00    +0.510 C 
ATOM     28  O   LIG    1        2.221   1.758  -0.034  0.00  0.00    -0.510 OA
ENDBRANCH  20  23
ENDBRANCH  16  17
ENDBRANCH  15  16
ENDBRANCH   2  15
TORSDOF 5
