REMARK  Name = ZINCpe00000MAuZf.0
REMARK                            x       y       z     vdW  Elec       q    Type
REMARK                         _______ _______ _______ _____ _____    ______ ____
ROOT
ATOM      1  C   LIG    1       -0.574   0.483  -5.945  0.00  0.00    +0.520 C 
ATOM      2  N   LIG    1       -0.045   1.188  -4.926  0.00  0.00    -0.610 N 
ATOM      3  C   LIG    1        1.347   1.662  -4.975  0.00  0.00    +0.240 C 
ATOM      4  C   LIG    1        2.046   1.248  -3.675  0.00  0.00    +0.220 C 
ATOM      5  O   LIG    1        1.265   1.687  -2.561  0.00  0.00    -0.370 OA
ATOM      6  C   LIG    1       -0.037   1.099  -2.490  0.00  0.00    +0.140 C 
ATOM      7  C   LIG    1       -0.842   1.506  -3.730  0.00  0.00    +0.260 C 
ATOM      8  O   LIG    1       -1.724   0.101  -5.885  0.00  0.00    -0.520 OA
ENDROOT
BRANCH   1  15
ATOM      9  C   LIG    1       -2.364   0.080 -10.005  0.00  0.00    +0.110 C 
ATOM     10  C   LIG    1       -1.538   0.592  -8.852  0.00  0.00    +0.530 C 
ATOM     11  N   LIG    1       -0.609  -0.201  -8.284  0.00  0.00    -0.600 N 
ATOM     12  C   LIG    1       -0.295  -1.589  -8.683  0.00  0.00    +0.240 C 
ATOM     13  C   LIG    1        1.161  -1.819  -8.208  0.00  0.00    +0.180 C 
ATOM     14  C   LIG    1        1.178  -1.038  -6.867  0.00  0.00    +0.080 C 
ATOM     15  C   LIG    1        0.262   0.169  -7.159  0.00  0.00    +0.220 C 
ATOM     16  O   LIG    1       -1.710   1.719  -8.437  0.00  0.00    -0.540 OA
BRANCH  13  17
ATOM     17  O   LIG    1        2.096  -1.265  -9.135  0.00  0.00    -0.550 OA
ATOM     18  H   LIG    1        2.121  -1.720  -9.988  0.00  0.00    +0.390 HD
ENDBRANCH  13  17
ENDBRANCH   1  15
BRANCH   6  19
ATOM     19  C   LIG    1       -0.753   1.593  -1.232  0.00  0.00    +0.060 C 
BRANCH  19  20
ATOM     20  C   LIG    1       -0.013   1.086   0.008  0.00  0.00    +0.070 C 
BRANCH  20  21
ATOM     21  C   LIG    1       -0.718   1.572   1.248  0.00  0.00    -0.080 A 
ATOM     22  C   LIG    1       -0.360   2.779   1.819  0.00  0.00    +0.000 A 
ATOM     23  C   LIG    1       -1.010   3.227   2.953  0.00  0.00    +0.000 A 
ATOM     24  C   LIG    1       -2.012   2.463   3.523  0.00  0.00    -0.010 A 
ATOM     25  C   LIG    1       -2.366   1.254   2.955  0.00  0.00    +0.000 A 
ATOM     26  C   LIG    1       -1.719   0.808   1.818  0.00  0.00    +0.000 A 
ENDBRANCH  20  21
ENDBRANCH  19  20
ENDBRANCH   6  19
TORSDOF 5
