REMARK  Name = ZINCpk00000zJjva.0
REMARK                            x       y       z     vdW  Elec       q    Type
REMARK                         _______ _______ _______ _____ _____    ______ ____
ROOT
ATOM      1  C   LIG    1       -2.322  -8.668   0.708  0.00  0.00    +0.040 C 
ATOM      2  C   LIG    1       -2.921  -7.812  -0.410  0.00  0.00    -0.060 C 
ATOM      3  C   LIG    1       -3.171  -8.684  -1.642  0.00  0.00    +0.030 C 
ATOM      4  C   LIG    1       -3.778  -7.832  -2.758  0.00  0.00    +0.030 C 
ATOM      5  C   LIG    1       -2.806  -6.708  -3.127  0.00  0.00    +0.060 C 
ATOM      6  C   LIG    1       -2.532  -5.848  -1.899  0.00  0.00    +0.130 C 
ATOM      7  N   LIG    1       -3.761  -5.178  -1.456  0.00  0.00    -0.720 N 
ATOM      8  H   LIG    1       -4.579  -5.605  -1.154  0.00  0.00    +0.440 HD
ATOM      9  C   LIG    1       -3.530  -3.855  -1.551  0.00  0.00    +0.700 C 
ATOM     10  N   LIG    1       -2.300  -3.583  -2.003  0.00  0.00    -0.560 N 
ATOM     11  O   LIG    1       -4.347  -3.003  -1.260  0.00  0.00    -0.540 OA
ATOM     12  C   LIG    1       -1.602  -4.710  -2.254  0.00  0.00    +0.540 C 
ATOM     13  O   LIG    1       -0.468  -4.793  -2.673  0.00  0.00    -0.460 OA
ATOM     14  C   LIG    1       -4.244  -7.207   0.064  0.00  0.00    +0.040 C 
ATOM     15  C   LIG    1       -1.945  -6.689  -0.771  0.00  0.00    +0.070 C 
ENDROOT
BRANCH  10  16
ATOM     16  C   LIG    1       -1.778  -2.229  -2.206  0.00  0.00    +0.360 C 
BRANCH  16  17
ATOM     17  C   LIG    1       -1.111  -1.753  -0.941  0.00  0.00    +0.500 C 
ATOM     18  N   LIG    1       -0.554  -0.527  -0.893  0.00  0.00    -0.720 N 
ATOM     19  H   LIG    1       -0.583   0.050  -1.673  0.00  0.00    +0.410 HD
ATOM     20  O   LIG    1       -1.075  -2.474   0.034  0.00  0.00    -0.520 OA
BRANCH  18  21
ATOM     21  C   LIG    1        0.094  -0.064   0.336  0.00  0.00    +0.230 C 
ATOM     22  C   LIG    1        1.593  -0.438   0.332  0.00  0.00    +0.200 C 
ATOM     23  O   LIG    1        2.256   0.685   0.952  0.00  0.00    -0.370 OA
ATOM     24  C   LIG    1        1.591   1.855   0.428  0.00  0.00    +0.210 C 
ATOM     25  C   LIG    1        0.093   1.480   0.401  0.00  0.00    -0.110 C 
ATOM     26  C   LIG    1       -0.604   1.962   1.675  0.00  0.00    +0.040 C 
ATOM     27  C   LIG    1       -0.585   2.068  -0.838  0.00  0.00    +0.050 C 
ENDBRANCH  18  21
ENDBRANCH  16  17
ENDBRANCH  10  16
TORSDOF 3
