REMARK  Name = ZINCpk00000KfKPg.0
REMARK                            x       y       z     vdW  Elec       q    Type
REMARK                         _______ _______ _______ _____ _____    ______ ____
ROOT
ATOM      1  C   LIG    1       -0.636  10.963  -5.630  0.00  0.00    -0.020 C 
ATOM      2  C   LIG    1       -0.038  10.880  -4.201  0.00  0.00    +0.070 C 
ATOM      3  C   LIG    1       -0.557   9.521  -3.687  0.00  0.00    +0.240 C 
ATOM      4  N   LIG    1       -0.886   8.706  -4.865  0.00  0.00    -0.640 N 
ATOM      5  C   LIG    1       -1.390   7.456  -4.839  0.00  0.00    +0.730 C 
ATOM      6  N   LIG    1       -1.633   6.851  -3.659  0.00  0.00    -0.730 N 
ATOM      7  H   LIG    1       -1.446   7.316  -2.829  0.00  0.00    +0.400 HD
ATOM      8  O   LIG    1       -1.625   6.873  -5.881  0.00  0.00    -0.580 OA
ATOM      9  C   LIG    1       -0.569   9.479  -6.079  0.00  0.00    +0.300 C 
ENDROOT
BRANCH   1  13
ATOM     10  N   LIG    1       -0.143  12.030  -7.807  0.00  0.00    -0.850 N 
ATOM     11  H   LIG    1        0.403  12.590  -8.380  0.00  0.00    +0.400 HD
ATOM     12  H   LIG    1       -0.944  11.611  -8.158  0.00  0.00    +0.400 HD
ATOM     13  C   LIG    1        0.212  11.833  -6.521  0.00  0.00    +0.530 C 
ATOM     14  O   LIG    1        1.214  12.357  -6.082  0.00  0.00    -0.540 OA
ENDBRANCH   1  13
BRANCH   6  15
ATOM     15  C   LIG    1       -2.180   5.492  -3.632  0.00  0.00    +0.340 C 
BRANCH  15  16
ATOM     16  C   LIG    1       -1.802   4.825  -2.335  0.00  0.00    -0.080 A 
ATOM     17  C   LIG    1       -1.829   5.544  -1.155  0.00  0.00    +0.020 A 
ATOM     18  C   LIG    1       -1.481   4.936   0.037  0.00  0.00    +0.030 A 
ATOM     19  C   LIG    1       -1.104   3.602   0.051  0.00  0.00    +0.050 A 
ATOM     20  O   LIG    1       -0.757   3.018   1.231  0.00  0.00    -0.310 OA
ATOM     21  C   LIG    1       -0.743   1.587   1.262  0.00  0.00    +0.220 C 
ATOM     22  C   LIG    1       -0.013   1.086   0.008  0.00  0.00    +0.220 C 
ATOM     23  O   LIG    1       -0.716   1.565  -1.143  0.00  0.00    -0.310 OA
ATOM     24  C   LIG    1       -1.079   2.877  -1.135  0.00  0.00    +0.060 A 
ATOM     25  C   LIG    1       -1.429   3.494  -2.327  0.00  0.00    +0.040 A 
ENDBRANCH  15  16
BRANCH  15  26
ATOM     26  C   LIG    1       -3.705   5.554  -3.747  0.00  0.00    -0.070 C 
ATOM     27  C   LIG    1       -4.368   4.684  -4.817  0.00  0.00    +0.020 C 
ATOM     28  C   LIG    1       -4.292   6.201  -5.003  0.00  0.00    +0.030 C 
ENDBRANCH  15  26
ENDBRANCH   6  15
TORSDOF 4
