REMARK  Name = ZINCpe000000XzbZ.0
REMARK                            x       y       z     vdW  Elec       q    Type
REMARK                         _______ _______ _______ _____ _____    ______ ____
ROOT
ATOM      1  C   LIG    1        2.786   2.208   2.062  0.00  0.00    +0.600 C 
ATOM      2  N   LIG    1        2.157   1.503   1.101  0.00  0.00    -0.610 N 
ATOM      3  C   LIG    1        1.525   2.185  -0.036  0.00  0.00    +0.270 C 
ATOM      4  C   LIG    1        0.067   1.728  -0.138  0.00  0.00    +0.030 C 
ATOM      5  C   LIG    1        0.020   0.200  -0.216  0.00  0.00    +0.100 C 
ATOM      6  C   LIG    1        0.626  -0.397   1.056  0.00  0.00    +0.040 C 
ATOM      7  C   LIG    1        2.091   0.037   1.171  0.00  0.00    +0.280 C 
ATOM      8  O   LIG    1        3.362   1.629   2.962  0.00  0.00    -0.530 OA
ENDROOT
BRANCH   1  11
ATOM      9  C   LIG    1        1.881   4.112   4.400  0.00  0.00    +0.180 C 
ATOM     10  C   LIG    1        2.380   4.526   3.040  0.00  0.00    +0.180 A 
ATOM     11  C   LIG    1        2.774   3.682   2.022  0.00  0.00    -0.290 A 
ATOM     12  C   LIG    1        3.159   4.495   0.931  0.00  0.00    +0.300 A 
ATOM     13  N   LIG    1        3.008   5.742   1.282  0.00  0.00    -0.280 NA
ATOM     14  N   LIG    1        2.526   5.788   2.595  0.00  0.00    -0.310 N 
BRANCH  14  15
ATOM     15  C   LIG    1        2.241   6.949   3.320  0.00  0.00    +0.360 A 
ATOM     16  C   LIG    1        2.886   8.137   2.999  0.00  0.00    +0.000 A 
ATOM     17  C   LIG    1        2.590   9.280   3.723  0.00  0.00    +0.100 A 
ATOM     18  C   LIG    1        1.664   9.191   4.752  0.00  0.00    -0.030 A 
ATOM     19  C   LIG    1        1.064   7.975   5.018  0.00  0.00    +0.300 A 
ATOM     20  N   LIG    1        1.362   6.904   4.309  0.00  0.00    -0.500 NA
ENDBRANCH  14  15
ENDBRANCH   1  11
BRANCH   5  21
ATOM     21  N   LIG    1       -1.375  -0.241  -0.347  0.00  0.00    -0.460 NA
ATOM     22  C   LIG    1       -1.458  -1.526  -1.066  0.00  0.00    +0.140 C 
ATOM     23  C   LIG    1       -2.677  -0.966  -1.812  0.00  0.00    +0.150 C 
ATOM     24  C   LIG    1       -2.022   0.389  -1.513  0.00  0.00    +0.170 C 
BRANCH  23  25
ATOM     25  O   LIG    1       -3.921  -1.175  -1.141  0.00  0.00    -0.540 OA
ATOM     26  H   LIG    1       -4.332  -2.030  -1.331  0.00  0.00    +0.380 HD
ENDBRANCH  23  25
ENDBRANCH   5  21
TORSDOF 4
