REMARK  Name = ZINCqH0000004D0W.2
REMARK                            x       y       z     vdW  Elec       q    Type
REMARK                         _______ _______ _______ _____ _____    ______ ____
ROOT
ATOM      1  N   LIG    1        4.932   4.825  -1.222  0.00  0.00    -0.480 NA
ENDROOT
BRANCH   1   2
ATOM      2  C   LIG    1        3.960   5.926  -1.250  0.00  0.00    +0.150 C 
ATOM      3  C   LIG    1        3.174   6.208   0.032  0.00  0.00    -0.020 C 
ATOM      4  C   LIG    1        2.477   5.561  -1.167  0.00  0.00    +0.030 C 
ENDBRANCH   1   2
BRANCH   1   5
ATOM      5  C   LIG    1        6.295   5.319  -1.460  0.00  0.00    +0.220 C 
BRANCH   5   9
ATOM      6  C   LIG    1        6.585   6.827  -5.447  0.00  0.00    -0.080 A 
ATOM      7  C   LIG    1        6.212   7.668  -4.415  0.00  0.00    +0.000 A 
ATOM      8  C   LIG    1        6.118   7.180  -3.125  0.00  0.00    +0.010 A 
ATOM      9  C   LIG    1        6.397   5.851  -2.867  0.00  0.00    -0.080 A 
ATOM     10  C   LIG    1        6.775   5.011  -3.897  0.00  0.00    +0.030 A 
ATOM     11  C   LIG    1        6.864   5.498  -5.188  0.00  0.00    +0.000 A 
BRANCH   6  13
ATOM     12  C   LIG    1        8.108   7.873  -7.101  0.00  0.00    +0.030 C 
ATOM     13  C   LIG    1        6.689   7.359  -6.853  0.00  0.00    +0.050 C 
ENDBRANCH   6  13
ENDBRANCH   5   9
ENDBRANCH   1   5
BRANCH   1  14
ATOM     14  C   LIG    1        4.854   4.087   0.046  0.00  0.00    +0.260 C 
BRANCH  14  15
ATOM     15  C   LIG    1        5.605   2.787  -0.083  0.00  0.00    +0.220 A 
ATOM     16  C   LIG    1        6.731   2.561   0.684  0.00  0.00    -0.170 A 
ATOM     17  C   LIG    1        7.411   1.346   0.547  0.00  0.00    +0.510 A 
ATOM     18  N   LIG    1        6.945   0.431  -0.330  0.00  0.00    -0.430 N 
ATOM     19  C   LIG    1        7.596  -0.756  -0.475  0.00  0.00    +0.270 A 
ATOM     20  C   LIG    1        7.152  -1.686  -1.351  0.00  0.00    +0.000 A 
ATOM     21  C   LIG    1        6.003  -1.440  -2.116  0.00  0.00    +0.110 A 
ATOM     22  C   LIG    1        5.344  -0.255  -1.978  0.00  0.00    -0.100 A 
ATOM     23  C   LIG    1        4.111   0.029  -2.797  0.00  0.00    +0.140 C 
ATOM     24  C   LIG    1        5.825   0.702  -1.066  0.00  0.00    +0.390 A 
ATOM     25  O   LIG    1        8.411   1.116   1.210  0.00  0.00    -0.530 OA
ATOM     26  N   LIG    1        5.184   1.861  -0.931  0.00  0.00    -0.510 NA
ENDBRANCH  14  15
ENDBRANCH   1  14
TORSDOF 6
