REMARK  Name = ZINCrH000004slwC.1
REMARK                            x       y       z     vdW  Elec       q    Type
REMARK                         _______ _______ _______ _____ _____    ______ ____
ROOT
ATOM      1  C   LIG    1       -0.729   1.576   1.267  0.00  0.00    +0.080 C 
ATOM      2  C   LIG    1       -0.012   1.082   0.008  0.00  0.00    +0.020 C 
ATOM      3  C   LIG    1       -0.754   1.592  -1.231  0.00  0.00    +0.300 C 
ATOM      4  N   LIG    1       -2.163   1.183  -1.141  0.00  0.00    -0.630 N 
ATOM      5  C   LIG    1       -2.922   1.528   0.069  0.00  0.00    +0.250 C 
ATOM      6  C   LIG    1       -2.747   0.504  -2.148  0.00  0.00    +0.710 C 
ATOM      7  N   LIG    1       -4.007   0.048  -2.010  0.00  0.00    -0.740 N 
ATOM      8  H   LIG    1       -4.520   0.270  -1.218  0.00  0.00    +0.400 HD
ATOM      9  O   LIG    1       -2.137   0.304  -3.180  0.00  0.00    -0.590 OA
ATOM     10  C   LIG    1       -2.155   1.019   1.294  0.00  0.00    +0.030 C 
ENDROOT
BRANCH   1  13
ATOM     11  C   LIG    1        0.548   3.401   3.462  0.00  0.00    +0.140 C 
ATOM     12  C   LIG    1        0.571   1.895   3.437  0.00  0.00    +0.090 A 
ATOM     13  C   LIG    1        0.018   1.105   2.488  0.00  0.00    -0.230 A 
ATOM     14  C   LIG    1        0.268  -0.227   2.837  0.00  0.00    +0.240 A 
ATOM     15  N   LIG    1        0.942  -0.235   3.958  0.00  0.00    -0.290 NA
ATOM     16  N   LIG    1        1.142   1.092   4.359  0.00  0.00    -0.480 N 
ATOM     17  H   LIG    1        1.612   1.383   5.156  0.00  0.00    +0.440 HD
ENDBRANCH   1  13
BRANCH   7  18
ATOM     18  C   LIG    1       -4.603  -0.784  -3.059  0.00  0.00    +0.400 C 
BRANCH  18  19
ATOM     19  C   LIG    1       -6.008  -1.160  -2.664  0.00  0.00    +0.040 A 
ATOM     20  C   LIG    1       -7.132  -0.506  -3.031  0.00  0.00    +0.150 A 
ATOM     21  N   LIG    1       -8.188  -1.167  -2.466  0.00  0.00    -0.350 N 
ATOM     22  C   LIG    1       -9.536  -0.954  -2.500  0.00  0.00    +0.260 A 
ATOM     23  C   LIG    1      -10.379  -1.772  -1.834  0.00  0.00    -0.050 A 
ATOM     24  C   LIG    1       -9.877  -2.857  -1.095  0.00  0.00    +0.070 A 
ATOM     25  C   LIG    1       -8.535  -3.081  -1.053  0.00  0.00    +0.020 A 
ATOM     26 CL   LIG    1       -7.896  -4.415  -0.145  0.00  0.00    -0.010 Cl
ATOM     27 CL   LIG    1      -12.090  -1.483  -1.891  0.00  0.00    -0.020 Cl
ATOM     28  C   LIG    1       -7.669  -2.216  -1.754  0.00  0.00    +0.220 A 
ATOM     29  N   LIG    1       -6.350  -2.192  -1.889  0.00  0.00    -0.450 NA
ENDBRANCH  18  19
ENDBRANCH   7  18
TORSDOF 3
