REMARK  Name = ZINCrH000004slwC.0
REMARK                            x       y       z     vdW  Elec       q    Type
REMARK                         _______ _______ _______ _____ _____    ______ ____
ROOT
ATOM      1  C   LIG    1        2.507   1.444  -0.013  0.00  0.00    +0.070 C 
ATOM      2  C   LIG    1        2.772   0.611  -1.270  0.00  0.00    +0.020 C 
ATOM      3  C   LIG    1        4.246   0.195  -1.300  0.00  0.00    +0.250 C 
ATOM      4  N   LIG    1        4.569  -0.492  -0.043  0.00  0.00    -0.630 N 
ATOM      5  C   LIG    1        4.269   0.182   1.228  0.00  0.00    +0.300 C 
ATOM      6  C   LIG    1        5.129  -1.718  -0.054  0.00  0.00    +0.710 C 
ATOM      7  N   LIG    1        5.305  -2.368  -1.222  0.00  0.00    -0.740 N 
ATOM      8  H   LIG    1        5.096  -1.925  -2.059  0.00  0.00    +0.400 HD
ATOM      9  O   LIG    1        5.476  -2.237   0.989  0.00  0.00    -0.590 OA
ATOM     10  C   LIG    1        2.795   0.599   1.230  0.00  0.00    +0.020 C 
ENDROOT
BRANCH   1  17
ATOM     11  C   LIG    1        1.475   4.440   0.011  0.00  0.00    +0.150 C 
ATOM     12  C   LIG    1        0.609   3.206   0.013  0.00  0.00    +0.080 A 
ATOM     13  N   LIG    1       -0.699   3.187   0.025  0.00  0.00    -0.300 NA
ATOM     14  N   LIG    1       -1.117   1.850   0.017  0.00  0.00    -0.480 N 
ATOM     15  H   LIG    1       -2.036   1.539   0.020  0.00  0.00    +0.440 HD
ATOM     16  C   LIG    1       -0.016   1.070   0.008  0.00  0.00    +0.240 A 
ATOM     17  C   LIG    1        1.065   1.884   0.002  0.00  0.00    -0.230 A 
ENDBRANCH   1  17
BRANCH   7  18
ATOM     18  C   LIG    1        5.811  -3.743  -1.226  0.00  0.00    +0.400 C 
BRANCH  18  19
ATOM     19  C   LIG    1        5.915  -4.235  -2.646  0.00  0.00    +0.040 A 
ATOM     20  C   LIG    1        7.025  -4.195  -3.415  0.00  0.00    +0.150 A 
ATOM     21  N   LIG    1        6.697  -4.739  -4.627  0.00  0.00    -0.350 N 
ATOM     22  C   LIG    1        7.417  -4.952  -5.768  0.00  0.00    +0.260 A 
ATOM     23  C   LIG    1        6.838  -5.515  -6.851  0.00  0.00    -0.050 A 
ATOM     24  C   LIG    1        5.483  -5.889  -6.816  0.00  0.00    +0.070 A 
ATOM     25  C   LIG    1        4.755  -5.681  -5.685  0.00  0.00    +0.020 A 
ATOM     26 CL   LIG    1        3.081  -6.136  -5.624  0.00  0.00    -0.010 Cl
ATOM     27 CL   LIG    1        7.770  -5.777  -8.292  0.00  0.00    -0.020 Cl
ATOM     28  C   LIG    1        5.375  -5.093  -4.563  0.00  0.00    +0.220 A 
ATOM     29  N   LIG    1        4.924  -4.779  -3.357  0.00  0.00    -0.450 NA
ENDBRANCH  18  19
ENDBRANCH   7  18
TORSDOF 3
