REMARK  Name = ZINCvU00000003Ns.0
REMARK                            x       y       z     vdW  Elec       q    Type
REMARK                         _______ _______ _______ _____ _____    ______ ____
ROOT
ATOM      1  C   LIG    1        3.182  -0.412  -0.174  0.00  0.00    +0.350 C 
ATOM      2  C   LIG    1        4.021  -0.729  -1.390  0.00  0.00    -0.220 C 
ATOM      3  C   LIG    1        5.253  -0.220  -1.158  0.00  0.00    +0.100 C 
ATOM      4  C   LIG    1        5.269   0.427   0.171  0.00  0.00    +0.530 C 
ATOM      5  O   LIG    1        6.232   0.978   0.667  0.00  0.00    -0.500 OA
ATOM      6  N   LIG    1        4.059   0.316   0.750  0.00  0.00    -0.590 N 
ENDROOT
BRANCH   1  10
ATOM      7  C   LIG    1       -0.141   2.033  -1.281  0.00  0.00    -0.060 A 
ATOM      8  C   LIG    1        1.119   2.589  -1.170  0.00  0.00    +0.010 A 
ATOM      9  C   LIG    1        2.195   1.798  -0.812  0.00  0.00    +0.030 A 
ATOM     10  C   LIG    1        2.010   0.451  -0.564  0.00  0.00    -0.110 A 
ATOM     11  C   LIG    1        0.749  -0.105  -0.675  0.00  0.00    +0.030 A 
ATOM     12  C   LIG    1       -0.327   0.686  -1.033  0.00  0.00    +0.020 A 
BRANCH   7  14
ATOM     13  C   LIG    1       -1.496   4.011  -0.649  0.00  0.00    +0.040 C 
ATOM     14  C   LIG    1       -1.312   2.894  -1.678  0.00  0.00    +0.020 C 
ATOM     15  C   LIG    1       -1.051   3.507  -3.055  0.00  0.00    +0.030 C 
ENDBRANCH   7  14
ENDBRANCH   1  10
BRANCH   3  16
ATOM     16  O   LIG    1        6.304  -0.293  -2.007  0.00  0.00    -0.430 OA
ATOM     17  H   LIG    1        7.109   0.128  -1.674  0.00  0.00    +0.410 HD
ENDBRANCH   3  16
BRANCH   2  18
ATOM     18  C   LIG    1        3.584  -1.450  -2.590  0.00  0.00    +0.480 C 
ATOM     19  O   LIG    1        3.556  -0.880  -3.665  0.00  0.00    -0.420 OA
BRANCH  18  20
ATOM     20  C   LIG    1        3.178  -2.867  -2.494  0.00  0.00    -0.170 A 
ATOM     21  C   LIG    1        3.326  -3.558  -1.289  0.00  0.00    +0.100 A 
ATOM     22  C   LIG    1        2.940  -4.878  -1.203  0.00  0.00    -0.020 A 
ATOM     23  C   LIG    1        2.417  -5.524  -2.314  0.00  0.00    +0.130 A 
ATOM     24  C   LIG    1        2.273  -4.844  -3.514  0.00  0.00    -0.010 A 
ATOM     25  F   LIG    1        2.046  -6.820  -2.226  0.00  0.00    -0.130 F 
ATOM     26  C   LIG    1        2.650  -3.522  -3.610  0.00  0.00    +0.120 A 
ENDBRANCH  18  20
ENDBRANCH   2  18
BRANCH   6  27
ATOM     27  C   LIG    1        3.683   0.832   2.069  0.00  0.00    +0.450 C 
BRANCH  27  28
ATOM     28  C   LIG    1        3.949  -0.221   3.115  0.00  0.00    -0.050 A 
ATOM     29  C   LIG    1        5.098  -0.380   3.796  0.00  0.00    -0.030 A 
ATOM     30  C   LIG    1        4.909  -1.478   4.666  0.00  0.00    -0.070 A 
ATOM     31  C   LIG    1        3.656  -1.924   4.465  0.00  0.00    +0.180 A 
ATOM     32  O   LIG    1        3.077  -1.155   3.528  0.00  0.00    -0.170 OA
ENDBRANCH  27  28
ENDBRANCH   6  27
TORSDOF 7
