REMARK  Name = ZINCqH00000012u3.0
REMARK                            x       y       z     vdW  Elec       q    Type
REMARK                         _______ _______ _______ _____ _____    ______ ____
ROOT
ATOM      1  N   LIG    1        2.102   4.048   0.971  0.00  0.00    -0.650 N 
ATOM      2  H   LIG    1        2.970   3.678   0.746  0.00  0.00    +0.420 HD
ATOM      3  C   LIG    1        0.995   3.287   0.859  0.00  0.00    +0.590 C 
ATOM      4  O   LIG    1       -0.101   3.773   1.060  0.00  0.00    -0.500 OA
ENDROOT
BRANCH   3   5
ATOM      5  C   LIG    1        1.114   1.860   0.491  0.00  0.00    +0.020 A 
ATOM      6  N   LIG    1        2.300   1.335   0.273  0.00  0.00    -0.180 NA
ATOM      7  N   LIG    1        2.455   0.102  -0.048  0.00  0.00    -0.280 N 
ATOM      8  C   LIG    1        1.408  -0.733  -0.183  0.00  0.00    +0.480 A 
ATOM      9  C   LIG    1        0.099  -0.250   0.033  0.00  0.00    +0.000 A 
ATOM     10  O   LIG    1        1.589  -1.900  -0.489  0.00  0.00    -0.500 OA
ATOM     11  C   LIG    1       -0.050   1.062   0.374  0.00  0.00    +0.140 A 
BRANCH   7  12
ATOM     12  C   LIG    1        3.747  -0.387  -0.264  0.00  0.00    +0.110 A 
ATOM     13  C   LIG    1        4.157  -1.565   0.349  0.00  0.00    +0.050 A 
ATOM     14  C   LIG    1        5.432  -2.048   0.129  0.00  0.00    +0.030 A 
ATOM     15  C   LIG    1        6.304  -1.355  -0.691  0.00  0.00    +0.030 A 
ATOM     16  C   LIG    1        5.901  -0.180  -1.298  0.00  0.00    +0.030 A 
ATOM     17  C   LIG    1        4.626   0.306  -1.087  0.00  0.00    +0.040 A 
ENDBRANCH   7  12
ENDBRANCH   3   5
BRANCH   1  21
ATOM     18  C   LIG    1        1.795   7.989   2.283  0.00  0.00    -0.080 A 
ATOM     19  C   LIG    1        2.893   7.227   2.639  0.00  0.00    +0.030 A 
ATOM     20  C   LIG    1        2.997   5.920   2.205  0.00  0.00    -0.010 A 
ATOM     21  C   LIG    1        1.998   5.371   1.412  0.00  0.00    +0.130 A 
ATOM     22  C   LIG    1        0.899   6.140   1.053  0.00  0.00    +0.030 A 
ATOM     23  C   LIG    1        0.798   7.445   1.493  0.00  0.00    +0.030 A 
BRANCH  18  25
ATOM     24  C   LIG    1        2.877  10.219   2.238  0.00  0.00    +0.040 C 
ATOM     25  C   LIG    1        1.684   9.415   2.758  0.00  0.00    -0.030 C 
ATOM     26  C   LIG    1        1.676   9.444   4.287  0.00  0.00    +0.040 C 
ATOM     27  C   LIG    1        0.386  10.029   2.229  0.00  0.00    +0.030 C 
ENDBRANCH  18  25
ENDBRANCH   1  21
TORSDOF 4
