REMARK  Name = ZINCrD00000l7Yv4.0
REMARK                            x       y       z     vdW  Elec       q    Type
REMARK                         _______ _______ _______ _____ _____    ______ ____
ROOT
ATOM      1  N   LIG    1       -2.976   4.149   0.050  0.00  0.00    -0.730 N 
ATOM      2  H   LIG    1       -3.342   3.251   0.049  0.00  0.00    +0.400 HD
ATOM      3  C   LIG    1       -1.641   4.333   0.038  0.00  0.00    +0.590 C 
ATOM      4  O   LIG    1       -1.182   5.460   0.039  0.00  0.00    -0.520 OA
ENDROOT
BRANCH   3   5
ATOM      5  C   LIG    1       -0.741   3.175   0.025  0.00  0.00    -0.060 A 
ATOM      6  C   LIG    1        0.625   3.219   0.013  0.00  0.00    +0.100 A 
ATOM      7  C   LIG    1        1.085   1.889   0.002  0.00  0.00    -0.120 A 
ATOM      8  C   LIG    1       -0.013   1.076   0.008  0.00  0.00    +0.240 A 
ATOM      9  N   LIG    1       -1.123   1.853   0.017  0.00  0.00    -0.540 N 
ATOM     10  H   LIG    1       -2.038   1.530   0.019  0.00  0.00    +0.420 HD
BRANCH   7  11
ATOM     11  C   LIG    1        2.503   1.449  -0.013  0.00  0.00    +0.200 A 
ATOM     12  C   LIG    1        2.867   0.159  -0.116  0.00  0.00    -0.130 A 
ATOM     13  S   LIG    1        4.627   0.085  -0.096  0.00  0.00    +0.100 S 
ATOM     14  C   LIG    1        4.712   1.785   0.056  0.00  0.00    +0.320 A 
ATOM     15  N   LIG    1        3.522   2.296   0.080  0.00  0.00    -0.540 NA
BRANCH  14  16
ATOM     16  N   LIG    1        5.887   2.513   0.141  0.00  0.00    -0.820 N 
ATOM     17  H   LIG    1        6.743   2.058   0.116  0.00  0.00    +0.420 HD
ATOM     18  H   LIG    1        5.854   3.479   0.227  0.00  0.00    +0.410 HD
ENDBRANCH  14  16
ENDBRANCH   7  11
ENDBRANCH   3   5
BRANCH   1  19
ATOM     19  C   LIG    1       -3.875   5.306   0.063  0.00  0.00    +0.410 C 
BRANCH  19  24
ATOM     20  C   LIG    1       -7.239   4.130  -0.591  0.00  0.00    +0.040 A 
ATOM     21  C   LIG    1       -7.295   4.226   0.763  0.00  0.00    +0.170 A 
ATOM     22  N   LIG    1       -6.068   4.664   1.177  0.00  0.00    -0.560 N 
ATOM     23  H   LIG    1       -5.796   4.827   2.093  0.00  0.00    +0.420 HD
ATOM     24  C   LIG    1       -5.305   4.830   0.074  0.00  0.00    +0.190 A 
ATOM     25  N   LIG    1       -6.004   4.508  -0.978  0.00  0.00    -0.450 NA
BRANCH  20  31
ATOM     26  C   LIG    1       -8.897   2.963  -5.154  0.00  0.00    +0.090 C 
ATOM     27  C   LIG    1       -9.140   3.127  -3.676  0.00  0.00    -0.090 A 
ATOM     28  C   LIG    1      -10.392   2.865  -3.149  0.00  0.00    +0.000 A 
ATOM     29  C   LIG    1      -10.622   3.013  -1.793  0.00  0.00    +0.010 A 
ATOM     30  C   LIG    1       -9.602   3.423  -0.958  0.00  0.00    +0.000 A 
ATOM     31  C   LIG    1       -8.339   3.688  -1.484  0.00  0.00    -0.000 A 
ATOM     32  C   LIG    1       -8.114   3.542  -2.851  0.00  0.00    +0.040 A 
ENDBRANCH  20  31
ENDBRANCH  19  24
ENDBRANCH   1  19
TORSDOF 6
