REMARK  Name = ZINCvU00000003TD.0
REMARK                            x       y       z     vdW  Elec       q    Type
REMARK                         _______ _______ _______ _____ _____    ______ ____
ROOT
ATOM      1  C   LIG    1        3.996   1.389   3.592  0.00  0.00    +0.000 A 
ATOM      2  C   LIG    1        4.691   1.539   2.373  0.00  0.00    -0.210 A 
ATOM      3  C   LIG    1        6.080   1.833   2.029  0.00  0.00    +0.160 A 
ATOM      4  N   LIG    1        6.163   1.854   0.733  0.00  0.00    -0.270 NA
ATOM      5  O   LIG    1        4.894   1.587   0.171  0.00  0.00    -0.080 OA
ATOM      6  C   LIG    1        7.209   2.071   2.999  0.00  0.00    +0.200 C 
ATOM      7  C   LIG    1        3.997   1.395   1.159  0.00  0.00    +0.310 A 
ATOM      8  N   LIG    1        2.703   1.116   1.161  0.00  0.00    -0.460 NA
ATOM      9  C   LIG    1        2.019   0.974   2.287  0.00  0.00    +0.280 A 
ATOM     10  C   LIG    1        2.636   1.102   3.535  0.00  0.00    -0.010 A 
ENDROOT
BRANCH   9  11
ATOM     11  C   LIG    1        0.572   0.667   2.221  0.00  0.00    -0.100 A 
ATOM     12  C   LIG    1       -0.093   0.529   1.060  0.00  0.00    -0.150 A 
ATOM     13  S   LIG    1       -1.740   0.187   1.351  0.00  0.00    +0.190 S 
ATOM     14  C   LIG    1       -1.494   0.228   3.091  0.00  0.00    -0.200 A 
ATOM     15  C   LIG    1       -2.568  -0.002   4.123  0.00  0.00    +0.150 C 
ATOM     16  C   LIG    1        0.527   0.664  -0.307  0.00  0.00    +0.150 C 
ATOM     17  C   LIG    1       -0.219   0.497   3.360  0.00  0.00    +0.040 A 
ENDBRANCH   9  11
BRANCH   1  20
ATOM     18  N   LIG    1        4.070   2.131   5.925  0.00  0.00    -0.660 N 
ATOM     19  H   LIG    1        3.142   2.402   5.842  0.00  0.00    +0.410 HD
ATOM     20  C   LIG    1        4.692   1.533   4.890  0.00  0.00    +0.560 C 
ATOM     21  O   LIG    1        5.824   1.112   5.022  0.00  0.00    -0.490 OA
BRANCH  18  26
ATOM     22  C   LIG    1        5.202   3.730   9.040  0.00  0.00    +0.170 A 
ATOM     23  C   LIG    1        6.136   2.802   9.484  0.00  0.00    +0.010 A 
ATOM     24  C   LIG    1        6.380   1.659   8.748  0.00  0.00    +0.050 A 
ATOM     25  C   LIG    1        5.692   1.431   7.571  0.00  0.00    +0.000 A 
ATOM     26  C   LIG    1        4.761   2.358   7.119  0.00  0.00    +0.160 A 
ATOM     27  C   LIG    1        4.514   3.508   7.856  0.00  0.00    -0.050 A 
BRANCH  22  30
ATOM     28  C   LIG    1        5.171   6.234  11.851  0.00  0.00    +0.100 C 
ATOM     29  C   LIG    1        5.520   5.039  11.001  0.00  0.00    +0.510 C 
ATOM     30  N   LIG    1        4.957   4.888   9.786  0.00  0.00    -0.560 N 
ATOM     31  C   LIG    1        4.087   5.936   9.247  0.00  0.00    +0.300 C 
ATOM     32  O   LIG    1        6.308   4.213  11.411  0.00  0.00    -0.520 OA
ENDBRANCH  22  30
ENDBRANCH  18  26
ENDBRANCH   1  20
TORSDOF 4
