REMARK  Name = ZINCqH00000507ZF.0
REMARK                            x       y       z     vdW  Elec       q    Type
REMARK                         _______ _______ _______ _____ _____    ______ ____
ROOT
ATOM      1  C   LIG    1        5.396   0.387  -1.605  0.00  0.00    +0.550 C 
ATOM      2  O   LIG    1        6.148   0.415  -0.650  0.00  0.00    -0.510 OA
ENDROOT
BRANCH   1   6
ATOM      3  C   LIG    1        5.713   0.888  -6.671  0.00  0.00    +0.140 C 
ATOM      4  C   LIG    1        6.043   0.807  -5.203  0.00  0.00    +0.030 A 
ATOM      5  C   LIG    1        5.159   0.585  -4.215  0.00  0.00    +0.030 A 
ATOM      6  C   LIG    1        5.924   0.588  -2.963  0.00  0.00    -0.210 A 
ATOM      7  C   LIG    1        7.226   0.823  -3.312  0.00  0.00    +0.140 A 
ATOM      8  C   LIG    1        8.391   0.922  -2.360  0.00  0.00    +0.170 C 
ATOM      9  N   LIG    1        7.290   0.947  -4.659  0.00  0.00    -0.370 N 
BRANCH   9  10
ATOM     10  C   LIG    1        8.459   1.190  -5.387  0.00  0.00    +0.220 A 
ATOM     11  N   LIG    1        8.622   2.072  -6.337  0.00  0.00    -0.350 NA
ATOM     12  O   LIG    1        9.749   2.048  -6.775  0.00  0.00    +0.120 OA
ATOM     13  C   LIG    1       10.498   1.117  -6.166  0.00  0.00    +0.200 A 
ATOM     14  C   LIG    1        9.704   0.523  -5.247  0.00  0.00    -0.050 A 
ENDBRANCH   9  10
ENDBRANCH   1   6
BRANCH   1  15
ATOM     15  O   LIG    1        4.079   0.170  -1.419  0.00  0.00    -0.340 OA
BRANCH  15  16
ATOM     16  C   LIG    1        3.629  -0.021  -0.052  0.00  0.00    +0.390 C 
BRANCH  16  17
ATOM     17  C   LIG    1        2.139  -0.248  -0.041  0.00  0.00    +0.250 A 
ATOM     18  N   LIG    1        1.564  -1.409  -0.129  0.00  0.00    -0.440 NA
ATOM     19  C   LIG    1        0.215  -1.235  -0.087  0.00  0.00    -0.020 A 
ATOM     20  C   LIG    1       -0.875  -2.108  -0.141  0.00  0.00    +0.170 A 
ATOM     21  C   LIG    1       -2.157  -1.605  -0.072  0.00  0.00    -0.010 A 
ATOM     22  C   LIG    1       -2.369  -0.240   0.050  0.00  0.00    +0.100 A 
ATOM     23  C   LIG    1       -1.302   0.632   0.109  0.00  0.00    +0.050 A 
ATOM     24  F   LIG    1       -0.673  -3.439  -0.260  0.00  0.00    -0.120 F 
ATOM     25  C   LIG    1       -0.006   0.144   0.036  0.00  0.00    +0.050 A 
ATOM     26  O   LIG    1        1.216   0.722   0.061  0.00  0.00    -0.200 OA
ENDBRANCH  16  17
ENDBRANCH  15  16
ENDBRANCH   1  15
TORSDOF 5
