REMARK  Name = ZINCrg000000o1pp.0
REMARK                            x       y       z     vdW  Elec       q    Type
REMARK                         _______ _______ _______ _____ _____    ______ ____
ROOT
ATOM      1  C   LIG    1        5.880  -5.892   2.061  0.00  0.00    +0.010 C 
ATOM      2  C   LIG    1        4.891  -5.448   3.141  0.00  0.00    +0.060 C 
ATOM      3  C   LIG    1        4.607  -3.951   2.984  0.00  0.00    +0.280 C 
ATOM      4  N   LIG    1        4.153  -3.697   1.610  0.00  0.00    -0.610 N 
ATOM      5  C   LIG    1        4.983  -4.169   0.493  0.00  0.00    +0.280 C 
ATOM      6  C   LIG    1        2.994  -3.049   1.378  0.00  0.00    +0.520 C 
ATOM      7  O   LIG    1        2.316  -2.669   2.309  0.00  0.00    -0.530 OA
ATOM      8  C   LIG    1        5.266  -5.659   0.678  0.00  0.00    +0.040 C 
ENDROOT
BRANCH   1  11
ATOM      9  N   LIG    1        7.041  -7.970   1.389  0.00  0.00    -0.730 N 
ATOM     10  H   LIG    1        7.457  -7.468   0.670  0.00  0.00    +0.410 HD
ATOM     11  C   LIG    1        6.188  -7.357   2.233  0.00  0.00    +0.520 C 
ATOM     12  O   LIG    1        5.668  -7.984   3.131  0.00  0.00    -0.530 OA
BRANCH   9  13
ATOM     13  C   LIG    1        7.341  -9.394   1.556  0.00  0.00    +0.350 C 
BRANCH  13  14
ATOM     14  C   LIG    1        8.314  -9.831   0.492  0.00  0.00    +0.460 C 
ATOM     15  O   LIG    1        8.717  -9.035  -0.322  0.00  0.00    -0.510 OA
BRANCH  14  16
ATOM     16  O   LIG    1        8.734 -11.105   0.449  0.00  0.00    -0.350 OA
BRANCH  16  18
ATOM     17  C   LIG    1       10.033 -12.938  -0.491  0.00  0.00    +0.060 C 
ATOM     18  C   LIG    1        9.672 -11.455  -0.603  0.00  0.00    +0.200 C 
ENDBRANCH  16  18
ENDBRANCH  14  16
ENDBRANCH  13  14
ENDBRANCH   9  13
ENDBRANCH   1  11
BRANCH   6  19
ATOM     19  C   LIG    1        2.542  -2.797  -0.037  0.00  0.00    +0.120 C 
BRANCH  19  20
ATOM     20  C   LIG    1        1.227  -2.061  -0.020  0.00  0.00    -0.070 A 
ATOM     21  C   LIG    1        0.040  -2.768  -0.013  0.00  0.00    +0.090 A 
ATOM     22  C   LIG    1       -1.167  -2.094   0.002  0.00  0.00    +0.040 A 
ATOM     23  C   LIG    1       -1.186  -0.712   0.015  0.00  0.00    +0.100 A 
ATOM     24  C   LIG    1        0.002  -0.004   0.002  0.00  0.00    -0.040 A 
ATOM     25  C   LIG    1        1.208  -0.679  -0.013  0.00  0.00    +0.110 A 
BRANCH  24  26
ATOM     26  N   LIG    1       -0.018   1.476   0.010  0.00  0.00    +0.030 N 
ATOM     27  O   LIG    1       -1.081   2.071   0.018  0.00  0.00    -0.160 OA
ATOM     28  O   LIG    1        1.028   2.099   0.004  0.00  0.00    -0.160 OA
ENDBRANCH  24  26
ENDBRANCH  19  20
ENDBRANCH   6  19
TORSDOF 8
