REMARK  Name = ZINCvU0000000IN2.0
REMARK                            x       y       z     vdW  Elec       q    Type
REMARK                         _______ _______ _______ _____ _____    ______ ____
ROOT
ATOM      1  S   LIG    1       -3.653   5.199   0.486  0.00  0.00    +0.040 S 
ENDROOT
BRANCH   1   3
ATOM      2  N   LIG    1       -1.477   3.477   0.130  0.00  0.00    -0.450 N 
ATOM      3  C   LIG    1       -2.828   3.667   0.207  0.00  0.00    +0.170 A 
ATOM      4  N   LIG    1       -3.397   2.494   0.041  0.00  0.00    -0.280 NA
ATOM      5  N   LIG    1       -2.501   1.591  -0.139  0.00  0.00    -0.240 NA
ATOM      6  C   LIG    1       -1.305   2.131  -0.099  0.00  0.00    +0.210 A 
BRANCH   6   7
ATOM      7  C   LIG    1       -0.016   1.425  -0.262  0.00  0.00    -0.000 A 
ATOM      8  C   LIG    1        1.018   1.635   0.652  0.00  0.00    +0.060 A 
ATOM      9  C   LIG    1        2.216   0.970   0.498  0.00  0.00    +0.050 A 
ATOM     10  C   LIG    1        2.395   0.094  -0.560  0.00  0.00    -0.010 A 
ATOM     11  C   LIG    1        1.374  -0.118  -1.471  0.00  0.00    +0.050 A 
ATOM     12 CL   LIG    1        3.906  -0.739  -0.747  0.00  0.00    -0.050 Cl
ATOM     13  C   LIG    1        0.170   0.541  -1.327  0.00  0.00    +0.010 A 
ATOM     14 CL   LIG    1       -1.111   0.273  -2.468  0.00  0.00    -0.030 Cl
ENDBRANCH   6   7
BRANCH   2  15
ATOM     15  C   LIG    1       -0.431   4.494   0.260  0.00  0.00    +0.350 C 
BRANCH  15  17
ATOM     16  C   LIG    1       -0.166   6.343  -1.312  0.00  0.00    +0.070 C 
ATOM     17  C   LIG    1       -0.102   5.052  -1.101  0.00  0.00    -0.070 C 
ENDBRANCH  15  17
ENDBRANCH   2  15
ENDBRANCH   1   3
BRANCH   1  18
ATOM     18  C   LIG    1       -5.373   4.638   0.463  0.00  0.00    +0.180 C 
BRANCH  18  19
ATOM     19  C   LIG    1       -6.288   5.814   0.688  0.00  0.00    +0.090 A 
ATOM     20  C   LIG    1       -6.785   6.577  -0.324  0.00  0.00    -0.300 A 
ATOM     21  S   LIG    1       -7.808   7.847   0.329  0.00  0.00    +0.300 S 
ATOM     22  C   LIG    1       -7.541   7.321   1.929  0.00  0.00    +0.160 A 
ATOM     23  C   LIG    1       -6.710   6.220   1.945  0.00  0.00    -0.170 A 
BRANCH  22  24
ATOM     24  N   LIG    1       -8.084   7.910   3.048  0.00  0.00    -0.800 N 
ATOM     25  H   LIG    1       -7.886   7.553   3.928  0.00  0.00    +0.420 HD
ATOM     26  H   LIG    1       -8.664   8.682   2.957  0.00  0.00    +0.420 HD
ENDBRANCH  22  24
BRANCH  20  27
ATOM     27  C   LIG    1       -6.516   6.376  -1.702  0.00  0.00    +0.540 C 
ATOM     28  O   LIG    1       -5.792   5.464  -2.054  0.00  0.00    -0.490 OA
BRANCH  27  29
ATOM     29  O   LIG    1       -7.064   7.196  -2.623  0.00  0.00    -0.350 OA
BRANCH  29  30
ATOM     30  C   LIG    1       -6.751   6.936  -3.992  0.00  0.00    +0.200 C 
ATOM     31  C   LIG    1       -7.457   7.961  -4.881  0.00  0.00    +0.070 C 
ENDBRANCH  29  30
ENDBRANCH  27  29
ENDBRANCH  20  27
BRANCH  23  32
ATOM     32  C   LIG    1       -6.315   5.557   3.152  0.00  0.00    +0.270 C 
ATOM     33  N   LIG    1       -6.002   5.032   4.109  0.00  0.00    -0.410 NA
ENDBRANCH  23  32
ENDBRANCH  18  19
ENDBRANCH   1  18
TORSDOF 11
