REMARK  Name = ZINCpk000000o5XX.0
REMARK                            x       y       z     vdW  Elec       q    Type
REMARK                         _______ _______ _______ _____ _____    ______ ____
ROOT
ATOM      1  C   LIG    1        1.321  -0.356  -0.013  0.00  0.00    +0.150 A 
ATOM      2  N   LIG    1        2.016   0.758  -0.013  0.00  0.00    -0.290 NA
ATOM      3  N   LIG    1        1.222   1.768  -0.000  0.00  0.00    -0.270 NA
ATOM      4  C   LIG    1       -0.017   1.363   0.009  0.00  0.00    +0.190 A 
ATOM      5  N   LIG    1        0.002  -0.004   0.002  0.00  0.00    -0.460 N 
ATOM      6  C   LIG    1       -1.154  -0.904   0.009  0.00  0.00    +0.350 C 
ENDROOT
BRANCH   4   7
ATOM      7  C   LIG    1       -1.242   2.240   0.020  0.00  0.00    +0.110 C 
ATOM      8  C   LIG    1       -1.231   3.178  -1.200  0.00  0.00    +0.090 C 
ATOM      9  C   LIG    1       -2.290   4.277  -0.988  0.00  0.00    -0.300 C 
ATOM     10  S   LIG    1       -2.428   4.463   0.827  0.00  0.00    +2.390 S 
ATOM     11  O   LIG    1       -1.905   5.726   1.215  0.00  0.00    -0.930 OA
ATOM     12  O   LIG    1       -3.732   4.080   1.242  0.00  0.00    -0.930 OA
ATOM     13  C   LIG    1       -1.236   3.146   1.278  0.00  0.00    -0.300 C 
ENDBRANCH   4   7
BRANCH   1  14
ATOM     14  S   LIG    1        1.968  -1.995  -0.027  0.00  0.00    +0.080 S 
BRANCH  14  15
ATOM     15  C   LIG    1        3.742  -1.632  -0.042  0.00  0.00    +0.020 C 
ATOM     16  C   LIG    1        4.132  -0.940   1.265  0.00  0.00    +0.080 C 
BRANCH  15  23
ATOM     17  C   LIG    1        9.937  -2.624   0.308  0.00  0.00    +0.020 C 
ATOM     18  C   LIG    1        8.612  -2.747  -0.446  0.00  0.00    -0.020 C 
ATOM     19  C   LIG    1        7.870  -3.999   0.028  0.00  0.00    +0.020 C 
ATOM     20  C   LIG    1        6.560  -4.138  -0.754  0.00  0.00    +0.280 C 
ATOM     21  N   LIG    1        5.792  -2.893  -0.614  0.00  0.00    -0.600 N 
ATOM     22  C   LIG    1        6.440  -1.621  -0.961  0.00  0.00    +0.270 C 
ATOM     23  C   LIG    1        4.516  -2.918  -0.181  0.00  0.00    +0.540 C 
ATOM     24  O   LIG    1        3.991  -3.975   0.098  0.00  0.00    -0.530 OA
ATOM     25  C   LIG    1        7.753  -1.510  -0.172  0.00  0.00    +0.020 C 
ENDBRANCH  15  23
ENDBRANCH  14  15
ENDBRANCH   1  14
TORSDOF 4
