REMARK  Name = ZINCrD00000f2NJa.0
REMARK                            x       y       z     vdW  Elec       q    Type
REMARK                         _______ _______ _______ _____ _____    ______ ____
ROOT
ATOM      1  C   LIG    1        0.283  -5.055   3.512  0.00  0.00    +0.560 C 
ATOM      2  N   LIG    1        0.020  -6.375   3.427  0.00  0.00    -0.600 N 
ATOM      3  C   LIG    1        0.016  -7.038   2.122  0.00  0.00    +0.300 C 
ATOM      4  O   LIG    1        0.374  -4.522   4.600  0.00  0.00    -0.520 OA
ENDROOT
BRANCH   1  10
ATOM      5  C   LIG    1        2.866  -4.222  -3.382  0.00  0.00    +0.130 C 
ATOM      6  C   LIG    1        2.125  -3.711  -2.173  0.00  0.00    +0.110 A 
ATOM      7  C   LIG    1        2.010  -4.514  -1.079  0.00  0.00    -0.010 A 
ATOM      8  C   LIG    1        1.316  -4.028   0.045  0.00  0.00    -0.030 A 
ATOM      9  C   LIG    1        1.154  -4.793   1.207  0.00  0.00    +0.070 A 
ATOM     10  C   LIG    1        0.460  -4.256   2.280  0.00  0.00    -0.100 A 
ATOM     11  C   LIG    1       -0.077  -2.960   2.207  0.00  0.00    +0.060 A 
ATOM     12  C   LIG    1        0.071  -2.204   1.088  0.00  0.00    +0.060 A 
ATOM     13  C   LIG    1        0.769  -2.719  -0.017  0.00  0.00    -0.100 A 
ATOM     14  C   LIG    1        0.946  -1.974  -1.195  0.00  0.00    +0.320 A 
ATOM     15  N   LIG    1        1.609  -2.490  -2.203  0.00  0.00    -0.480 NA
ENDBRANCH   1  10
BRANCH   2  16
ATOM     16  C   LIG    1       -0.261  -7.145   4.642  0.00  0.00    +0.260 C 
ATOM     17  C   LIG    1        0.354  -8.556   4.637  0.00  0.00    +0.270 C 
ATOM     18  N   LIG    1       -0.930  -9.006   5.213  0.00  0.00    -0.640 N 
ATOM     19  C   LIG    1       -1.309 -10.055   5.971  0.00  0.00    +0.620 C 
ATOM     20  O   LIG    1       -2.471 -10.172   6.309  0.00  0.00    -0.520 OA
ATOM     21  C   LIG    1       -1.631  -7.847   4.627  0.00  0.00    +0.290 C 
BRANCH  19  22
ATOM     22  C   LIG    1       -0.314 -11.058   6.390  0.00  0.00    -0.220 A 
ATOM     23  C   LIG    1        1.018 -11.071   6.098  0.00  0.00    +0.260 A 
ATOM     24  O   LIG    1        1.565 -12.150   6.667  0.00  0.00    -0.160 OA
ATOM     25  C   LIG    1        0.641 -12.862   7.331  0.00  0.00    +0.020 A 
ATOM     26 CL   LIG    1        0.939 -14.331   8.206  0.00  0.00    +0.040 Cl
ATOM     27  C   LIG    1       -0.550 -12.252   7.216  0.00  0.00    +0.050 A 
ENDBRANCH  19  22
ENDBRANCH   2  16
TORSDOF 3
