REMARK  Name = ZINCb80000002GOU.0
REMARK                            x       y       z     vdW  Elec       q    Type
REMARK                         _______ _______ _______ _____ _____    ______ ____
ROOT
ATOM      1  O   LIG    1        0.002  -0.004   0.002  0.00  0.00    -0.500 OA
ATOM      2  C   LIG    1       -0.014   1.209   0.009  0.00  0.00    +0.540 C 
ATOM      3  C   LIG    1        1.028   2.301   0.005  0.00  0.00    +0.040 C 
ATOM      4  C   LIG    1       -0.099   3.339   0.020  0.00  0.00    +0.270 C 
ATOM      5  N   LIG    1       -0.973   2.160   0.017  0.00  0.00    -0.750 N 
ATOM      6  H   LIG    1       -1.940   2.087   0.019  0.00  0.00    +0.390 HD
ENDROOT
BRANCH   4   7
ATOM      7  C   LIG    1       -0.187   4.186  -1.251  0.00  0.00    -0.040 C 
ATOM      8  C   LIG    1       -1.284   5.259  -1.095  0.00  0.00    +0.040 C 
ATOM      9  C   LIG    1       -1.929   5.333  -2.503  0.00  0.00    +0.040 C 
ATOM     10  C   LIG    1       -1.904   3.853  -2.957  0.00  0.00    +0.000 C 
ATOM     11  C   LIG    1       -0.587   3.316  -2.425  0.00  0.00    +0.370 C 
ATOM     12  O   LIG    1        0.028   2.371  -2.858  0.00  0.00    -0.430 OA
ENDBRANCH   4   7
TORSDOF 1
