REMARK  Name = ZINCrD00000F5Lq7.0
REMARK                            x       y       z     vdW  Elec       q    Type
REMARK                         _______ _______ _______ _____ _____    ______ ____
ROOT
ATOM      1  C   LIG    1       -2.710   2.882   4.806  0.00  0.00    +0.330 C 
ENDROOT
BRANCH   1   6
ATOM      2  C   LIG    1       -0.343   0.393   0.160  0.00  0.00    +0.090 C 
ATOM      3  C   LIG    1       -0.961   1.042   1.371  0.00  0.00    -0.070 A 
ATOM      4  C   LIG    1       -2.317   1.304   1.399  0.00  0.00    +0.000 A 
ATOM      5  C   LIG    1       -2.884   1.896   2.513  0.00  0.00    +0.060 A 
ATOM      6  C   LIG    1       -2.093   2.234   3.594  0.00  0.00    -0.090 A 
ATOM      7  C   LIG    1       -0.735   1.977   3.564  0.00  0.00    -0.070 A 
ATOM      8  C   LIG    1        0.128   2.345   4.743  0.00  0.00    +0.090 C 
ATOM      9  C   LIG    1       -0.169   1.381   2.453  0.00  0.00    -0.090 A 
ATOM     10  C   LIG    1        1.312   1.101   2.420  0.00  0.00    +0.090 C 
ENDBRANCH   1   6
BRANCH   1  11
ATOM     11  C   LIG    1       -2.576   4.380   4.698  0.00  0.00    +0.160 A 
ATOM     12  N   LIG    1       -3.167   5.157   3.825  0.00  0.00    -0.290 NA
ATOM     13  N   LIG    1       -2.799   6.370   4.058  0.00  0.00    -0.070 NA
ATOM     14  N   LIG    1       -1.988   6.386   5.058  0.00  0.00    -0.090 NA
ATOM     15  N   LIG    1       -1.829   5.178   5.483  0.00  0.00    -0.270 N 
BRANCH  15  16
ATOM     16  C   LIG    1       -0.991   4.755   6.608  0.00  0.00    +0.190 C 
ATOM     17  C   LIG    1       -0.499   5.839   7.569  0.00  0.00    +0.090 C 
ATOM     18  C   LIG    1        0.479   5.181   6.593  0.00  0.00    +0.070 C 
ENDBRANCH  15  16
ENDBRANCH   1  11
BRANCH   1  19
ATOM     19  N   LIG    1       -4.133   2.523   4.883  0.00  0.00    -0.620 NA
ATOM     20  H   LIG    1       -4.692   3.138   4.312  0.00  0.00    +0.370 HD
BRANCH  19  21
ATOM     21  C   LIG    1       -4.601   2.525   6.275  0.00  0.00    +0.040 C 
ATOM     22  C   LIG    1       -6.114   2.729   6.601  0.00  0.00    +0.060 C 
ATOM     23  C   LIG    1       -5.517   3.013   8.009  0.00  0.00    +0.080 C 
ATOM     24  O   LIG    1       -4.793   1.829   8.463  0.00  0.00    -0.350 OA
ATOM     25  C   LIG    1       -6.370   3.762   9.035  0.00  0.00    +0.110 C 
ATOM     26  C   LIG    1       -4.081   1.410   7.247  0.00  0.00    +0.190 C 
ATOM     27  C   LIG    1       -4.534   0.020   6.798  0.00  0.00    +0.050 C 
ATOM     28  C   LIG    1       -4.474   3.789   7.168  0.00  0.00    -0.040 C 
ENDBRANCH  19  21
ENDBRANCH   1  19
TORSDOF 5
