REMARK  Name = ZINCAx0000000aDZ.0
REMARK                            x       y       z     vdW  Elec       q    Type
REMARK                         _______ _______ _______ _____ _____    ______ ____
ROOT
ATOM      1  C   LIG    1       -0.361   0.377  -3.179  0.00  0.00    +0.530 C 
ATOM      2  N   LIG    1        0.061   1.435  -2.459  0.00  0.00    -0.580 N 
ATOM      3  O   LIG    1        0.244   0.043  -4.176  0.00  0.00    -0.530 OA
ENDROOT
BRANCH   1   4
ATOM      4  C   LIG    1       -1.584  -0.390  -2.747  0.00  0.00    +0.050 C 
BRANCH   4   5
ATOM      5  C   LIG    1       -1.843  -1.533  -3.730  0.00  0.00    +0.130 C 
BRANCH   5   6
ATOM      6  C   LIG    1       -3.084  -2.312  -3.290  0.00  0.00    +0.030 C 
ATOM      7  N   LIG    1       -4.071  -1.639  -2.443  0.00  0.00    -0.120 NA
ATOM      8  N   LIG    1       -3.349  -2.459  -1.857  0.00  0.00    -0.120 NA
BRANCH   6   9
ATOM      9  C   LIG    1       -3.562  -3.413  -4.239  0.00  0.00    +0.120 C 
BRANCH   9  10
ATOM     10  C   LIG    1       -4.804  -4.088  -3.653  0.00  0.00    +0.160 C 
BRANCH  10  12
ATOM     11  C   LIG    1       -5.631  -5.991  -5.295  0.00  0.00    +0.030 C 
ATOM     12  C   LIG    1       -5.264  -5.147  -4.566  0.00  0.00    -0.190 C 
ENDBRANCH  10  12
ENDBRANCH   9  10
ENDBRANCH   6   9
ENDBRANCH   5   6
ENDBRANCH   4   5
ENDBRANCH   1   4
BRANCH   2  13
ATOM     13  C   LIG    1        1.249   2.181  -2.880  0.00  0.00    +0.300 C 
BRANCH  13  14
ATOM     14  C   LIG    1        2.220   2.269  -1.730  0.00  0.00    -0.110 A 
ATOM     15  C   LIG    1        2.322   3.438  -0.999  0.00  0.00    +0.030 A 
ATOM     16  C   LIG    1        3.209   3.517   0.057  0.00  0.00    +0.000 A 
ATOM     17  C   LIG    1        4.002   2.431   0.378  0.00  0.00    +0.020 A 
ATOM     18  C   LIG    1        3.904   1.264  -0.357  0.00  0.00    +0.010 A 
ATOM     19  C   LIG    1        3.013   1.183  -1.411  0.00  0.00    -0.060 A 
ATOM     20  C   LIG    1        2.906  -0.089  -2.211  0.00  0.00    +0.100 C 
ENDBRANCH  13  14
BRANCH  13  21
ATOM     21  C   LIG    1        0.847   3.570  -3.304  0.00  0.00    +0.510 C 
ATOM     22  N   LIG    1        1.730   4.363  -3.942  0.00  0.00    -0.720 N 
ATOM     23  H   LIG    1        2.601   4.015  -4.192  0.00  0.00    +0.400 HD
ATOM     24  O   LIG    1       -0.273   3.974  -3.072  0.00  0.00    -0.520 OA
BRANCH  22  25
ATOM     25  C   LIG    1        1.377   5.749  -4.258  0.00  0.00    +0.260 C 
BRANCH  25  26
ATOM     26  C   LIG    1        2.547   6.423  -4.976  0.00  0.00    +0.030 C 
BRANCH  26  27
ATOM     27  C   LIG    1        2.178   7.871  -5.306  0.00  0.00    +0.160 C 
BRANCH  27  28
ATOM     28  O   LIG    1        3.271   8.500  -5.977  0.00  0.00    -0.390 OA
ATOM     29  C   LIG    1        3.028   9.863  -6.332  0.00  0.00    +0.200 C 
ENDBRANCH  27  28
ENDBRANCH  26  27
ENDBRANCH  25  26
ENDBRANCH  22  25
ENDBRANCH  13  21
ENDBRANCH   2  13
BRANCH   2  30
ATOM     30  C   LIG    1       -0.670   1.840  -1.255  0.00  0.00    +0.310 C 
BRANCH  30  31
ATOM     31  C   LIG    1       -0.203   0.995  -0.068  0.00  0.00    +0.140 C 
BRANCH  31  32
ATOM     32  C   LIG    1       -0.892   1.468   1.187  0.00  0.00    +0.230 A 
ATOM     33  N   LIG    1       -0.442   2.389   1.998  0.00  0.00    -0.310 NA
ATOM     34  N   LIG    1       -1.389   2.519   3.028  0.00  0.00    -0.380 N 
ATOM     35  C   LIG    1       -2.365   1.635   2.759  0.00  0.00    +0.480 A 
ATOM     36  C   LIG    1       -1.322   3.433   4.171  0.00  0.00    +0.360 C 
ATOM     37  N   LIG    1       -2.054   1.011   1.651  0.00  0.00    -0.540 NA
ENDBRANCH  31  32
ENDBRANCH  30  31
ENDBRANCH   2  30
TORSDOF 16
