REMARK  Name = ZINCrH000004k87K.2
REMARK                            x       y       z     vdW  Elec       q    Type
REMARK                         _______ _______ _______ _____ _____    ______ ____
ROOT
ATOM      1  C   LIG    1        2.434   3.933  -0.004  0.00  0.00    +0.250 C 
ENDROOT
BRANCH   1   2
ATOM      2  C   LIG    1        2.793   4.296   1.414  0.00  0.00    -0.080 A 
ATOM      3  C   LIG    1        2.176   5.369   2.030  0.00  0.00    +0.070 A 
ATOM      4  C   LIG    1        2.501   5.699   3.332  0.00  0.00    +0.030 A 
ATOM      5  C   LIG    1        3.453   4.963   4.015  0.00  0.00    -0.030 A 
ATOM      6  C   LIG    1        4.075   3.893   3.396  0.00  0.00    +0.030 A 
ATOM      7 CL   LIG    1        3.868   5.383   5.648  0.00  0.00    -0.070 Cl
ATOM      8  C   LIG    1        3.744   3.560   2.096  0.00  0.00    +0.030 A 
ENDBRANCH   1   2
BRANCH   1   9
ATOM      9  C   LIG    1        1.151   3.143  -0.010  0.00  0.00    -0.110 A 
ATOM     10  C   LIG    1        1.192   1.761  -0.016  0.00  0.00    +0.030 A 
ATOM     11  C   LIG    1        0.015   1.035  -0.022  0.00  0.00    +0.020 A 
ATOM     12  C   LIG    1       -1.202   1.692  -0.028  0.00  0.00    -0.030 A 
ATOM     13  C   LIG    1       -1.242   3.075  -0.017  0.00  0.00    +0.030 A 
ATOM     14 CL   LIG    1       -2.680   0.781  -0.043  0.00  0.00    -0.070 Cl
ATOM     15  C   LIG    1       -0.065   3.799  -0.010  0.00  0.00    +0.060 A 
ENDBRANCH   1   9
BRANCH   1  16
ATOM     16  O   LIG    1        2.263   5.126  -0.772  0.00  0.00    -0.360 OA
BRANCH  16  17
ATOM     17  C   LIG    1        2.588   4.978  -2.155  0.00  0.00    +0.150 C 
BRANCH  17  18
ATOM     18  C   LIG    1        2.369   6.310  -2.876  0.00  0.00    +0.220 C 
BRANCH  18  19
ATOM     19  O   LIG    1        0.979   6.643  -2.849  0.00  0.00    -0.540 OA
ATOM     20  H   LIG    1        0.410   5.989  -3.277  0.00  0.00    +0.370 HD
ENDBRANCH  18  19
BRANCH  18  21
ATOM     21  C   LIG    1        2.835   6.187  -4.328  0.00  0.00    +0.150 C 
BRANCH  21  26
ATOM     22  C   LIG    1        3.158  10.887  -7.444  0.00  0.00    +0.190 C 
ATOM     23  N   LIG    1        3.357   9.604  -6.756  0.00  0.00    -0.550 NA
ATOM     24  C   LIG    1        3.373   9.787  -5.298  0.00  0.00    +0.190 C 
ATOM     25  C   LIG    1        3.661   8.444  -4.622  0.00  0.00    +0.180 C 
ATOM     26  N   LIG    1        2.635   7.469  -5.017  0.00  0.00    -0.530 NA
ATOM     27  C   LIG    1        2.620   7.287  -6.475  0.00  0.00    +0.180 C 
ATOM     28  C   LIG    1        2.331   8.629  -7.151  0.00  0.00    +0.180 C 
ENDBRANCH  21  26
ENDBRANCH  18  21
ENDBRANCH  17  18
ENDBRANCH  16  17
ENDBRANCH   1  16
TORSDOF 8
