REMARK  Name = ZINCrH000004nfhW.0
REMARK                            x       y       z     vdW  Elec       q    Type
REMARK                         _______ _______ _______ _____ _____    ______ ____
ROOT
ATOM      1  C   LIG    1       -8.854   3.294   2.286  0.00  0.00    +0.600 C 
ATOM      2  N   LIG    1       -7.974   3.354   3.306  0.00  0.00    -0.670 N 
ATOM      3  H   LIG    1       -8.277   3.599   4.194  0.00  0.00    +0.420 HD
ATOM      4  O   LIG    1       -8.491   2.906   1.191  0.00  0.00    -0.500 OA
ENDROOT
BRANCH   1  13
ATOM      5  C   LIG    1      -11.040   4.826   5.913  0.00  0.00    +0.360 A 
ATOM      6  N   LIG    1      -10.277   4.373   4.946  0.00  0.00    -0.350 NA
ATOM      7  N   LIG    1      -10.801   4.154   3.669  0.00  0.00    -0.220 N 
ATOM      8  C   LIG    1      -12.117   4.411   3.413  0.00  0.00    +0.180 A 
ATOM      9  C   LIG    1      -12.935   4.896   4.449  0.00  0.00    +0.200 A 
ATOM     10  N   LIG    1      -12.366   4.125   2.136  0.00  0.00    -0.450 NA
ATOM     11  C   LIG    1      -11.260   3.697   1.551  0.00  0.00    +0.150 A 
ATOM     12  C   LIG    1      -11.127   3.280   0.109  0.00  0.00    +0.190 C 
ATOM     13  C   LIG    1      -10.243   3.696   2.496  0.00  0.00    -0.070 A 
ATOM     14  C   LIG    1      -12.398   5.100   5.683  0.00  0.00    +0.010 A 
BRANCH   5  16
ATOM     15  C   LIG    1       -9.124   4.734   7.316  0.00  0.00    +0.270 C 
ATOM     16  O   LIG    1      -10.511   5.032   7.146  0.00  0.00    -0.280 OA
ENDBRANCH   5  16
ENDBRANCH   1  13
BRANCH   2  17
ATOM     17  C   LIG    1       -6.627   3.062   3.083  0.00  0.00    +0.160 A 
ATOM     18  C   LIG    1       -5.643   3.754   3.780  0.00  0.00    -0.010 A 
ATOM     19  C   LIG    1       -4.312   3.468   3.563  0.00  0.00    +0.060 A 
ATOM     20  C   LIG    1       -3.953   2.483   2.641  0.00  0.00    -0.050 A 
ATOM     21  C   LIG    1       -4.943   1.794   1.938  0.00  0.00    +0.090 A 
ATOM     22  C   LIG    1       -6.272   2.080   2.164  0.00  0.00    +0.030 A 
BRANCH  20  23
ATOM     23  C   LIG    1       -2.527   2.174   2.405  0.00  0.00    +0.120 A 
ATOM     24  N   LIG    1       -2.074   1.284   1.569  0.00  0.00    -0.460 NA
ATOM     25  C   LIG    1       -0.770   1.143   1.495  0.00  0.00    +0.070 A 
ATOM     26  C   LIG    1       -0.052   1.945   2.287  0.00  0.00    -0.070 A 
ATOM     27  C   LIG    1       -0.125   0.144   0.570  0.00  0.00    +0.160 C 
ATOM     28  S   LIG    1       -1.166   2.957   3.205  0.00  0.00    +0.080 S 
ENDBRANCH  20  23
ENDBRANCH   2  17
TORSDOF 4
