REMARK  Name = ZINCvU00000009Jj.2
REMARK                            x       y       z     vdW  Elec       q    Type
REMARK                         _______ _______ _______ _____ _____    ______ ____
ROOT
ATOM      1  C   LIG    1       -1.882  -1.622  -1.958  0.00  0.00    +0.560 C 
ATOM      2  N   LIG    1       -2.925  -2.397  -1.602  0.00  0.00    -0.470 N 
ATOM      3  N   LIG    1       -4.064  -1.981  -0.902  0.00  0.00    -0.210 NA
ATOM      4  C   LIG    1       -4.809  -2.955  -0.504  0.00  0.00    +0.120 C 
ATOM      5  C   LIG    1       -6.121  -2.922   0.018  0.00  0.00    -0.060 C 
ATOM      6  C   LIG    1       -6.951  -4.168   0.093  0.00  0.00    +0.090 C 
ATOM      7  C   LIG    1       -6.207  -5.434  -0.281  0.00  0.00    +0.020 C 
ATOM      8  C   LIG    1       -5.145  -5.216  -1.357  0.00  0.00    +0.050 C 
ATOM      9  C   LIG    1       -6.636  -1.750   0.458  0.00  0.00    +0.100 C 
ATOM     10  C   LIG    1       -4.086  -4.264  -0.797  0.00  0.00    +0.020 C 
ATOM     11  C   LIG    1       -3.071  -3.846  -1.875  0.00  0.00    +0.310 C 
ATOM     12  O   LIG    1       -0.946  -2.103  -2.562  0.00  0.00    -0.500 OA
ENDROOT
BRANCH   9  13
ATOM     13  C   LIG    1       -5.772  -0.577   0.591  0.00  0.00    -0.160 A 
ATOM     14  C   LIG    1       -6.099   0.692   0.206  0.00  0.00    +0.030 A 
ATOM     15  C   LIG    1       -5.116   1.627   0.439  0.00  0.00    +0.000 A 
ATOM     16  C   LIG    1       -3.997   1.151   0.995  0.00  0.00    -0.060 A 
ATOM     17  S   LIG    1       -4.148  -0.580   1.265  0.00  0.00    +0.150 S 
ENDBRANCH   9  13
BRANCH  11  18
ATOM     18  C   LIG    1       -3.621  -4.082  -3.258  0.00  0.00    -0.190 A 
ATOM     19  C   LIG    1       -3.237  -5.057  -4.082  0.00  0.00    +0.020 A 
ATOM     20  C   LIG    1       -3.888  -5.079  -5.304  0.00  0.00    +0.010 A 
ATOM     21  C   LIG    1       -4.794  -4.115  -5.475  0.00  0.00    -0.050 A 
ATOM     22  S   LIG    1       -4.864  -3.109  -4.034  0.00  0.00    +0.120 S 
ENDBRANCH  11  18
BRANCH   1  23
ATOM     23  C   LIG    1       -1.879  -0.156  -1.607  0.00  0.00    +0.230 C 
BRANCH  23  29
ATOM     24  C   LIG    1        0.344   4.096  -2.688  0.00  0.00    +0.020 C 
ATOM     25  C   LIG    1        0.424   2.573  -2.803  0.00  0.00    -0.010 C 
ATOM     26  C   LIG    1        1.724   2.079  -2.162  0.00  0.00    +0.010 C 
ATOM     27  C   LIG    1        1.768   0.550  -2.228  0.00  0.00    -0.010 C 
ATOM     28  C   LIG    1        0.537  -0.022  -1.521  0.00  0.00    +0.180 C 
ATOM     29  N   LIG    1       -0.680   0.479  -2.171  0.00  0.00    -0.520 NA
ATOM     30  C   LIG    1        3.035   0.045  -1.536  0.00  0.00    +0.020 C 
ATOM     31  C   LIG    1       -0.768   1.942  -2.079  0.00  0.00    +0.170 C 
ENDBRANCH  23  29
ENDBRANCH   1  23
TORSDOF 4
