REMARK  Name = ZINCpk000000nIZQ.0
REMARK                            x       y       z     vdW  Elec       q    Type
REMARK                         _______ _______ _______ _____ _____    ______ ____
ROOT
ATOM      1  N   LIG    1        5.973   2.588   1.338  0.00  0.00    -0.710 N 
ATOM      2  H   LIG    1        6.603   2.392   2.049  0.00  0.00    +0.420 HD
ATOM      3  C   LIG    1        5.086   3.592   1.481  0.00  0.00    +0.570 C 
ATOM      4  O   LIG    1        4.234   3.777   0.632  0.00  0.00    -0.540 OA
ENDROOT
BRANCH   3   5
ATOM      5  C   LIG    1        5.146   4.464   2.665  0.00  0.00    -0.260 A 
ATOM      6  C   LIG    1        4.334   5.592   2.756  0.00  0.00    +0.250 A 
ATOM      7  C   LIG    1        4.419   6.395   3.894  0.00  0.00    -0.300 A 
ATOM      8  C   LIG    1        5.282   6.073   4.892  0.00  0.00    +0.420 A 
ATOM      9  N   LIG    1        6.074   4.978   4.809  0.00  0.00    -0.590 N 
ATOM     10  H   LIG    1        6.682   4.773   5.537  0.00  0.00    +0.430 HD
ATOM     11  C   LIG    1        6.032   4.170   3.733  0.00  0.00    +0.540 A 
ATOM     12  O   LIG    1        6.753   3.189   3.677  0.00  0.00    -0.520 OA
BRANCH   7  13
ATOM     13  C   LIG    1        3.547   7.617   4.018  0.00  0.00    +0.530 C 
ATOM     14  F   LIG    1        2.201   7.238   3.965  0.00  0.00    -0.170 F 
ATOM     15  F   LIG    1        3.825   8.498   2.967  0.00  0.00    -0.170 F 
ATOM     16  F   LIG    1        3.804   8.252   5.239  0.00  0.00    -0.180 F 
ENDBRANCH   7  13
ENDBRANCH   3   5
BRANCH   1  17
ATOM     17  C   LIG    1        5.988   1.794   0.106  0.00  0.00    +0.230 C 
BRANCH  17  18
ATOM     18  C   LIG    1        7.176   0.830   0.136  0.00  0.00    +0.170 C 
BRANCH  18  19
ATOM     19  N   LIG    1        7.080  -0.100  -0.997  0.00  0.00    -0.520 NA
ATOM     20  C   LIG    1        6.891   0.626  -2.261  0.00  0.00    +0.150 C 
ATOM     21  C   LIG    1        6.856  -0.375  -3.418  0.00  0.00    +0.220 C 
ATOM     22  O   LIG    1        5.818  -1.331  -3.183  0.00  0.00    -0.380 OA
ATOM     23  C   LIG    1        5.971  -2.057  -1.961  0.00  0.00    +0.220 C 
ATOM     24  C   LIG    1        5.997  -1.073  -0.789  0.00  0.00    +0.150 C 
ENDBRANCH  18  19
BRANCH  18  26
ATOM     25  C   LIG    1        8.653   2.484   1.288  0.00  0.00    +0.020 C 
ATOM     26  C   LIG    1        8.480   1.624   0.034  0.00  0.00    -0.020 C 
ATOM     27  C   LIG    1        9.659   0.656  -0.086  0.00  0.00    +0.030 C 
ENDBRANCH  18  26
ENDBRANCH  17  18
ENDBRANCH   1  17
TORSDOF 6
