REMARK  Name = ZINCtV000002Aywt.0
REMARK                            x       y       z     vdW  Elec       q    Type
REMARK                         _______ _______ _______ _____ _____    ______ ____
ROOT
ATOM      1  C   LIG    1       -1.400  -1.103   1.409  0.00  0.00    +0.090 A 
ATOM      2  C   LIG    1       -2.609  -0.443   1.508  0.00  0.00    +0.000 A 
ATOM      3  C   LIG    1       -3.702  -0.884   0.766  0.00  0.00    -0.100 A 
ATOM      4  C   LIG    1       -3.582  -1.994  -0.081  0.00  0.00    +0.070 A 
ATOM      5  O   LIG    1       -4.776  -2.209  -0.678  0.00  0.00    -0.200 OA
ATOM      6  C   LIG    1       -5.698  -1.305  -0.282  0.00  0.00    +0.090 A 
ATOM      7  C   LIG    1       -7.036  -1.127  -0.614  0.00  0.00    +0.020 A 
ATOM      8  C   LIG    1       -7.758  -0.099  -0.046  0.00  0.00    +0.060 A 
ATOM      9  C   LIG    1       -7.163   0.766   0.859  0.00  0.00    -0.010 A 
ATOM     10  C   LIG    1       -5.837   0.604   1.201  0.00  0.00    +0.070 A 
ATOM     11  C   LIG    1       -2.361  -2.651  -0.174  0.00  0.00    +0.080 A 
ATOM     12  C   LIG    1       -5.099  -0.429   0.634  0.00  0.00    -0.120 A 
ATOM     13  C   LIG    1       -1.276  -2.206   0.562  0.00  0.00    +0.160 A 
ENDROOT
BRANCH  13  14
ATOM     14  N   LIG    1       -0.047  -2.869   0.459  0.00  0.00    -0.660 N 
ATOM     15  H   LIG    1        0.782  -2.369   0.524  0.00  0.00    +0.420 HD
ATOM     16  C   LIG    1       -0.015  -4.204   0.270  0.00  0.00    +0.520 C 
ATOM     17  O   LIG    1       -1.049  -4.819   0.118  0.00  0.00    -0.510 OA
BRANCH  16  18
ATOM     18  C   LIG    1        1.305  -4.930   0.246  0.00  0.00    +0.050 C 
BRANCH  18  19
ATOM     19  C   LIG    1        1.061  -6.417   0.268  0.00  0.00    -0.070 A 
ATOM     20  C   LIG    1        0.329  -7.012  -0.743  0.00  0.00    +0.060 A 
ATOM     21  C   LIG    1        0.109  -8.376  -0.726  0.00  0.00    +0.020 A 
ATOM     22  C   LIG    1        0.612  -9.145   0.308  0.00  0.00    -0.030 A 
ATOM     23  C   LIG    1        1.341  -8.548   1.322  0.00  0.00    +0.020 A 
ATOM     24 CL   LIG    1        0.331 -10.858   0.334  0.00  0.00    -0.070 Cl
ATOM     25  C   LIG    1        1.564  -7.184   1.302  0.00  0.00    +0.030 A 
ENDBRANCH  18  19
BRANCH  18  26
ATOM     26  C   LIG    1        2.070  -4.557  -1.026  0.00  0.00    +0.000 C 
ATOM     27  C   LIG    1        3.424  -5.271  -1.035  0.00  0.00    +0.030 C 
ATOM     28  C   LIG    1        2.291  -3.044  -1.063  0.00  0.00    +0.020 C 
ENDBRANCH  18  26
ENDBRANCH  16  18
ENDBRANCH  13  14
BRANCH   1  30
ATOM     29  C   LIG    1       -0.528   0.461   2.974  0.00  0.00    +0.250 C 
ATOM     30  O   LIG    1       -0.330  -0.676   2.132  0.00  0.00    -0.310 OA
ENDBRANCH   1  30
TORSDOF 5
