REMARK  Name = ZINCqH0000001AvV.0
REMARK                            x       y       z     vdW  Elec       q    Type
REMARK                         _______ _______ _______ _____ _____    ______ ____
ROOT
ATOM      1  N   LIG    1       -3.687   0.434  -3.142  0.00  0.00    -0.710 N 
ATOM      2  H   LIG    1       -3.641  -0.509  -2.921  0.00  0.00    +0.410 HD
ATOM      3  C   LIG    1       -4.792   0.936  -3.728  0.00  0.00    +0.530 C 
ATOM      4  O   LIG    1       -4.849   2.116  -4.005  0.00  0.00    -0.540 OA
ENDROOT
BRANCH   3   5
ATOM      5  C   LIG    1       -5.957   0.032  -4.040  0.00  0.00    -0.070 C 
ATOM      6  C   LIG    1       -6.477  -0.594  -2.745  0.00  0.00    +0.040 C 
ATOM      7  C   LIG    1       -7.660  -1.512  -3.062  0.00  0.00    -0.010 C 
ATOM      8  C   LIG    1       -7.205  -2.618  -4.016  0.00  0.00    +0.020 C 
ATOM      9  C   LIG    1       -6.685  -1.992  -5.311  0.00  0.00    -0.010 C 
ATOM     10  C   LIG    1       -7.801  -1.178  -5.969  0.00  0.00    +0.010 C 
ATOM     11  C   LIG    1       -8.255  -0.072  -5.014  0.00  0.00    -0.020 C 
ATOM     12  C   LIG    1       -8.776  -0.698  -3.719  0.00  0.00    +0.010 C 
ATOM     13  C   LIG    1       -5.502  -1.074  -4.995  0.00  0.00    +0.040 C 
ATOM     14  C   LIG    1       -7.073   0.846  -4.697  0.00  0.00    +0.050 C 
ENDBRANCH   3   5
BRANCH   1  15
ATOM     15  C   LIG    1       -2.555   1.313  -2.839  0.00  0.00    +0.240 C 
BRANCH  15  16
ATOM     16  C   LIG    1       -1.756   0.730  -1.702  0.00  0.00    +0.510 C 
ATOM     17  N   LIG    1       -1.127   1.545  -0.833  0.00  0.00    -0.600 N 
ATOM     18  C   LIG    1       -0.458   0.958   0.307  0.00  0.00    +0.280 C 
ATOM     19  C   LIG    1       -1.450   0.847   1.491  0.00  0.00    +0.000 C 
ATOM     20  C   LIG    1       -1.745   2.181   2.038  0.00  0.00    +0.000 C 
ATOM     21  C   LIG    1       -2.433   3.124   1.056  0.00  0.00    +0.010 C 
ATOM     22  C   LIG    1       -1.391   3.807   0.204  0.00  0.00    +0.020 C 
ATOM     23  C   LIG    1       -1.149   2.999  -1.084  0.00  0.00    +0.260 C 
ATOM     24  O   LIG    1       -1.680  -0.474  -1.569  0.00  0.00    -0.530 OA
ENDBRANCH  15  16
BRANCH  15  26
ATOM     25  C   LIG    1       -0.478   2.355  -3.758  0.00  0.00    +0.020 C 
ATOM     26  C   LIG    1       -1.663   1.441  -4.076  0.00  0.00    -0.010 C 
ATOM     27  C   LIG    1       -1.147   0.058  -4.477  0.00  0.00    +0.030 C 
ENDBRANCH  15  26
ENDBRANCH   1  15
TORSDOF 4
