REMARK  Name = ZINCnE000001J0sI.0
REMARK                            x       y       z     vdW  Elec       q    Type
REMARK                         _______ _______ _______ _____ _____    ______ ____
ROOT
ATOM      1  N   LIG    1       -2.597   5.140  -0.739  0.00  0.00    -1.090 NA
ENDROOT
BRANCH   1  11
ATOM      2  C   LIG    1       -5.937   6.284  -4.362  0.00  0.00    +0.180 C 
ATOM      3  N   LIG    1       -6.813   6.243  -3.183  0.00  0.00    -0.540 NA
ATOM      4  C   LIG    1       -6.557   5.038  -2.378  0.00  0.00    +0.190 C 
ATOM      5  C   LIG    1       -5.059   4.960  -2.084  0.00  0.00    +0.060 C 
ATOM      6  C   LIG    1       -4.570   6.279  -1.541  0.00  0.00    -0.140 A 
ATOM      7  C   LIG    1       -5.309   7.433  -1.671  0.00  0.00    -0.080 A 
ATOM      8  C   LIG    1       -4.818   8.627  -1.159  0.00  0.00    -0.120 A 
ATOM      9  C   LIG    1       -3.599   8.664  -0.513  0.00  0.00    +0.030 A 
ATOM     10  C   LIG    1       -2.858   7.507  -0.371  0.00  0.00    -0.180 A 
ATOM     11  C   LIG    1       -3.343   6.312  -0.881  0.00  0.00    +0.290 A 
ATOM     12  C   LIG    1       -6.647   7.447  -2.363  0.00  0.00    +0.260 C 
ENDBRANCH   1  11
BRANCH   1  13
ATOM     13  S   LIG    1       -1.135   5.179   0.038  0.00  0.00    +2.630 S 
ATOM     14  O   LIG    1       -0.268   5.955  -0.777  0.00  0.00    -1.020 OA
ATOM     15  O   LIG    1       -1.411   5.491   1.397  0.00  0.00    -1.020 OA
BRANCH  13  16
ATOM     16  C   LIG    1       -0.494   3.538   0.025  0.00  0.00    -0.710 A 
ATOM     17  C   LIG    1        0.801   3.218   0.011  0.00  0.00    +0.030 A 
ATOM     18  C   LIG    1        1.067   1.859   0.002  0.00  0.00    -0.010 A 
ATOM     19  C   LIG    1       -0.013   1.076   0.008  0.00  0.00    -0.040 A 
ATOM     20  S   LIG    1       -1.463   2.070   0.019  0.00  0.00    +0.220 S 
BRANCH  17  21
ATOM     21  C   LIG    1        1.893   4.257   0.006  0.00  0.00    +0.010 C 
ATOM     22  C   LIG    1        3.327   3.774  -0.216  0.00  0.00    +0.030 C 
ATOM     23  C   LIG    1        2.884   4.246   1.171  0.00  0.00    +0.030 C 
ENDBRANCH  17  21
ENDBRANCH  13  16
ENDBRANCH   1  13
TORSDOF 4
