REMARK  Name = ZINCpe000000WICk.0
REMARK                            x       y       z     vdW  Elec       q    Type
REMARK                         _______ _______ _______ _____ _____    ______ ____
ROOT
ATOM      1  C   LIG    1       -1.037   8.665   0.054  0.00  0.00    +0.560 C 
ATOM      2  N   LIG    1       -0.012   7.791   0.040  0.00  0.00    -0.510 N 
ATOM      3  H   LIG    1        0.902   8.116   0.033  0.00  0.00    +0.430 HD
ATOM      4  O   LIG    1       -2.183   8.258   0.063  0.00  0.00    -0.520 OA
ENDROOT
BRANCH   1   8
ATOM      5  C   LIG    1       -0.267  12.843   0.066  0.00  0.00    -0.640 A 
ATOM      6  C   LIG    1       -1.572  12.383   0.077  0.00  0.00    +0.120 A 
ATOM      7  C   LIG    1       -1.829  11.027   0.072  0.00  0.00    +0.080 A 
ATOM      8  C   LIG    1       -0.769  10.119   0.058  0.00  0.00    -0.080 A 
ATOM      9  C   LIG    1        0.545  10.590   0.053  0.00  0.00    +0.030 A 
ATOM     10  C   LIG    1        0.788  11.948   0.052  0.00  0.00    +0.120 A 
BRANCH   5  12
ATOM     11  C   LIG    1        0.151  15.012   1.829  0.00  0.00    -0.250 C 
ATOM     12  S   LIG    1        0.052  14.575   0.072  0.00  0.00    +2.500 S 
ATOM     13  O   LIG    1       -1.107  15.147  -0.519  0.00  0.00    -0.930 OA
ATOM     14  O   LIG    1        1.326  14.699  -0.545  0.00  0.00    -0.930 OA
ENDBRANCH   5  12
ENDBRANCH   1   8
BRANCH   2  15
ATOM     15  N   LIG    1       -0.266   6.413   0.036  0.00  0.00    -0.520 N 
ATOM     16  H   LIG    1       -1.179   6.088   0.043  0.00  0.00    +0.430 HD
ATOM     17  C   LIG    1        0.760   5.539   0.022  0.00  0.00    +0.570 C 
ATOM     18  O   LIG    1        1.906   5.946   0.013  0.00  0.00    -0.530 OA
BRANCH  17  19
ATOM     19  C   LIG    1        0.493   4.087   0.018  0.00  0.00    -0.130 A 
ATOM     20  C   LIG    1       -0.823   3.618   0.028  0.00  0.00    +0.070 A 
ATOM     21  C   LIG    1       -1.071   2.262   0.019  0.00  0.00    +0.040 A 
ATOM     22  C   LIG    1       -0.016   1.359   0.009  0.00  0.00    +0.070 A 
ATOM     23  O   LIG    1        0.002  -0.004   0.002  0.00  0.00    -0.300 OA
ATOM     24  C   LIG    1        1.335  -0.374   0.401  0.00  0.00    +0.440 C 
ATOM     25  O   LIG    1        2.140   0.746  -0.014  0.00  0.00    -0.300 OA
ATOM     26  C   LIG    1        1.300   1.822  -0.001  0.00  0.00    +0.030 A 
ATOM     27  C   LIG    1        1.555   3.179   0.004  0.00  0.00    +0.120 A 
ENDBRANCH  17  19
ENDBRANCH   2  15
TORSDOF 4
