REMARK  Name = ZINCrH000004rhhm.1
REMARK                            x       y       z     vdW  Elec       q    Type
REMARK                         _______ _______ _______ _____ _____    ______ ____
ROOT
ATOM      1  C   LIG    1       -1.773   0.430   3.667  0.00  0.00    +0.190 A 
ATOM      2  C   LIG    1       -2.898  -0.345   3.912  0.00  0.00    +0.040 A 
ATOM      3  C   LIG    1       -3.535  -0.977   2.862  0.00  0.00    +0.060 A 
ATOM      4  C   LIG    1       -3.053  -0.837   1.576  0.00  0.00    +0.010 A 
ATOM      5  C   LIG    1       -1.927  -0.064   1.327  0.00  0.00    -0.120 A 
ATOM      6  C   LIG    1       -1.437   0.056  -0.092  0.00  0.00    +0.320 C 
ATOM      7  N   LIG    1       -0.553   1.216  -0.237  0.00  0.00    -0.390 N 
ATOM      8  H   LIG    1       -1.081   2.064  -0.091  0.00  0.00    +0.420 HD
ATOM      9  C   LIG    1        0.522   1.127   0.763  0.00  0.00    +0.270 C 
ATOM     10  C   LIG    1       -0.065   1.428   2.143  0.00  0.00    +0.120 C 
ATOM     11  C   LIG    1       -1.289   0.571   2.369  0.00  0.00    -0.130 A 
ENDROOT
BRANCH   1  13
ATOM     12  C   LIG    1       -1.083   0.490   5.943  0.00  0.00    +0.620 C 
ATOM     13  N   LIG    1       -1.124   1.071   4.727  0.00  0.00    -0.680 N 
ATOM     14  H   LIG    1       -0.704   1.934   4.588  0.00  0.00    +0.410 HD
ATOM     15  O   LIG    1       -1.514  -0.636   6.093  0.00  0.00    -0.520 OA
BRANCH  12  24
ATOM     16  C   LIG    1       -2.802   2.150   7.575  0.00  0.00    +0.080 C 
ATOM     17  C   LIG    1       -1.333   2.026   7.887  0.00  0.00    +0.000 A 
ATOM     18  C   LIG    1       -0.797   2.702   8.961  0.00  0.00    -0.140 A 
ATOM     19  C   LIG    1        0.554   2.597   9.251  0.00  0.00    +0.070 A 
ATOM     20  C   LIG    1        1.376   1.810   8.468  0.00  0.00    -0.170 A 
ATOM     21  C   LIG    1        0.852   1.118   7.385  0.00  0.00    +0.310 A 
ATOM     22  O   LIG    1        1.658   0.344   6.616  0.00  0.00    -0.690 OA
ATOM     23 CL   LIG    1        3.067   1.686   8.840  0.00  0.00    -0.100 Cl
ATOM     24  C   LIG    1       -0.514   1.221   7.091  0.00  0.00    -0.310 A 
ENDBRANCH  12  24
ENDBRANCH   1  13
BRANCH   7  25
ATOM     25  C   LIG    1        0.029   1.225  -1.586  0.00  0.00    +0.240 C 
BRANCH  25  26
ATOM     26  C   LIG    1       -0.988   1.795  -2.577  0.00  0.00    +0.110 C 
ATOM     27  C   LIG    1       -0.366   1.844  -3.974  0.00  0.00    +0.090 C 
ATOM     28  C   LIG    1       -1.385   3.208  -2.144  0.00  0.00    +0.040 C 
BRANCH  26  29
ATOM     29  O   LIG    1       -2.148   0.961  -2.601  0.00  0.00    -0.540 OA
ATOM     30  H   LIG    1       -2.752   1.106  -1.860  0.00  0.00    +0.380 HD
ENDBRANCH  26  29
ENDBRANCH  25  26
ENDBRANCH   7  25
TORSDOF 5
