REMARK  Name = ZINCrH000004rhhm.0
REMARK                            x       y       z     vdW  Elec       q    Type
REMARK                         _______ _______ _______ _____ _____    ______ ____
ROOT
ATOM      1  C   LIG    1        1.122   6.176   2.255  0.00  0.00    +0.190 A 
ATOM      2  C   LIG    1        1.361   6.458   0.918  0.00  0.00    +0.050 A 
ATOM      3  C   LIG    1        1.391   7.771   0.490  0.00  0.00    +0.060 A 
ATOM      4  C   LIG    1        1.195   8.796   1.393  0.00  0.00    +0.000 A 
ATOM      5  C   LIG    1        0.960   8.519   2.733  0.00  0.00    -0.120 A 
ATOM      6  C   LIG    1        0.747   9.671   3.679  0.00  0.00    +0.310 C 
ATOM      7  N   LIG    1        0.952   9.244   5.066  0.00  0.00    -0.390 N 
ATOM      8  H   LIG    1        1.919   8.992   5.202  0.00  0.00    +0.430 HD
ATOM      9  C   LIG    1        0.096   8.080   5.339  0.00  0.00    +0.270 C 
ATOM     10  C   LIG    1        0.676   6.867   4.610  0.00  0.00    +0.110 C 
ATOM     11  C   LIG    1        0.924   7.212   3.164  0.00  0.00    -0.140 A 
ENDROOT
BRANCH   1  13
ATOM     12  C   LIG    1        0.780   3.861   1.825  0.00  0.00    +0.620 C 
ATOM     13  N   LIG    1        1.086   4.848   2.692  0.00  0.00    -0.670 N 
ATOM     14  H   LIG    1        1.280   4.636   3.618  0.00  0.00    +0.410 HD
ATOM     15  O   LIG    1        0.439   4.133   0.691  0.00  0.00    -0.520 OA
BRANCH  12  24
ATOM     16  C   LIG    1       -1.544   2.586   2.985  0.00  0.00    +0.070 C 
ATOM     17  C   LIG    1       -0.255   1.824   2.815  0.00  0.00    -0.000 A 
ATOM     18  C   LIG    1       -0.175   0.506   3.208  0.00  0.00    -0.140 A 
ATOM     19  C   LIG    1        1.009  -0.198   3.060  0.00  0.00    +0.070 A 
ATOM     20  C   LIG    1        2.119   0.410   2.506  0.00  0.00    -0.170 A 
ATOM     21  C   LIG    1        2.055   1.736   2.100  0.00  0.00    +0.310 A 
ATOM     22  O   LIG    1        3.144   2.335   1.557  0.00  0.00    -0.690 OA
ATOM     23 CL   LIG    1        3.595  -0.484   2.319  0.00  0.00    -0.100 Cl
ATOM     24  C   LIG    1        0.860   2.452   2.254  0.00  0.00    -0.310 A 
ENDBRANCH  12  24
ENDBRANCH   1  13
BRANCH   7  25
ATOM     25  C   LIG    1        0.596  10.340   5.977  0.00  0.00    +0.240 C 
BRANCH  25  26
ATOM     26  C   LIG    1        1.572  11.502   5.783  0.00  0.00    +0.110 C 
ATOM     27  C   LIG    1        2.969  10.952   5.490  0.00  0.00    +0.030 C 
ATOM     28  C   LIG    1        1.615  12.351   7.055  0.00  0.00    +0.110 C 
BRANCH  26  29
ATOM     29  O   LIG    1        1.139  12.310   4.686  0.00  0.00    -0.540 OA
ATOM     30  H   LIG    1        1.072  11.832   3.848  0.00  0.00    +0.370 HD
ENDBRANCH  26  29
ENDBRANCH  25  26
ENDBRANCH   7  25
TORSDOF 5
