REMARK  Name = ZINCrH00000No4CX.0
REMARK                            x       y       z     vdW  Elec       q    Type
REMARK                         _______ _______ _______ _____ _____    ______ ____
ROOT
ATOM      1  C   LIG    1       -2.045   2.133  -1.052  0.00  0.00    +0.460 C 
ATOM      2  O   LIG    1       -2.599   1.901  -0.004  0.00  0.00    -0.480 OA
ENDROOT
BRANCH   1   3
ATOM      3  O   LIG    1       -0.720   1.949  -1.166  0.00  0.00    -0.340 OA
BRANCH   3   4
ATOM      4  C   LIG    1       -0.018   1.468   0.010  0.00  0.00    +0.380 C 
BRANCH   4   5
ATOM      5  C   LIG    1        1.396   1.989  -0.001  0.00  0.00    -0.120 A 
ATOM      6  C   LIG    1        1.997   2.333  -1.197  0.00  0.00    +0.100 A 
ATOM      7  C   LIG    1        3.293   2.812  -1.207  0.00  0.00    +0.030 A 
ATOM      8  C   LIG    1        3.991   2.948  -0.021  0.00  0.00    +0.000 A 
ATOM      9  C   LIG    1        3.391   2.605   1.178  0.00  0.00    +0.000 A 
ATOM     10 CL   LIG    1        5.620   3.549  -0.035  0.00  0.00    -0.050 Cl
ATOM     11  C   LIG    1        2.091   2.130   1.189  0.00  0.00    +0.130 A 
ATOM     12  F   LIG    1        1.502   1.800   2.359  0.00  0.00    -0.120 F 
ENDBRANCH   4   5
BRANCH   4  14
ATOM     13  C   LIG    1        0.018  -1.178  -0.004  0.00  0.00    +0.090 C 
ATOM     14  C   LIG    1        0.002  -0.004   0.002  0.00  0.00    -0.220 C 
ENDBRANCH   4  14
ENDBRANCH   3   4
ENDBRANCH   1   3
BRANCH   1  15
ATOM     15  C   LIG    1       -2.841   2.631  -2.231  0.00  0.00    +0.160 C 
BRANCH  15  16
ATOM     16  C   LIG    1       -4.292   2.751  -1.843  0.00  0.00    -0.060 A 
ATOM     17  C   LIG    1       -5.168   1.718  -2.115  0.00  0.00    +0.030 A 
ATOM     18  C   LIG    1       -6.498   1.826  -1.754  0.00  0.00    +0.020 A 
ATOM     19  C   LIG    1       -6.954   2.973  -1.132  0.00  0.00    +0.020 A 
ATOM     20  C   LIG    1       -6.079   4.009  -0.865  0.00  0.00    +0.030 A 
ATOM     21  C   LIG    1       -4.748   3.898  -1.220  0.00  0.00    -0.090 A 
BRANCH  21  22
ATOM     22  C   LIG    1       -3.793   5.028  -0.930  0.00  0.00    +0.310 C 
BRANCH  22  23
ATOM     23  N   LIG    1       -3.584   5.816  -2.147  0.00  0.00    -0.720 N 
ATOM     24  H   LIG    1       -4.037   5.569  -2.969  0.00  0.00    +0.400 HD
ATOM     25  C   LIG    1       -2.763   6.885  -2.125  0.00  0.00    +0.540 C 
ATOM     26  O   LIG    1       -2.196   7.195  -1.095  0.00  0.00    -0.540 OA
BRANCH  25  27
ATOM     27  C   LIG    1       -2.553   7.676  -3.348  0.00  0.00    -0.090 C 
ATOM     28  C   LIG    1       -1.743   8.730  -3.326  0.00  0.00    +0.140 C 
ENDBRANCH  25  27
ENDBRANCH  22  23
ENDBRANCH  21  22
ENDBRANCH  15  16
ENDBRANCH   1  15
TORSDOF 9
