REMARK  Name = ZINCrH000004rRo7.0
REMARK                            x       y       z     vdW  Elec       q    Type
REMARK                         _______ _______ _______ _____ _____    ______ ____
ROOT
ATOM      1  N   LIG    1       -2.016   2.009  -0.784  0.00  0.00    -0.570 N 
ATOM      2  C   LIG    1       -2.209   1.800   0.655  0.00  0.00    +0.300 C 
ATOM      3  C   LIG    1       -0.787   1.610   1.239  0.00  0.00    +0.000 C 
ATOM      4  C   LIG    1       -0.013   1.086   0.008  0.00  0.00    +0.090 C 
ATOM      5  C   LIG    1       -0.793   1.611  -1.176  0.00  0.00    +0.520 C 
ATOM      6  O   LIG    1       -0.377   1.665  -2.314  0.00  0.00    -0.520 OA
ENDROOT
BRANCH   1  12
ATOM      7  C   LIG    1       -4.044   5.947  -2.918  0.00  0.00    +0.090 C 
ATOM      8  C   LIG    1       -3.987   4.458  -2.692  0.00  0.00    -0.080 A 
ATOM      9  C   LIG    1       -4.890   3.627  -3.329  0.00  0.00    +0.020 A 
ATOM     10  C   LIG    1       -4.841   2.260  -3.125  0.00  0.00    +0.010 A 
ATOM     11  C   LIG    1       -3.886   1.720  -2.286  0.00  0.00    +0.010 A 
ATOM     12  C   LIG    1       -2.982   2.552  -1.639  0.00  0.00    +0.140 A 
ATOM     13  C   LIG    1       -3.033   3.924  -1.847  0.00  0.00    -0.070 A 
ATOM     14  C   LIG    1       -2.050   4.830  -1.152  0.00  0.00    +0.090 C 
ENDBRANCH   1  12
BRANCH   3  15
ATOM     15  C   LIG    1       -0.219   2.922   1.716  0.00  0.00    +0.520 C 
ATOM     16  N   LIG    1        1.058   2.988   2.140  0.00  0.00    -0.720 N 
ATOM     17  H   LIG    1        1.612   2.192   2.139  0.00  0.00    +0.400 HD
ATOM     18  O   LIG    1       -0.911   3.917   1.718  0.00  0.00    -0.520 OA
BRANCH  16  19
ATOM     19  C   LIG    1        1.611   4.264   2.603  0.00  0.00    +0.180 C 
ATOM     20  C   LIG    1        0.798   4.768   3.798  0.00  0.00    +0.030 C 
ATOM     21  C   LIG    1        1.375   6.100   4.282  0.00  0.00    -0.010 C 
ATOM     22  C   LIG    1        1.308   7.126   3.149  0.00  0.00    +0.010 C 
ATOM     23  C   LIG    1        2.120   6.622   1.955  0.00  0.00    -0.010 C 
ATOM     24  C   LIG    1        3.577   6.423   2.377  0.00  0.00    +0.020 C 
ATOM     25  C   LIG    1        3.645   5.397   3.510  0.00  0.00    +0.000 C 
ATOM     26  C   LIG    1        2.832   5.901   4.704  0.00  0.00    +0.020 C 
ATOM     27  C   LIG    1        1.543   5.290   1.471  0.00  0.00    +0.030 C 
ATOM     28  C   LIG    1        3.068   4.065   3.026  0.00  0.00    +0.020 C 
ENDBRANCH  16  19
ENDBRANCH   3  15
TORSDOF 3
