REMARK  Name = ZINCrH000004mPrr.0
REMARK                            x       y       z     vdW  Elec       q    Type
REMARK                         _______ _______ _______ _____ _____    ______ ____
ROOT
ATOM      1  N   LIG    1       -1.241   2.075   0.019  0.00  0.00    -0.650 N 
ATOM      2  H   LIG    1       -2.073   1.583  -0.060  0.00  0.00    +0.420 HD
ATOM      3  C   LIG    1       -1.260   3.418   0.128  0.00  0.00    +0.500 C 
ATOM      4  O   LIG    1       -0.220   4.041   0.127  0.00  0.00    -0.500 OA
ENDROOT
BRANCH   1   8
ATOM      5  C   LIG    1        2.403   0.037   0.015  0.00  0.00    +0.160 A 
ATOM      6  C   LIG    1        2.302   1.280   0.623  0.00  0.00    -0.080 A 
ATOM      7  C   LIG    1        1.095   1.954   0.626  0.00  0.00    +0.100 A 
ATOM      8  C   LIG    1       -0.017   1.388   0.021  0.00  0.00    +0.080 A 
ATOM      9  C   LIG    1        0.083   0.140  -0.590  0.00  0.00    +0.140 A 
ATOM     10  C   LIG    1        1.293  -0.533  -0.592  0.00  0.00    -0.080 A 
BRANCH   5  12
ATOM     11  C   LIG    1        4.693   0.022   0.655  0.00  0.00    +0.250 C 
ATOM     12  O   LIG    1        3.592  -0.623   0.013  0.00  0.00    -0.320 OA
ENDBRANCH   5  12
BRANCH   9  13
ATOM     13  O   LIG    1       -1.006  -0.417  -1.184  0.00  0.00    -0.320 OA
ATOM     14  C   LIG    1       -0.830  -1.698  -1.791  0.00  0.00    +0.250 C 
ENDBRANCH   9  13
ENDBRANCH   1   8
BRANCH   3  15
ATOM     15  C   LIG    1       -2.574   4.145   0.252  0.00  0.00    +0.360 C 
BRANCH  15  16
ATOM     16  N   LIG    1       -2.327   5.585   0.356  0.00  0.00    -0.450 N 
ATOM     17  C   LIG    1       -2.140   6.302   1.521  0.00  0.00    +0.080 A 
ATOM     18  C   LIG    1       -2.104   5.966   2.867  0.00  0.00    +0.020 A 
ATOM     19  C   LIG    1       -1.881   6.946   3.811  0.00  0.00    +0.060 A 
ATOM     20  C   LIG    1       -1.686   8.264   3.422  0.00  0.00    +0.010 A 
ATOM     21  C   LIG    1       -1.712   8.612   2.101  0.00  0.00    +0.090 A 
ATOM     22  C   LIG    1       -1.936   7.636   1.128  0.00  0.00    +0.040 A 
ATOM     23  N   LIG    1       -2.017   7.665  -0.227  0.00  0.00    -0.420 NA
ATOM     24  C   LIG    1       -2.246   6.466  -0.678  0.00  0.00    +0.190 A 
BRANCH  24  25
ATOM     25  C   LIG    1       -2.398   6.106  -2.133  0.00  0.00    +0.560 C 
ATOM     26  F   LIG    1       -3.749   5.877  -2.418  0.00  0.00    -0.160 F 
ATOM     27  F   LIG    1       -1.661   4.948  -2.406  0.00  0.00    -0.160 F 
ATOM     28  F   LIG    1       -1.927   7.157  -2.926  0.00  0.00    -0.140 F 
ENDBRANCH  24  25
ENDBRANCH  15  16
ENDBRANCH   3  15
TORSDOF 6
