REMARK  Name = ZINCvU00000008VD.0
REMARK                            x       y       z     vdW  Elec       q    Type
REMARK                         _______ _______ _______ _____ _____    ______ ____
ROOT
ATOM      1  C   LIG    1        0.893  -4.835  -4.962  0.00  0.00    +0.430 A 
ATOM      2  N   LIG    1        0.980  -4.184  -3.807  0.00  0.00    -0.580 NA
ATOM      3  C   LIG    1        1.117  -4.836  -2.664  0.00  0.00    +0.500 A 
ATOM      4  C   LIG    1        1.161  -6.255  -2.686  0.00  0.00    -0.220 A 
ATOM      5  C   LIG    1        1.061  -6.893  -3.918  0.00  0.00    +0.120 A 
ATOM      6  S   LIG    1        1.137  -8.631  -3.690  0.00  0.00    +0.190 S 
ATOM      7  C   LIG    1        1.304  -8.470  -1.942  0.00  0.00    -0.210 A 
ATOM      8  C   LIG    1        1.452  -9.380  -0.726  0.00  0.00    +0.130 C 
ATOM      9  C   LIG    1        1.986  -8.461   0.392  0.00  0.00    +0.050 C 
ATOM     10  C   LIG    1        1.447  -7.088  -0.054  0.00  0.00    +0.090 C 
ATOM     11  C   LIG    1        1.301  -7.196  -1.572  0.00  0.00    -0.090 A 
ATOM     12  N   LIG    1        0.930  -6.154  -5.028  0.00  0.00    -0.520 NA
ENDROOT
BRANCH   1  17
ATOM     13  C   LIG    1        0.512  -3.939  -8.590  0.00  0.00    -0.040 A 
ATOM     14  C   LIG    1        0.479  -2.561  -8.476  0.00  0.00    +0.280 A 
ATOM     15  N   LIG    1        0.574  -1.974  -7.298  0.00  0.00    -0.490 NA
ATOM     16  C   LIG    1        0.699  -2.665  -6.185  0.00  0.00    +0.320 A 
ATOM     17  C   LIG    1        0.747  -4.058  -6.216  0.00  0.00    -0.100 A 
ATOM     18  C   LIG    1        0.648  -4.710  -7.449  0.00  0.00    +0.120 A 
ENDBRANCH   1  17
BRANCH   3  19
ATOM     19  N   LIG    1        1.211  -4.148  -1.468  0.00  0.00    -0.700 N 
ATOM     20  H   LIG    1        1.308  -4.634  -0.634  0.00  0.00    +0.410 HD
BRANCH  19  21
ATOM     21  C   LIG    1        1.165  -2.683  -1.460  0.00  0.00    +0.290 C 
BRANCH  21  22
ATOM     22  C   LIG    1        1.288  -2.177  -0.021  0.00  0.00    +0.080 C 
BRANCH  22  23
ATOM     23  C   LIG    1        1.240  -0.671  -0.013  0.00  0.00    -0.060 A 
ATOM     24  C   LIG    1        2.394   0.050  -0.020  0.00  0.00    +0.040 A 
ATOM     25  C   LIG    1        2.373   1.443  -0.013  0.00  0.00    +0.020 A 
ATOM     26  C   LIG    1        1.194   2.123   0.002  0.00  0.00    +0.030 A 
ATOM     27  C   LIG    1       -0.017   1.413   0.010  0.00  0.00    -0.100 A 
ATOM     28  C   LIG    1       -1.257   2.078   0.031  0.00  0.00    +0.080 A 
ATOM     29  C   LIG    1       -2.394   1.322   0.033  0.00  0.00    -0.030 A 
ATOM     30  C   LIG    1       -2.305  -0.068   0.024  0.00  0.00    +0.290 A 
ATOM     31  N   LIG    1       -1.148  -0.685   0.010  0.00  0.00    -0.470 NA
ATOM     32  C   LIG    1        0.002  -0.004   0.002  0.00  0.00    +0.130 A 
ENDBRANCH  22  23
ENDBRANCH  21  22
ENDBRANCH  19  21
ENDBRANCH   3  19
TORSDOF 5
