REMARK  Name = ZINCvU0000000DVO.0
REMARK                            x       y       z     vdW  Elec       q    Type
REMARK                         _______ _______ _______ _____ _____    ______ ____
ROOT
ATOM      1  C   LIG    1       -6.644  -0.451   2.495  0.00  0.00    +0.520 C 
ATOM      2  N   LIG    1       -7.878  -0.858   2.853  0.00  0.00    -0.670 N 
ATOM      3  H   LIG    1       -8.652  -0.563   2.348  0.00  0.00    +0.410 HD
ATOM      4  O   LIG    1       -5.685  -0.753   3.174  0.00  0.00    -0.490 OA
ENDROOT
BRANCH   2   5
ATOM      5  C   LIG    1       -8.043  -1.707   3.955  0.00  0.00    +0.160 A 
ATOM      6  C   LIG    1       -9.040  -2.673   3.944  0.00  0.00    +0.000 A 
ATOM      7  C   LIG    1       -9.201  -3.515   5.028  0.00  0.00    +0.060 A 
ATOM      8  C   LIG    1       -8.376  -3.390   6.134  0.00  0.00    +0.020 A 
ATOM      9  O   LIG    1       -8.333  -4.081   7.312  0.00  0.00    -0.290 OA
ATOM     10  C   LIG    1       -7.557  -3.266   8.203  0.00  0.00    +0.270 C 
ATOM     11  O   LIG    1       -6.707  -2.500   7.337  0.00  0.00    -0.290 OA
ATOM     12  C   LIG    1       -6.720  -4.142   9.129  0.00  0.00    +0.060 C 
ATOM     13  C   LIG    1       -7.643  -4.971  10.025  0.00  0.00    +0.030 C 
ATOM     14  C   LIG    1       -8.530  -4.034  10.847  0.00  0.00    +0.020 C 
ATOM     15  C   LIG    1       -9.382  -3.180   9.905  0.00  0.00    +0.030 C 
ATOM     16  C   LIG    1       -8.466  -2.344   9.008  0.00  0.00    +0.010 C 
ATOM     17  C   LIG    1       -7.378  -2.418   6.150  0.00  0.00    +0.050 A 
ATOM     18  C   LIG    1       -7.214  -1.579   5.061  0.00  0.00    +0.050 A 
ENDBRANCH   2   5
BRANCH   1  19
ATOM     19  C   LIG    1       -6.455   0.379   1.252  0.00  0.00    +0.210 C 
BRANCH  19  20
ATOM     20  N   LIG    1       -5.030   0.692   1.083  0.00  0.00    -0.500 NA
ATOM     21  C   LIG    1       -4.253  -0.525   0.812  0.00  0.00    +0.220 C 
BRANCH  20  23
ATOM     22  C   LIG    1       -3.333   1.900  -0.205  0.00  0.00    +0.070 C 
ATOM     23  C   LIG    1       -4.832   1.690   0.024  0.00  0.00    +0.230 C 
BRANCH  23  24
ATOM     24  C   LIG    1       -5.464   2.994   0.438  0.00  0.00    +0.090 A 
ATOM     25  N   LIG    1       -5.415   3.474   1.623  0.00  0.00    -0.430 NA
ATOM     26  C   LIG    1       -6.021   4.655   1.849  0.00  0.00    +0.080 A 
ATOM     27  C   LIG    1       -6.126   5.399   3.041  0.00  0.00    +0.080 A 
ATOM     28  C   LIG    1       -6.799   6.583   3.058  0.00  0.00    +0.030 A 
ATOM     29  C   LIG    1       -7.396   7.077   1.907  0.00  0.00    +0.040 A 
ATOM     30  C   LIG    1       -7.314   6.369   0.729  0.00  0.00    +0.060 A 
ATOM     31  C   LIG    1       -6.630   5.156   0.693  0.00  0.00    -0.180 A 
ATOM     32  S   LIG    1       -6.336   4.015  -0.616  0.00  0.00    +0.090 S 
ENDBRANCH  23  24
ENDBRANCH  20  23
ENDBRANCH  19  20
ENDBRANCH   1  19
TORSDOF 5
