REMARK  Name = ZINCqH0000006YAn.0
REMARK                            x       y       z     vdW  Elec       q    Type
REMARK                         _______ _______ _______ _____ _____    ______ ____
ROOT
ATOM      1  C   LIG    1       -0.729   1.579   1.267  0.00  0.00    +0.200 C 
ENDROOT
BRANCH   1   5
ATOM      2  C   LIG    1        0.614  -0.164   4.161  0.00  0.00    +0.000 A 
ATOM      3  C   LIG    1        1.372   0.963   4.142  0.00  0.00    +0.160 A 
ATOM      4  N   LIG    1        0.971   1.702   3.096  0.00  0.00    -0.480 NA
ATOM      5  C   LIG    1        0.000   1.080   2.488  0.00  0.00    +0.200 A 
ATOM      6  O   LIG    1       -0.242  -0.077   3.119  0.00  0.00    -0.190 OA
BRANCH   2  10
ATOM      7  C   LIG    1        0.881  -3.348   6.962  0.00  0.00    +0.140 A 
ATOM      8  C   LIG    1       -0.056  -3.403   5.938  0.00  0.00    -0.010 A 
ATOM      9  C   LIG    1       -0.145  -2.372   5.028  0.00  0.00    +0.080 A 
ATOM     10  C   LIG    1        0.707  -1.271   5.136  0.00  0.00    -0.050 A 
ATOM     11  C   LIG    1        1.651  -1.222   6.163  0.00  0.00    +0.080 A 
ATOM     12  C   LIG    1        1.730  -2.255   7.073  0.00  0.00    -0.060 A 
BRANCH   7  14
ATOM     13  C   LIG    1        1.952  -4.245   8.885  0.00  0.00    +0.240 C 
ATOM     14  O   LIG    1        0.966  -4.366   7.858  0.00  0.00    -0.310 OA
ENDBRANCH   7  14
ENDBRANCH   2  10
ENDBRANCH   1   5
BRANCH   1  15
ATOM     15  C   LIG    1       -0.013   1.086   0.008  0.00  0.00    +0.090 C 
BRANCH  15  16
ATOM     16  C   LIG    1       -0.742   1.585  -1.213  0.00  0.00    +0.490 C 
ATOM     17  O   LIG    1       -1.738   2.270  -1.088  0.00  0.00    -0.600 OA
BRANCH  16  18
ATOM     18  N   LIG    1       -0.295   1.277  -2.426  0.00  0.00    -0.650 NA
ATOM     19  C   LIG    1       -0.940   1.718  -3.506  0.00  0.00    +0.480 A 
ATOM     20  C   LIG    1       -0.583   1.478  -4.849  0.00  0.00    -0.090 A 
ATOM     21  C   LIG    1       -1.487   2.092  -5.643  0.00  0.00    +0.190 A 
ATOM     22  N   LIG    1       -2.406   2.725  -4.859  0.00  0.00    -0.480 N 
ATOM     23  H   LIG    1       -3.162   3.244  -5.175  0.00  0.00    +0.450 HD
ATOM     24  N   LIG    1       -2.071   2.496  -3.517  0.00  0.00    -0.480 N 
ATOM     25  H   LIG    1       -2.549   2.826  -2.741  0.00  0.00    +0.460 HD
BRANCH  21  26
ATOM     26  C   LIG    1       -1.478   2.085  -7.150  0.00  0.00    +0.070 C 
ATOM     27  C   LIG    1       -1.361   3.520  -7.666  0.00  0.00    +0.040 C 
ATOM     28  C   LIG    1       -2.778   1.462  -7.664  0.00  0.00    +0.040 C 
ENDBRANCH  21  26
ENDBRANCH  16  18
ENDBRANCH  15  16
ENDBRANCH   1  15
TORSDOF 7
