REMARK  Name = ZINCpk00000eb0PO.0
REMARK                            x       y       z     vdW  Elec       q    Type
REMARK                         _______ _______ _______ _____ _____    ______ ____
ROOT
ATOM      1  N   LIG    1       -0.796   2.154  -1.264  0.00  0.00    -1.000 NA
ATOM      2  C   LIG    1       -1.734   1.164  -1.814  0.00  0.00    +0.300 C 
ATOM      3  C   LIG    1       -3.106   1.838  -1.975  0.00  0.00    +0.170 C 
ATOM      4  N   LIG    1       -2.954   3.061  -2.775  0.00  0.00    -0.520 NA
ATOM      5  C   LIG    1       -2.098   4.041  -2.093  0.00  0.00    +0.180 C 
ATOM      6  C   LIG    1       -0.690   3.460  -1.933  0.00  0.00    +0.300 C 
ENDROOT
BRANCH   1   7
ATOM      7  S   LIG    1        0.122   1.806   0.070  0.00  0.00    +2.690 S 
ATOM      8  O   LIG    1        1.256   2.660   0.012  0.00  0.00    -0.950 OA
ATOM      9  O   LIG    1        0.218   0.390   0.133  0.00  0.00    -0.950 OA
BRANCH   7  14
ATOM     10  C   LIG    1       -3.047   3.513   4.913  0.00  0.00    +0.090 C 
ATOM     11  C   LIG    1       -2.256   3.087   3.704  0.00  0.00    -0.030 A 
ATOM     12  C   LIG    1       -2.390   1.804   3.207  0.00  0.00    -0.010 A 
ATOM     13  C   LIG    1       -1.664   1.413   2.097  0.00  0.00    +0.120 A 
ATOM     14  C   LIG    1       -0.804   2.305   1.485  0.00  0.00    -0.680 A 
ATOM     15  C   LIG    1       -0.665   3.586   1.985  0.00  0.00    +0.130 A 
ATOM     16  C   LIG    1       -1.395   3.979   3.091  0.00  0.00    -0.010 A 
ENDBRANCH   7  14
ENDBRANCH   1   7
BRANCH   4  17
ATOM     17  C   LIG    1       -4.263   3.642  -3.101  0.00  0.00    +0.200 C 
BRANCH  17  18
ATOM     18  C   LIG    1       -5.115   3.725  -1.832  0.00  0.00    +0.180 C 
BRANCH  18  19
ATOM     19  O   LIG    1       -4.527   4.659  -0.924  0.00  0.00    -0.550 OA
ATOM     20  H   LIG    1       -4.451   5.556  -1.277  0.00  0.00    +0.370 HD
ENDBRANCH  18  19
BRANCH  18  21
ATOM     21  C   LIG    1       -6.527   4.188  -2.196  0.00  0.00    +0.140 C 
BRANCH  21  22
ATOM     22  O   LIG    1       -7.354   4.154  -1.031  0.00  0.00    -0.370 OA
BRANCH  22  23
ATOM     23  C   LIG    1       -8.701   4.570  -1.262  0.00  0.00    +0.110 C 
ATOM     24  C   LIG    1       -8.709   6.009  -1.780  0.00  0.00    +0.010 C 
ATOM     25  C   LIG    1       -9.490   4.494   0.047  0.00  0.00    +0.050 C 
ATOM     26  C   LIG    1       -9.348   3.651  -2.300  0.00  0.00    +0.010 C 
ENDBRANCH  22  23
ENDBRANCH  21  22
ENDBRANCH  18  21
ENDBRANCH  17  18
ENDBRANCH   4  17
TORSDOF 8
