REMARK  Name = ZINCrH000004qWU8.1
REMARK                            x       y       z     vdW  Elec       q    Type
REMARK                         _______ _______ _______ _____ _____    ______ ____
ROOT
ATOM      1  C   LIG    1        6.922  -1.593   3.385  0.00  0.00    +0.600 C 
ATOM      2  N   LIG    1        5.701  -1.585   2.815  0.00  0.00    -0.670 N 
ATOM      3  H   LIG    1        5.152  -2.384   2.832  0.00  0.00    +0.410 HD
ATOM      4  O   LIG    1        7.576  -0.568   3.438  0.00  0.00    -0.490 OA
ENDROOT
BRANCH   1   9
ATOM      5  C   LIG    1        8.745  -4.368   4.916  0.00  0.00    +0.070 A 
ATOM      6  N   LIG    1        7.617  -4.926   4.529  0.00  0.00    -0.250 NA
ATOM      7  N   LIG    1        6.851  -4.063   3.966  0.00  0.00    -0.370 N 
ATOM      8  H   LIG    1        5.970  -4.250   3.607  0.00  0.00    +0.450 HD
ATOM      9  C   LIG    1        7.464  -2.841   3.944  0.00  0.00    -0.040 A 
ATOM     10  C   LIG    1        8.692  -3.009   4.557  0.00  0.00    +0.040 A 
BRANCH   5  15
ATOM     11  C   LIG    1       13.104  -7.011   7.597  0.00  0.00    +0.090 C 
ATOM     12  C   LIG    1       11.964  -6.320   6.896  0.00  0.00    -0.080 A 
ATOM     13  C   LIG    1       10.833  -7.036   6.546  0.00  0.00    +0.010 A 
ATOM     14  C   LIG    1        9.786  -6.408   5.904  0.00  0.00    +0.040 A 
ATOM     15  C   LIG    1        9.868  -5.049   5.607  0.00  0.00    -0.020 A 
ATOM     16  C   LIG    1       11.011  -4.333   5.957  0.00  0.00    +0.040 A 
ATOM     17  C   LIG    1       12.051  -4.970   6.604  0.00  0.00    +0.010 A 
ENDBRANCH   5  15
ENDBRANCH   1   9
BRANCH   2  18
ATOM     18  C   LIG    1        5.225  -0.423   2.199  0.00  0.00    +0.170 A 
ATOM     19  C   LIG    1        5.533   0.823   2.731  0.00  0.00    +0.000 A 
ATOM     20  C   LIG    1        5.062   1.971   2.124  0.00  0.00    +0.060 A 
ATOM     21  C   LIG    1        4.289   1.885   0.983  0.00  0.00    -0.040 A 
ATOM     22  C   LIG    1        3.972   0.642   0.448  0.00  0.00    +0.180 A 
ATOM     23  C   LIG    1        4.443  -0.513   1.056  0.00  0.00    -0.020 A 
BRANCH  22  24
ATOM     24  N   LIG    1        3.184   0.555  -0.705  0.00  0.00    -0.560 N 
ATOM     25  C   LIG    1        2.537   1.701  -1.353  0.00  0.00    +0.260 C 
ATOM     26  C   LIG    1        1.459   1.096  -2.280  0.00  0.00    +0.060 C 
ATOM     27  C   LIG    1        2.033  -0.313  -2.553  0.00  0.00    +0.070 C 
ATOM     28  C   LIG    1        2.923  -0.589  -1.361  0.00  0.00    +0.520 C 
ATOM     29  O   LIG    1        3.340  -1.682  -1.043  0.00  0.00    -0.510 OA
ENDBRANCH  22  24
ENDBRANCH   2  18
TORSDOF 4
