REMARK  Name = ZINCrH000004qWU8.0
REMARK                            x       y       z     vdW  Elec       q    Type
REMARK                         _______ _______ _______ _____ _____    ______ ____
ROOT
ATOM      1  C   LIG    1        6.922  -1.593   3.385  0.00  0.00    +0.610 C 
ATOM      2  N   LIG    1        5.701  -1.585   2.815  0.00  0.00    -0.660 N 
ATOM      3  H   LIG    1        5.153  -2.385   2.830  0.00  0.00    +0.420 HD
ATOM      4  O   LIG    1        7.575  -0.569   3.439  0.00  0.00    -0.510 OA
ENDROOT
BRANCH   1   7
ATOM      5  C   LIG    1        8.788  -4.326   4.923  0.00  0.00    +0.060 A 
ATOM      6  C   LIG    1        8.725  -3.009   4.565  0.00  0.00    +0.020 A 
ATOM      7  C   LIG    1        7.467  -2.847   3.946  0.00  0.00    -0.010 A 
ATOM      8  N   LIG    1        6.870  -4.022   3.955  0.00  0.00    -0.240 NA
ATOM      9  N   LIG    1        7.619  -4.901   4.518  0.00  0.00    -0.370 N 
ATOM     10  H   LIG    1        7.388  -5.835   4.638  0.00  0.00    +0.450 HD
BRANCH   5  15
ATOM     11  C   LIG    1       13.156  -6.951   7.599  0.00  0.00    +0.090 C 
ATOM     12  C   LIG    1       12.012  -6.264   6.898  0.00  0.00    -0.080 A 
ATOM     13  C   LIG    1       10.885  -6.985   6.549  0.00  0.00    +0.020 A 
ATOM     14  C   LIG    1        9.835  -6.362   5.908  0.00  0.00    +0.010 A 
ATOM     15  C   LIG    1        9.911  -5.001   5.611  0.00  0.00    -0.030 A 
ATOM     16  C   LIG    1       11.053  -4.280   5.960  0.00  0.00    +0.040 A 
ATOM     17  C   LIG    1       12.094  -4.914   6.607  0.00  0.00    +0.020 A 
ENDBRANCH   5  15
ENDBRANCH   1   7
BRANCH   2  18
ATOM     18  C   LIG    1        5.224  -0.423   2.200  0.00  0.00    +0.170 A 
ATOM     19  C   LIG    1        5.533   0.823   2.733  0.00  0.00    +0.000 A 
ATOM     20  C   LIG    1        5.062   1.971   2.125  0.00  0.00    +0.060 A 
ATOM     21  C   LIG    1        4.290   1.886   0.984  0.00  0.00    -0.040 A 
ATOM     22  C   LIG    1        3.973   0.643   0.449  0.00  0.00    +0.180 A 
ATOM     23  C   LIG    1        4.443  -0.512   1.056  0.00  0.00    -0.020 A 
BRANCH  22  24
ATOM     24  N   LIG    1        3.185   0.557  -0.705  0.00  0.00    -0.560 N 
ATOM     25  C   LIG    1        2.538   1.704  -1.353  0.00  0.00    +0.260 C 
ATOM     26  C   LIG    1        1.460   1.099  -2.279  0.00  0.00    +0.060 C 
ATOM     27  C   LIG    1        2.034  -0.310  -2.553  0.00  0.00    +0.070 C 
ATOM     28  C   LIG    1        2.924  -0.587  -1.361  0.00  0.00    +0.510 C 
ATOM     29  O   LIG    1        3.341  -1.681  -1.044  0.00  0.00    -0.510 OA
ENDBRANCH  22  24
ENDBRANCH   2  18
TORSDOF 4
