REMARK  Name = ZINCrg000000riFJ.2
REMARK                            x       y       z     vdW  Elec       q    Type
REMARK                         _______ _______ _______ _____ _____    ______ ____
ROOT
ATOM      1  C   LIG    1       -0.027   0.015  -0.145  0.00  0.00    +0.680 A 
ATOM      2  N   LIG    1        1.033  -0.468   0.462  0.00  0.00    -0.560 NA
ATOM      3  C   LIG    1        2.208   0.173   0.421  0.00  0.00    +0.380 A 
ATOM      4  C   LIG    1        2.310   1.384  -0.283  0.00  0.00    -0.370 A 
ATOM      5  C   LIG    1        1.157   1.892  -0.933  0.00  0.00    +0.590 A 
ATOM      6  O   LIG    1        1.201   2.939  -1.555  0.00  0.00    -0.520 OA
ATOM      7  C   LIG    1        3.643   1.827  -0.157  0.00  0.00    +0.350 A 
ATOM      8  N   LIG    1        4.299   0.961   0.563  0.00  0.00    -0.270 NA
ATOM      9  N   LIG    1        3.442  -0.080   0.941  0.00  0.00    -0.310 N 
ATOM     10  N   LIG    1        0.009   1.185  -0.844  0.00  0.00    -0.660 N 
ATOM     11  H   LIG    1       -0.793   1.510  -1.284  0.00  0.00    +0.420 HD
ENDROOT
BRANCH   1  15
ATOM     12  N   LIG    1       -3.523  -1.975  -0.928  0.00  0.00    -0.530 NA
ATOM     13  C   LIG    1       -3.440  -0.512  -1.039  0.00  0.00    +0.180 C 
ATOM     14  C   LIG    1       -2.493   0.026   0.045  0.00  0.00    +0.300 C 
ATOM     15  N   LIG    1       -1.208  -0.680  -0.074  0.00  0.00    -0.600 N 
ATOM     16  C   LIG    1       -1.222  -2.150  -0.108  0.00  0.00    +0.260 C 
ATOM     17  C   LIG    1        0.175  -2.670  -0.453  0.00  0.00    +0.050 C 
ATOM     18  C   LIG    1       -2.219  -2.603  -1.180  0.00  0.00    +0.170 C 
BRANCH  12  19
ATOM     19  C   LIG    1       -4.550  -2.514  -1.829  0.00  0.00    +0.140 C 
BRANCH  19  21
ATOM     20  C   LIG    1       -6.892  -2.235  -2.652  0.00  0.00    +0.010 C 
ATOM     21  C   LIG    1       -5.822  -1.673  -1.713  0.00  0.00    +0.200 C 
BRANCH  21  22
ATOM     22  O   LIG    1       -6.300  -1.714  -0.367  0.00  0.00    -0.550 OA
ATOM     23  H   LIG    1       -6.517  -2.603  -0.054  0.00  0.00    +0.380 HD
ENDBRANCH  21  22
ENDBRANCH  19  21
ENDBRANCH  12  19
ENDBRANCH   1  15
BRANCH   9  24
ATOM     24  C   LIG    1        3.793  -1.191   1.718  0.00  0.00    +0.150 A 
ATOM     25  C   LIG    1        2.878  -1.732   2.612  0.00  0.00    +0.030 A 
ATOM     26  C   LIG    1        3.225  -2.831   3.373  0.00  0.00    +0.030 A 
ATOM     27  C   LIG    1        4.486  -3.385   3.254  0.00  0.00    +0.010 A 
ATOM     28  C   LIG    1        5.402  -2.846   2.369  0.00  0.00    +0.030 A 
ATOM     29  C   LIG    1        5.059  -1.750   1.601  0.00  0.00    +0.020 A 
ENDBRANCH   9  24
TORSDOF 5
