REMARK  Name = ZINCqH0000008EGG.0
REMARK                            x       y       z     vdW  Elec       q    Type
REMARK                         _______ _______ _______ _____ _____    ______ ____
ROOT
ATOM      1  C   LIG    1        0.186  -2.766  -0.509  0.00  0.00    +0.510 C 
ATOM      2  N   LIG    1        1.238  -2.078  -0.021  0.00  0.00    -0.640 N 
ATOM      3  H   LIG    1        2.012  -2.552   0.320  0.00  0.00    +0.420 HD
ATOM      4  O   LIG    1       -0.740  -2.174  -1.023  0.00  0.00    -0.500 OA
ENDROOT
BRANCH   2   5
ATOM      5  C   LIG    1        1.213  -0.681  -0.008  0.00  0.00    +0.140 A 
ATOM      6  C   LIG    1        0.013  -0.008   0.187  0.00  0.00    +0.030 A 
ATOM      7  C   LIG    1       -0.008   1.373   0.199  0.00  0.00    +0.030 A 
ATOM      8  C   LIG    1        1.163   2.086   0.018  0.00  0.00    +0.020 A 
ATOM      9  C   LIG    1        2.359   1.419  -0.176  0.00  0.00    -0.070 A 
ATOM     10  C   LIG    1        2.388   0.039  -0.190  0.00  0.00    +0.010 A 
BRANCH   9  11
ATOM     11  C   LIG    1        3.633   2.200  -0.374  0.00  0.00    +0.220 C 
BRANCH  11  12
ATOM     12  O   LIG    1        3.824   2.456  -1.767  0.00  0.00    -0.370 OA
BRANCH  12  13
ATOM     13  C   LIG    1        5.010   3.195  -2.065  0.00  0.00    +0.150 C 
ATOM     14  C   LIG    1        4.696   4.692  -2.046  0.00  0.00    -0.010 C 
ATOM     15  C   LIG    1        5.966   5.483  -2.366  0.00  0.00    +0.010 C 
ATOM     16  C   LIG    1        6.479   5.087  -3.752  0.00  0.00    +0.000 C 
ATOM     17  C   LIG    1        6.792   3.590  -3.771  0.00  0.00    +0.010 C 
ATOM     18  C   LIG    1        5.522   2.798  -3.451  0.00  0.00    +0.020 C 
ENDBRANCH  12  13
ENDBRANCH  11  12
ENDBRANCH   9  11
ENDBRANCH   2   5
BRANCH   1  21
ATOM     19  N   LIG    1       -0.890  -4.944  -0.903  0.00  0.00    -0.690 N 
ATOM     20  H   LIG    1       -1.630  -4.472  -1.314  0.00  0.00    +0.410 HD
ATOM     21  C   LIG    1        0.162  -4.256  -0.416  0.00  0.00    +0.510 C 
ATOM     22  O   LIG    1        1.088  -4.848   0.098  0.00  0.00    -0.510 OA
BRANCH  19  27
ATOM     23  C   LIG    1       -3.861  -8.524  -1.881  0.00  0.00    +0.030 C 
ATOM     24  C   LIG    1       -2.530  -8.191  -1.205  0.00  0.00    -0.020 C 
ATOM     25  C   LIG    1       -2.760  -7.671   0.235  0.00  0.00    +0.020 C 
ATOM     26  C   LIG    1       -1.497  -6.840   0.544  0.00  0.00    +0.000 C 
ATOM     27  C   LIG    1       -0.914  -6.406  -0.812  0.00  0.00    +0.240 C 
ATOM     28  C   LIG    1       -1.843  -6.988  -1.898  0.00  0.00    +0.030 C 
ENDBRANCH  19  27
ENDBRANCH   1  21
TORSDOF 6
