REMARK  Name = ZINCqH0000035zvB.0
REMARK                            x       y       z     vdW  Elec       q    Type
REMARK                         _______ _______ _______ _____ _____    ______ ____
ROOT
ATOM      1  N   LIG    1       -1.403   7.296   0.670  0.00  0.00    -0.710 N 
ATOM      2  H   LIG    1       -0.719   7.790   0.191  0.00  0.00    +0.410 HD
ATOM      3  C   LIG    1       -2.428   7.952   1.248  0.00  0.00    +0.560 C 
ATOM      4  O   LIG    1       -3.285   7.333   1.848  0.00  0.00    -0.530 OA
ENDROOT
BRANCH   3   5
ATOM      5  C   LIG    1       -2.512   9.428   1.151  0.00  0.00    -0.050 A 
ATOM      6  C   LIG    1       -1.532  10.160   0.470  0.00  0.00    -0.080 A 
ATOM      7  C   LIG    1       -1.647  11.533   0.398  0.00  0.00    +0.310 A 
ATOM      8  N   LIG    1       -2.657  12.161   0.968  0.00  0.00    -0.530 NA
ATOM      9  C   LIG    1       -3.603  11.512   1.627  0.00  0.00    +0.400 A 
ATOM     10  C   LIG    1       -3.565  10.126   1.743  0.00  0.00    -0.040 A 
BRANCH   9  11
ATOM     11  N   LIG    1       -4.646  12.222   2.211  0.00  0.00    -0.710 N 
ATOM     12  H   LIG    1       -4.678  13.188   2.134  0.00  0.00    +0.410 HD
BRANCH  11  13
ATOM     13  C   LIG    1       -5.698  11.511   2.942  0.00  0.00    +0.240 C 
ATOM     14  C   LIG    1       -6.820  11.084   1.972  0.00  0.00    +0.000 C 
ATOM     15  C   LIG    1       -8.121  11.265   2.793  0.00  0.00    +0.020 C 
ATOM     16  C   LIG    1       -7.837  12.556   3.602  0.00  0.00    +0.020 C 
ATOM     17  C   LIG    1       -6.345  12.446   3.978  0.00  0.00    +0.020 C 
ENDBRANCH  11  13
ENDBRANCH   9  11
ENDBRANCH   3   5
BRANCH   1  18
ATOM     18  C   LIG    1       -1.320   5.836   0.765  0.00  0.00    +0.260 C 
BRANCH  18  19
ATOM     19  C   LIG    1       -0.070   5.347   0.030  0.00  0.00    +0.150 C 
ATOM     20  C   LIG    1       -0.090   5.864  -1.410  0.00  0.00    +0.080 C 
BRANCH  19  21
ATOM     21  C   LIG    1       -0.050   3.840   0.022  0.00  0.00    -0.110 A 
ATOM     22  C   LIG    1        1.156   3.165   0.008  0.00  0.00    +0.030 A 
ATOM     23  C   LIG    1        1.175   1.783   0.000  0.00  0.00    +0.000 A 
ATOM     24  C   LIG    1       -0.013   1.076   0.008  0.00  0.00    +0.010 A 
ATOM     25  C   LIG    1       -1.219   1.751   0.017  0.00  0.00    +0.000 A 
ATOM     26  C   LIG    1       -1.238   3.133   0.029  0.00  0.00    +0.020 A 
ENDBRANCH  19  21
BRANCH  19  28
ATOM     27  C   LIG    1        1.211   5.409   2.055  0.00  0.00    +0.210 C 
ATOM     28  O   LIG    1        1.096   5.836   0.696  0.00  0.00    -0.370 OA
ENDBRANCH  19  28
ENDBRANCH  18  19
ENDBRANCH   1  18
TORSDOF 7
