REMARK  Name = ZINCvU0000000Bt2.0
REMARK                            x       y       z     vdW  Elec       q    Type
REMARK                         _______ _______ _______ _____ _____    ______ ____
ROOT
ATOM      1  N   LIG    1       -2.768   9.957   3.150  0.00  0.00    -0.410 N 
ATOM      2  C   LIG    1       -2.764   8.792   2.433  0.00  0.00    +0.170 A 
ATOM      3  N   LIG    1       -3.834   8.802   1.669  0.00  0.00    -0.280 NA
ATOM      4  N   LIG    1       -4.507   9.879   1.864  0.00  0.00    -0.260 NA
ATOM      5  C   LIG    1       -3.905  10.629   2.757  0.00  0.00    +0.240 A 
ENDROOT
BRANCH   1  11
ATOM      6  C   LIG    1       -1.966  10.045   5.429  0.00  0.00    -0.050 A 
ATOM      7  C   LIG    1       -1.026  10.460   6.351  0.00  0.00    +0.040 A 
ATOM      8  C   LIG    1        0.064  11.207   5.942  0.00  0.00    +0.050 A 
ATOM      9  C   LIG    1        0.215  11.540   4.609  0.00  0.00    +0.030 A 
ATOM     10  C   LIG    1       -0.719  11.122   3.680  0.00  0.00    +0.040 A 
ATOM     11  C   LIG    1       -1.816  10.377   4.089  0.00  0.00    +0.080 A 
BRANCH   6  13
ATOM     12  C   LIG    1       -2.667   7.931   6.519  0.00  0.00    +0.040 C 
ATOM     13  C   LIG    1       -3.153   9.231   5.876  0.00  0.00    +0.010 C 
ATOM     14  C   LIG    1       -3.966  10.032   6.895  0.00  0.00    +0.030 C 
ENDBRANCH   6  13
ENDBRANCH   1  11
BRANCH   5  15
ATOM     15  C   LIG    1       -4.360  11.947   3.248  0.00  0.00    -0.080 A 
ATOM     16  C   LIG    1       -5.346  12.662   2.559  0.00  0.00    +0.120 A 
ATOM     17  C   LIG    1       -5.737  13.891   3.060  0.00  0.00    -0.020 A 
ATOM     18  C   LIG    1       -5.146  14.370   4.215  0.00  0.00    +0.270 A 
ATOM     19  N   LIG    1       -4.218  13.675   4.844  0.00  0.00    -0.480 NA
ATOM     20  C   LIG    1       -3.817  12.498   4.410  0.00  0.00    +0.280 A 
ENDBRANCH   5  15
BRANCH   2  21
ATOM     21  S   LIG    1       -1.548   7.520   2.512  0.00  0.00    +0.060 S 
BRANCH  21  22
ATOM     22  C   LIG    1       -2.231   6.356   1.305  0.00  0.00    +0.160 C 
ATOM     23  C   LIG    1       -2.214   6.995  -0.085  0.00  0.00    +0.110 C 
BRANCH  22  24
ATOM     24  C   LIG    1       -1.398   5.100   1.291  0.00  0.00    +0.190 A 
ATOM     25  N   LIG    1       -1.844   3.867   1.284  0.00  0.00    -0.460 NA
ATOM     26  C   LIG    1       -0.749   3.086   1.275  0.00  0.00    +0.180 A 
ATOM     27  N   LIG    1        0.288   3.869   1.269  0.00  0.00    -0.370 NA
ATOM     28  O   LIG    1       -0.063   5.030   1.278  0.00  0.00    +0.090 OA
BRANCH  26  29
ATOM     29  C   LIG    1       -0.729   1.579   1.267  0.00  0.00    +0.090 C 
ATOM     30  C   LIG    1        0.011   1.072   2.506  0.00  0.00    +0.040 C 
ATOM     31  C   LIG    1       -0.013   1.086   0.008  0.00  0.00    +0.040 C 
ENDBRANCH  26  29
ENDBRANCH  22  24
ENDBRANCH  21  22
ENDBRANCH   2  21
TORSDOF 7
