REMARK  Name = ZINCpk00000l7EXE.0
REMARK                            x       y       z     vdW  Elec       q    Type
REMARK                         _______ _______ _______ _____ _____    ______ ____
ROOT
ATOM      1  C   LIG    1        0.371   5.557   2.030  0.00  0.00    +0.010 A 
ATOM      2  C   LIG    1        1.109   6.298   2.886  0.00  0.00    -0.020 A 
ATOM      3  S   LIG    1        1.040   7.935   2.399  0.00  0.00    +0.270 S 
ATOM      4  C   LIG    1        0.030   7.535   1.080  0.00  0.00    +0.000 A 
ATOM      5  N   LIG    1       -0.198   6.270   1.054  0.00  0.00    -0.420 NA
ENDROOT
BRANCH   1   7
ATOM      6  O   LIG    1        0.762   3.504   3.066  0.00  0.00    -0.530 OA
ATOM      7  C   LIG    1        0.214   4.098   2.157  0.00  0.00    +0.610 C 
ATOM      8  N   LIG    1       -0.537   3.421   1.266  0.00  0.00    -0.610 N 
ATOM      9  C   LIG    1       -1.265   3.989   0.113  0.00  0.00    +0.290 C 
ATOM     10  C   LIG    1       -1.981   2.776  -0.559  0.00  0.00    +0.030 C 
ATOM     11  C   LIG    1       -2.270   1.907   0.718  0.00  0.00    +0.050 C 
ATOM     12  C   LIG    1       -0.813   1.961  -1.203  0.00  0.00    +0.140 C 
ATOM     13  C   LIG    1       -0.017   1.425   0.010  0.00  0.00    +0.130 C 
ATOM     14  C   LIG    1       -0.796   1.952   1.254  0.00  0.00    +0.270 C 
BRANCH  12  15
ATOM     15  O   LIG    1       -1.327   0.878  -1.982  0.00  0.00    -0.550 OA
ATOM     16  H   LIG    1       -0.645   0.303  -2.355  0.00  0.00    +0.380 HD
ENDBRANCH  12  15
BRANCH  13  17
ATOM     17  O   LIG    1        0.002  -0.004   0.002  0.00  0.00    -0.540 OA
ATOM     18  H   LIG    1        0.451  -0.387  -0.764  0.00  0.00    +0.380 HD
ENDBRANCH  13  17
ENDBRANCH   1   7
BRANCH   4  19
ATOM     19  C   LIG    1       -0.512   8.527   0.083  0.00  0.00    +0.330 C 
BRANCH  19  20
ATOM     20  O   LIG    1       -1.770   9.025   0.543  0.00  0.00    -0.300 OA
BRANCH  20  21
ATOM     21  C   LIG    1       -2.399   9.935  -0.246  0.00  0.00    +0.120 A 
ATOM     22  C   LIG    1       -1.814  10.345  -1.435  0.00  0.00    -0.040 A 
ATOM     23  C   LIG    1       -2.457  11.268  -2.238  0.00  0.00    +0.030 A 
ATOM     24  C   LIG    1       -3.679  11.790  -1.852  0.00  0.00    +0.060 A 
ATOM     25  C   LIG    1       -4.261  11.386  -0.663  0.00  0.00    +0.030 A 
ATOM     26  F   LIG    1       -4.304  12.696  -2.636  0.00  0.00    -0.140 F 
ATOM     27  C   LIG    1       -3.624  10.460   0.140  0.00  0.00    +0.020 A 
ENDBRANCH  20  21
ENDBRANCH  19  20
ENDBRANCH   4  19
TORSDOF 6
