REMARK  Name = ZINCpe00000gMHWC.0
REMARK                            x       y       z     vdW  Elec       q    Type
REMARK                         _______ _______ _______ _____ _____    ______ ____
ROOT
ATOM      1  C   LIG    1       -0.587  -3.264   0.272  0.00  0.00    +0.060 C 
ATOM      2  C   LIG    1       -1.337  -1.963   0.561  0.00  0.00    +0.210 C 
ATOM      3  C   LIG    1       -0.891  -0.879  -0.426  0.00  0.00    +0.220 C 
ATOM      4  O   LIG    1       -1.454   0.375  -0.035  0.00  0.00    -0.360 OA
ATOM      5  C   LIG    1       -1.023   0.836   1.248  0.00  0.00    +0.190 C 
ATOM      6  C   LIG    1       -1.476  -0.160   2.321  0.00  0.00    +0.290 C 
ATOM      7  N   LIG    1       -1.028  -1.505   1.925  0.00  0.00    -1.000 NA
ENDROOT
BRANCH   5   8
ATOM      8  C   LIG    1       -1.629   2.187   1.527  0.00  0.00    -0.090 A 
ATOM      9  C   LIG    1       -2.938   2.446   1.164  0.00  0.00    +0.040 A 
ATOM     10  C   LIG    1       -3.495   3.684   1.425  0.00  0.00    +0.000 A 
ATOM     11  C   LIG    1       -2.741   4.666   2.039  0.00  0.00    +0.010 A 
ATOM     12  C   LIG    1       -1.431   4.409   2.397  0.00  0.00    +0.010 A 
ATOM     13  C   LIG    1       -0.875   3.170   2.141  0.00  0.00    +0.010 A 
ENDBRANCH   5   8
BRANCH   7  14
ATOM     14  S   LIG    1       -0.201  -2.473   2.983  0.00  0.00    +2.600 S 
ATOM     15  O   LIG    1       -0.626  -3.790   2.658  0.00  0.00    -0.940 OA
ATOM     16  O   LIG    1       -0.471  -1.910   4.259  0.00  0.00    -0.930 OA
BRANCH  14  17
ATOM     17  C   LIG    1        1.543  -2.241   2.540  0.00  0.00    -0.360 C 
BRANCH  17  18
ATOM     18  C   LIG    1        2.429  -2.912   3.591  0.00  0.00    +0.240 C 
ATOM     19  C   LIG    1        2.000  -4.383   3.758  0.00  0.00    +0.070 C 
ATOM     20  C   LIG    1        2.687  -4.836   5.078  0.00  0.00    -0.300 C 
ATOM     21  S   LIG    1        2.516  -3.316   6.091  0.00  0.00    +2.560 S 
ATOM     22  O   LIG    1        3.751  -2.962   6.700  0.00  0.00    -0.950 OA
ATOM     23  O   LIG    1        1.296  -3.317   6.819  0.00  0.00    -0.940 OA
ATOM     24  N   LIG    1        2.295  -2.199   4.870  0.00  0.00    -1.000 NA
ATOM     25  C   LIG    1        2.019  -0.770   5.041  0.00  0.00    +0.340 C 
ENDBRANCH  17  18
ENDBRANCH  14  17
ENDBRANCH   7  14
TORSDOF 4
