REMARK  Name = ZINCvU0000000Ium.0
REMARK                            x       y       z     vdW  Elec       q    Type
REMARK                         _______ _______ _______ _____ _____    ______ ____
ROOT
ATOM      1  C   LIG    1       -2.598   4.503   5.071  0.00  0.00    +0.070 A 
ATOM      2  C   LIG    1       -2.184   5.460   4.155  0.00  0.00    +0.010 A 
ATOM      3  C   LIG    1       -1.608   5.071   2.963  0.00  0.00    +0.040 A 
ATOM      4  C   LIG    1       -1.442   3.722   2.679  0.00  0.00    +0.150 A 
ATOM      5  C   LIG    1       -1.861   2.765   3.594  0.00  0.00    +0.010 A 
ATOM      6  C   LIG    1       -2.432   3.155   4.789  0.00  0.00    +0.040 A 
ENDROOT
BRANCH   4   7
ATOM      7  N   LIG    1       -0.857   3.327   1.469  0.00  0.00    -0.680 N 
ATOM      8  H   LIG    1       -1.162   2.521   1.024  0.00  0.00    +0.410 HD
ATOM      9  C   LIG    1        0.129   4.066   0.924  0.00  0.00    +0.510 C 
ATOM     10  O   LIG    1        0.457   5.114   1.439  0.00  0.00    -0.500 OA
BRANCH   9  11
ATOM     11  C   LIG    1        0.825   3.590  -0.325  0.00  0.00    +0.160 C 
BRANCH  11  12
ATOM     12  C   LIG    1        1.879   4.590  -0.724  0.00  0.00    -0.160 A 
ATOM     13  C   LIG    1        1.747   5.588  -1.608  0.00  0.00    +0.230 A 
ATOM     14  O   LIG    1        2.899   6.275  -1.707  0.00  0.00    -0.190 OA
ATOM     15  C   LIG    1        3.840   5.757  -0.892  0.00  0.00    +0.090 A 
ATOM     16  C   LIG    1        5.162   6.089  -0.627  0.00  0.00    -0.010 A 
ATOM     17  C   LIG    1        5.887   5.346   0.288  0.00  0.00    +0.150 A 
ATOM     18  C   LIG    1        5.302   4.267   0.945  0.00  0.00    -0.070 A 
ATOM     19  C   LIG    1        4.002   3.927   0.695  0.00  0.00    +0.100 A 
ATOM     20  C   LIG    1        3.256   4.670  -0.219  0.00  0.00    -0.150 A 
BRANCH  17  21
ATOM     21  O   LIG    1        7.181   5.671   0.546  0.00  0.00    -0.310 OA
ATOM     22  C   LIG    1        7.875   4.865   1.500  0.00  0.00    +0.250 C 
ENDBRANCH  17  21
ENDBRANCH  11  12
ENDBRANCH   9  11
ENDBRANCH   4   7
BRANCH   1  23
ATOM     23  O   LIG    1       -3.165   4.887   6.245  0.00  0.00    -0.260 OA
BRANCH  23  27
ATOM     24  C   LIG    1       -7.067   6.233   6.164  0.00  0.00    +0.100 A 
ATOM     25  C   LIG    1       -6.408   6.088   7.376  0.00  0.00    +0.030 A 
ATOM     26  C   LIG    1       -5.103   5.638   7.403  0.00  0.00    +0.040 A 
ATOM     27  C   LIG    1       -4.450   5.331   6.218  0.00  0.00    +0.080 A 
ATOM     28  C   LIG    1       -5.107   5.481   5.006  0.00  0.00    -0.020 A 
ATOM     29  C   LIG    1       -6.414   5.926   4.979  0.00  0.00    -0.040 A 
BRANCH  24  30
ATOM     30  O   LIG    1       -8.352   6.677   6.137  0.00  0.00    -0.320 OA
BRANCH  30  32
ATOM     31  C   LIG    1      -10.401   7.310   5.024  0.00  0.00    +0.070 C 
ATOM     32  C   LIG    1       -8.968   6.802   4.854  0.00  0.00    +0.170 C 
ENDBRANCH  30  32
ENDBRANCH  24  30
ENDBRANCH  23  27
ENDBRANCH   1  23
TORSDOF 8
