REMARK  Name = ZINCpk00000kOICy.1
REMARK                            x       y       z     vdW  Elec       q    Type
REMARK                         _______ _______ _______ _____ _____    ______ ____
ROOT
ATOM      1  N   LIG    1       -1.191   1.867   0.018  0.00  0.00    -0.730 N 
ATOM      2  H   LIG    1       -1.204   2.837   0.023  0.00  0.00    +0.410 HD
ATOM      3  C   LIG    1       -0.014   1.209   0.009  0.00  0.00    +0.480 C 
ATOM      4  O   LIG    1        0.002  -0.004   0.002  0.00  0.00    -0.530 OA
ENDROOT
BRANCH   1   5
ATOM      5  C   LIG    1       -2.449   1.117   0.020  0.00  0.00    +0.260 C 
BRANCH   5   6
ATOM      6  C   LIG    1       -3.626   2.095   0.031  0.00  0.00    +0.310 C 
BRANCH   6  17
ATOM      7  C   LIG    1       -5.150   1.167   2.556  0.00  0.00    +0.190 C 
ATOM      8  C   LIG    1       -5.572   0.927   1.129  0.00  0.00    +0.290 A 
ATOM      9  N   LIG    1       -6.647   0.290   0.767  0.00  0.00    -0.490 NA
ATOM     10  C   LIG    1       -6.722   0.256  -0.589  0.00  0.00    +0.060 A 
ATOM     11  C   LIG    1       -7.644  -0.286  -1.488  0.00  0.00    +0.090 A 
ATOM     12  C   LIG    1       -7.437  -0.152  -2.843  0.00  0.00    -0.040 A 
ATOM     13  C   LIG    1       -6.319   0.518  -3.322  0.00  0.00    +0.050 A 
ATOM     14  C   LIG    1       -5.400   1.058  -2.447  0.00  0.00    +0.030 A 
ATOM     15 CL   LIG    1       -8.583  -0.824  -3.960  0.00  0.00    -0.060 Cl
ATOM     16  C   LIG    1       -5.596   0.937  -1.079  0.00  0.00    +0.050 A 
ATOM     17  N   LIG    1       -4.884   1.346   0.033  0.00  0.00    -0.490 N 
ENDBRANCH   6  17
ENDBRANCH   5   6
ENDBRANCH   1   5
BRANCH   3  18
ATOM     18  C   LIG    1        1.280   1.980   0.001  0.00  0.00    +0.200 C 
BRANCH  18  19
ATOM     19  N   LIG    1        2.372   1.110   0.459  0.00  0.00    -0.820 NA
ATOM     20  H   LIG    1        2.470   0.306  -0.142  0.00  0.00    +0.350 HD
ATOM     21  H   LIG    1        2.231   0.829   1.418  0.00  0.00    +0.350 HD
ENDBRANCH  18  19
BRANCH  18  22
ATOM     22  C   LIG    1        1.577   2.464  -1.420  0.00  0.00    +0.140 C 
BRANCH  22  23
ATOM     23  C   LIG    1        2.805   3.337  -1.408  0.00  0.00    +0.090 A 
ATOM     24  C   LIG    1        3.880   3.036  -2.229  0.00  0.00    +0.040 A 
ATOM     25  C   LIG    1        4.987   3.874  -2.186  0.00  0.00    +0.040 A 
ATOM     26  C   LIG    1        4.953   4.952  -1.317  0.00  0.00    +0.200 A 
ATOM     27  N   LIG    1        3.886   5.158  -0.567  0.00  0.00    -0.240 NA
ATOM     28  N   LIG    1        2.861   4.387  -0.611  0.00  0.00    -0.240 NA
ENDBRANCH  22  23
ENDBRANCH  18  22
ENDBRANCH   3  18
TORSDOF 7
