REMARK  Name = ZINCrH000004uwxs.0
REMARK                            x       y       z     vdW  Elec       q    Type
REMARK                         _______ _______ _______ _____ _____    ______ ____
ROOT
ATOM      1  O   LIG    1        4.736   8.012   2.166  0.00  0.00    -0.530 OA
ATOM      2  C   LIG    1        5.754   7.354   2.063  0.00  0.00    +0.560 C 
ATOM      3  N   LIG    1        5.710   6.128   1.508  0.00  0.00    -0.720 N 
ATOM      4  H   LIG    1        6.522   5.603   1.426  0.00  0.00    +0.400 HD
ENDROOT
BRANCH   2   5
ATOM      5  C   LIG    1        7.037   7.901   2.547  0.00  0.00    -0.130 A 
ATOM      6  C   LIG    1        8.206   7.144   2.435  0.00  0.00    +0.060 A 
ATOM      7  C   LIG    1        9.406   7.656   2.882  0.00  0.00    +0.020 A 
ATOM      8  C   LIG    1        9.449   8.919   3.453  0.00  0.00    +0.090 A 
ATOM      9  O   LIG    1       10.632   9.428   3.901  0.00  0.00    -0.320 OA
ATOM     10  C   LIG    1       10.750   9.581   5.317  0.00  0.00    +0.230 C 
ATOM     11  C   LIG    1       10.143  10.899   5.771  0.00  0.00    -0.010 C 
ATOM     12  C   LIG    1        8.642  10.956   5.534  0.00  0.00    +0.230 C 
ATOM     13  O   LIG    1        8.348  10.918   4.136  0.00  0.00    -0.320 OA
ATOM     14  C   LIG    1        8.288   9.676   3.573  0.00  0.00    +0.060 A 
ATOM     15  C   LIG    1        7.083   9.174   3.124  0.00  0.00    +0.100 A 
ENDBRANCH   2   5
BRANCH   3  16
ATOM     16  C   LIG    1        4.437   5.585   1.027  0.00  0.00    +0.280 C 
BRANCH  16  17
ATOM     17  C   LIG    1        4.664   4.188   0.446  0.00  0.00    -0.010 C 
ATOM     18  C   LIG    1        5.084   3.197   1.555  0.00  0.00    +0.030 C 
ATOM     19  C   LIG    1        4.349   1.885   1.222  0.00  0.00    +0.180 C 
ATOM     20  N   LIG    1        3.584   2.121  -0.022  0.00  0.00    -0.460 N 
ATOM     21  C   LIG    1        3.335   3.584  -0.073  0.00  0.00    +0.210 C 
BRANCH  20  22
ATOM     22  C   LIG    1        2.382   1.408  -0.013  0.00  0.00    +0.110 A 
ATOM     23  C   LIG    1        1.171   2.086  -0.029  0.00  0.00    -0.020 A 
ATOM     24  C   LIG    1       -0.015   1.379  -0.020  0.00  0.00    +0.040 A 
ATOM     25  C   LIG    1        0.002  -0.004   0.005  0.00  0.00    +0.000 A 
ATOM     26  C   LIG    1        1.206  -0.683   0.020  0.00  0.00    +0.050 A 
ATOM     27  C   LIG    1        2.397   0.018   0.011  0.00  0.00    -0.050 A 
ATOM     28 CL   LIG    1        3.909  -0.836   0.030  0.00  0.00    -0.060 Cl
ENDBRANCH  20  22
ENDBRANCH  16  17
ENDBRANCH   3  16
TORSDOF 4
