REMARK  Name = ZINCpe00000VVH4F.0
REMARK                            x       y       z     vdW  Elec       q    Type
REMARK                         _______ _______ _______ _____ _____    ______ ____
ROOT
ATOM      1  S   LIG    1       -0.882   1.629   1.499  0.00  0.00    +2.640 S 
ATOM      2  O   LIG    1       -2.150   1.000   1.621  0.00  0.00    -0.940 OA
ATOM      3  O   LIG    1       -0.746   3.036   1.643  0.00  0.00    -0.940 OA
ENDROOT
BRANCH   1   4
ATOM      4  N   LIG    1        0.006   1.003   2.749  0.00  0.00    -1.050 NA
ATOM      5  C   LIG    1       -0.010  -0.235   3.543  0.00  0.00    +0.320 C 
ATOM      6  C   LIG    1        1.497  -0.037   3.776  0.00  0.00    +0.260 C 
ATOM      7  C   LIG    1        1.153   1.443   3.558  0.00  0.00    +0.320 C 
BRANCH   6   8
ATOM      8  N   LIG    1        1.939  -0.356   5.136  0.00  0.00    -0.370 N 
ATOM      9  N   LIG    1        1.212  -0.172   6.323  0.00  0.00    -0.320 NA
ATOM     10  C   LIG    1        1.972  -0.589   7.301  0.00  0.00    +0.230 A 
ATOM     11  N   LIG    1        3.130  -1.013   6.797  0.00  0.00    -0.540 NA
ATOM     12  C   LIG    1        1.601  -0.584   8.761  0.00  0.00    +0.190 C 
ATOM     13  C   LIG    1        3.124  -0.879   5.496  0.00  0.00    +0.280 A 
ATOM     14  C   LIG    1        4.249  -1.248   4.563  0.00  0.00    +0.190 C 
ENDBRANCH   6   8
ENDBRANCH   1   4
BRANCH   1  15
ATOM     15  C   LIG    1       -0.027   1.056   0.005  0.00  0.00    -0.380 C 
BRANCH  15  16
ATOM     16  C   LIG    1       -0.761   1.576  -1.233  0.00  0.00    +0.090 C 
BRANCH  16  24
ATOM     17  C   LIG    1       -2.640   2.680  -4.812  0.00  0.00    +0.090 C 
ATOM     18  C   LIG    1       -1.886   2.275  -3.571  0.00  0.00    +0.510 C 
ATOM     19  N   LIG    1       -0.669   1.706  -3.678  0.00  0.00    -0.610 N 
ATOM     20  C   LIG    1       -0.012   1.583  -4.987  0.00  0.00    +0.270 C 
ATOM     21  C   LIG    1        1.385   2.205  -4.898  0.00  0.00    +0.010 C 
ATOM     22  C   LIG    1        2.155   1.558  -3.745  0.00  0.00    +0.020 C 
ATOM     23  C   LIG    1        1.423   1.824  -2.428  0.00  0.00    +0.010 C 
ATOM     24  C   LIG    1        0.027   1.197  -2.489  0.00  0.00    +0.240 C 
ATOM     25  O   LIG    1       -2.375   2.460  -2.477  0.00  0.00    -0.540 OA
ENDBRANCH  16  24
ENDBRANCH  15  16
ENDBRANCH   1  15
TORSDOF 5
