REMARK  Name = ZINCtV00000thTFJ.0
REMARK                            x       y       z     vdW  Elec       q    Type
REMARK                         _______ _______ _______ _____ _____    ______ ____
ROOT
ATOM      1  O   LIG    1        1.525  -1.391  -1.502  0.00  0.00    -0.540 OA
ATOM      2  C   LIG    1        2.429  -2.205  -1.490  0.00  0.00    +0.700 C 
ATOM      3  N   LIG    1        3.560  -1.946  -0.806  0.00  0.00    -0.620 N 
ATOM      4  C   LIG    1        4.706  -2.863  -0.878  0.00  0.00    +0.270 C 
ATOM      5  C   LIG    1        5.118  -3.254   0.545  0.00  0.00    +0.010 C 
ATOM      6  C   LIG    1        5.378  -1.987   1.363  0.00  0.00    +0.020 C 
ATOM      7  C   LIG    1        4.095  -1.158   1.443  0.00  0.00    +0.020 C 
ATOM      8  C   LIG    1        3.671  -0.743   0.030  0.00  0.00    +0.290 C 
ATOM      9  N   LIG    1        2.298  -3.366  -2.162  0.00  0.00    -0.680 N 
ATOM     10  H   LIG    1        2.985  -4.047  -2.091  0.00  0.00    +0.410 HD
ENDROOT
BRANCH   8  11
ATOM     11  C   LIG    1        2.337  -0.044   0.088  0.00  0.00    -0.070 A 
ATOM     12  C   LIG    1        1.225  -0.714   0.564  0.00  0.00    +0.100 A 
ATOM     13  C   LIG    1        0.002  -0.072   0.617  0.00  0.00    +0.000 A 
ATOM     14  C   LIG    1       -0.110   1.239   0.194  0.00  0.00    +0.070 A 
ATOM     15  C   LIG    1        1.002   1.909  -0.281  0.00  0.00    -0.190 A 
ATOM     16  C   LIG    1        2.225   1.268  -0.334  0.00  0.00    +0.070 A 
BRANCH  15  17
ATOM     17  C   LIG    1        0.880   3.339  -0.742  0.00  0.00    +0.510 C 
ATOM     18  F   LIG    1        1.251   3.429  -2.088  0.00  0.00    -0.180 F 
ATOM     19  F   LIG    1        1.720   4.150   0.029  0.00  0.00    -0.180 F 
ATOM     20  F   LIG    1       -0.444   3.765  -0.594  0.00  0.00    -0.180 F 
ENDBRANCH  15  17
ENDBRANCH   8  11
BRANCH   9  21
ATOM     21  C   LIG    1        1.171  -3.589  -2.962  0.00  0.00    +0.200 A 
ATOM     22  C   LIG    1        0.734  -4.885  -3.202  0.00  0.00    -0.020 A 
ATOM     23  C   LIG    1       -0.381  -5.101  -3.987  0.00  0.00    +0.090 A 
ATOM     24  C   LIG    1       -1.056  -4.030  -4.543  0.00  0.00    -0.210 A 
ATOM     25  C   LIG    1       -0.619  -2.738  -4.311  0.00  0.00    +0.090 A 
ATOM     26  C   LIG    1        0.492  -2.515  -3.522  0.00  0.00    +0.030 A 
BRANCH  24  27
ATOM     27  C   LIG    1       -2.269  -4.270  -5.404  0.00  0.00    +0.510 C 
ATOM     28  F   LIG    1       -3.143  -3.184  -5.291  0.00  0.00    -0.180 F 
ATOM     29  F   LIG    1       -2.917  -5.436  -4.983  0.00  0.00    -0.180 F 
ATOM     30  F   LIG    1       -1.873  -4.413  -6.739  0.00  0.00    -0.180 F 
ENDBRANCH  24  27
ENDBRANCH   9  21
TORSDOF 4
