REMARK  Name = ZINC650000002oK0.0
REMARK                            x       y       z     vdW  Elec       q    Type
REMARK                         _______ _______ _______ _____ _____    ______ ____
ROOT
ATOM      1  C   LIG    1       -0.013   1.086   0.008  0.00  0.00    +0.200 C 
ENDROOT
BRANCH   1   3
ATOM      2  C   LIG    1        2.176   1.022  -1.195  0.00  0.00    +0.030 C 
ATOM      3  C   LIG    1        1.423   1.615  -0.003  0.00  0.00    -0.010 C 
ENDBRANCH   1   3
BRANCH   1   4
ATOM      4  O   LIG    1       -0.704   1.559  -1.150  0.00  0.00    -0.550 OA
ATOM      5  H   LIG    1       -0.756   2.523  -1.210  0.00  0.00    +0.370 HD
ENDBRANCH   1   4
BRANCH   1   6
ATOM      6  C   LIG    1       -0.729   1.579   1.267  0.00  0.00    +0.140 C 
BRANCH   6   7
ATOM      7  O   LIG    1       -2.030   0.991   1.336  0.00  0.00    -0.570 OA
ATOM      8  H   LIG    1       -2.542   1.260   2.111  0.00  0.00    +0.380 HD
ENDBRANCH   6   7
ENDBRANCH   1   6
TORSDOF 4
