REMARK  Name = ZINCvU0000000Hgu.0
REMARK                            x       y       z     vdW  Elec       q    Type
REMARK                         _______ _______ _______ _____ _____    ______ ____
ROOT
ATOM      1  N   LIG    1        2.045   8.159   0.270  0.00  0.00    -0.510 N 
ATOM      2  C   LIG    1        0.988   7.364   0.013  0.00  0.00    +0.540 C 
ATOM      3  O   LIG    1        0.992   6.210   0.387  0.00  0.00    -0.470 OA
ENDROOT
BRANCH   1  10
ATOM      4  C   LIG    1        1.969  15.570  -1.503  0.00  0.00    +0.100 C 
ATOM      5  C   LIG    1        1.682  14.102  -1.320  0.00  0.00    -0.060 A 
ATOM      6  C   LIG    1        0.520  13.552  -1.839  0.00  0.00    +0.030 A 
ATOM      7  C   LIG    1        0.246  12.217  -1.679  0.00  0.00    -0.020 A 
ATOM      8  C   LIG    1        1.146  11.382  -0.984  0.00  0.00    +0.100 A 
ATOM      9  N   LIG    1        1.047  10.062  -0.730  0.00  0.00    -0.500 NA
ATOM     10  C   LIG    1        2.000   9.502  -0.069  0.00  0.00    +0.320 A 
ATOM     11  S   LIG    1        3.232  10.684   0.349  0.00  0.00    +0.100 S 
ATOM     12  C   LIG    1        2.314  11.949  -0.465  0.00  0.00    -0.170 A 
ATOM     13  C   LIG    1       -1.022  11.639  -2.251  0.00  0.00    +0.110 C 
ATOM     14  C   LIG    1        2.575  13.306  -0.637  0.00  0.00    +0.050 A 
ENDBRANCH   1  10
BRANCH   2  15
ATOM     15  C   LIG    1       -0.199   7.908  -0.739  0.00  0.00    +0.180 C 
ATOM     16  C   LIG    1       -1.059   8.765   0.201  0.00  0.00    +0.250 C 
ATOM     17  O   LIG    1       -2.183   9.253  -0.540  0.00  0.00    -0.290 OA
ATOM     18  C   LIG    1       -2.844   8.350  -1.314  0.00  0.00    +0.050 A 
ATOM     19  C   LIG    1       -4.121   8.647  -1.766  0.00  0.00    +0.030 A 
ATOM     20  C   LIG    1       -4.802   7.743  -2.560  0.00  0.00    +0.010 A 
ATOM     21  C   LIG    1       -4.215   6.538  -2.900  0.00  0.00    +0.020 A 
ATOM     22  C   LIG    1       -2.942   6.238  -2.455  0.00  0.00    +0.020 A 
ATOM     23  C   LIG    1       -2.253   7.140  -1.659  0.00  0.00    +0.050 A 
ATOM     24  O   LIG    1       -1.004   6.825  -1.220  0.00  0.00    -0.290 OA
ENDBRANCH   2  15
BRANCH   1  25
ATOM     25  C   LIG    1        3.242   7.605   0.908  0.00  0.00    +0.370 C 
BRANCH  25  26
ATOM     26  C   LIG    1        4.237   7.206  -0.152  0.00  0.00    -0.130 A 
ATOM     27  C   LIG    1        4.143   5.966  -0.756  0.00  0.00    +0.040 A 
ATOM     28  C   LIG    1        5.053   5.602  -1.731  0.00  0.00    +0.010 A 
ATOM     29  C   LIG    1        6.062   6.474  -2.095  0.00  0.00    +0.020 A 
ATOM     30  C   LIG    1        6.158   7.712  -1.488  0.00  0.00    +0.010 A 
ATOM     31  C   LIG    1        5.246   8.078  -0.516  0.00  0.00    +0.020 A 
ENDBRANCH  25  26
ENDBRANCH   1  25
TORSDOF 4
