REMARK  Name = ZINCrH000004n5lx.0
REMARK                            x       y       z     vdW  Elec       q    Type
REMARK                         _______ _______ _______ _____ _____    ______ ____
ROOT
ATOM      1  C   LIG    1        0.112   1.430  -2.393  0.00  0.00    +0.200 C 
ATOM      2  C   LIG    1       -0.864   1.193  -3.450  0.00  0.00    +0.030 C 
ATOM      3  C   LIG    1       -1.751   2.434  -3.694  0.00  0.00    +0.010 C 
ATOM      4  C   LIG    1       -2.783   2.517  -2.602  0.00  0.00    +0.000 C 
ATOM      5  C   LIG    1       -2.329   3.381  -1.407  0.00  0.00    +0.010 C 
ATOM      6  C   LIG    1       -0.856   3.131  -1.031  0.00  0.00    +0.160 C 
ATOM      7  N   LIG    1       -0.514   1.731  -1.088  0.00  0.00    -0.520 NA
ENDROOT
BRANCH   1  11
ATOM      8  C   LIG    1        2.562  -2.047  -1.975  0.00  0.00    +0.130 A 
ATOM      9  C   LIG    1        3.111  -0.862  -2.443  0.00  0.00    -0.020 A 
ATOM     10  C   LIG    1        2.317   0.261  -2.577  0.00  0.00    +0.060 A 
ATOM     11  C   LIG    1        0.976   0.204  -2.245  0.00  0.00    -0.140 A 
ATOM     12  C   LIG    1        0.427  -0.974  -1.774  0.00  0.00    +0.060 A 
ATOM     13  C   LIG    1        1.216  -2.101  -1.643  0.00  0.00    -0.080 A 
BRANCH   8  15
ATOM     14  C   LIG    1        2.707  -4.337  -1.355  0.00  0.00    +0.250 C 
ATOM     15  O   LIG    1        3.340  -3.153  -1.843  0.00  0.00    -0.320 OA
ENDBRANCH   8  15
ENDBRANCH   1  11
BRANCH   7  16
ATOM     16  C   LIG    1        0.376   1.361   0.021  0.00  0.00    +0.320 C 
BRANCH  16  17
ATOM     17  C   LIG    1       -0.221   1.831   1.322  0.00  0.00    +0.260 A 
ATOM     18  N   LIG    1       -0.017   2.989   1.894  0.00  0.00    -0.330 NA
ATOM     19  N   LIG    1       -0.678   3.074   2.993  0.00  0.00    -0.030 NA
ATOM     20  N   LIG    1       -1.336   1.985   3.201  0.00  0.00    -0.080 NA
ATOM     21  N   LIG    1       -1.061   1.134   2.116  0.00  0.00    -0.320 N 
BRANCH  21  22
ATOM     22  C   LIG    1       -1.554  -0.163   1.905  0.00  0.00    +0.120 A 
ATOM     23  C   LIG    1       -1.836  -0.598   0.617  0.00  0.00    +0.040 A 
ATOM     24  C   LIG    1       -2.316  -1.877   0.411  0.00  0.00    +0.030 A 
ATOM     25  C   LIG    1       -2.526  -2.719   1.488  0.00  0.00    +0.030 A 
ATOM     26  C   LIG    1       -2.251  -2.287   2.772  0.00  0.00    +0.040 A 
ATOM     27  C   LIG    1       -1.765  -1.011   2.983  0.00  0.00    +0.040 A 
ENDBRANCH  21  22
ENDBRANCH  16  17
ENDBRANCH   7  16
TORSDOF 5
