REMARK  Name = ZINCrH000004pVCa.1
REMARK                            x       y       z     vdW  Elec       q    Type
REMARK                         _______ _______ _______ _____ _____    ______ ____
ROOT
ATOM      1  C   LIG    1        2.025  -6.042  -0.721  0.00  0.00    +0.560 C 
ATOM      2  N   LIG    1        1.832  -7.165  -1.440  0.00  0.00    -0.730 N 
ATOM      3  H   LIG    1        1.401  -7.118  -2.307  0.00  0.00    +0.400 HD
ATOM      4  O   LIG    1        2.565  -6.101   0.367  0.00  0.00    -0.530 OA
ENDROOT
BRANCH   1  11
ATOM      5  C   LIG    1       -0.317   1.656  -1.668  0.00  0.00    +0.120 C 
ATOM      6  C   LIG    1       -0.194   0.162  -1.362  0.00  0.00    +0.030 C 
ATOM      7  S   LIG    1        0.207  -0.740  -2.888  0.00  0.00    -0.070 S 
ATOM      8  C   LIG    1        0.744  -2.298  -2.256  0.00  0.00    -0.110 A 
ATOM      9  C   LIG    1        0.545  -3.456  -2.998  0.00  0.00    +0.090 A 
ATOM     10  C   LIG    1        0.960  -4.673  -2.504  0.00  0.00    +0.040 A 
ATOM     11  C   LIG    1        1.581  -4.740  -1.253  0.00  0.00    -0.100 A 
ATOM     12  C   LIG    1        1.781  -3.576  -0.507  0.00  0.00    +0.070 A 
ATOM     13  C   LIG    1        1.365  -2.352  -1.004  0.00  0.00    +0.150 A 
ATOM     14  N   LIG    1        1.576  -1.202  -0.246  0.00  0.00    -0.660 N 
ATOM     15  H   LIG    1        2.275  -1.238   0.426  0.00  0.00    +0.420 HD
ATOM     16  C   LIG    1        0.905  -0.058  -0.360  0.00  0.00    +0.520 C 
ATOM     17  O   LIG    1        1.195   0.855   0.384  0.00  0.00    -0.500 OA
ENDBRANCH   1  11
BRANCH   2  18
ATOM     18  C   LIG    1        2.273  -8.458  -0.911  0.00  0.00    +0.300 C 
BRANCH  18  19
ATOM     19  C   LIG    1        2.083  -9.538  -1.978  0.00  0.00    +0.210 C 
BRANCH  19  20
ATOM     20  N   LIG    1        2.940  -9.241  -3.133  0.00  0.00    -0.510 NA
ATOM     21  C   LIG    1        2.999 -10.398  -4.063  0.00  0.00    +0.170 C 
ATOM     22  C   LIG    1        3.463  -9.758  -5.396  0.00  0.00    +0.030 C 
ATOM     23  C   LIG    1        2.728  -8.398  -5.400  0.00  0.00    +0.020 C 
ATOM     24  C   LIG    1        2.395  -8.116  -3.923  0.00  0.00    +0.160 C 
ENDBRANCH  19  20
BRANCH  19  25
ATOM     25  C   LIG    1        2.457 -10.881  -1.406  0.00  0.00    -0.190 A 
ATOM     26  C   LIG    1        1.593 -11.833  -1.049  0.00  0.00    +0.020 A 
ATOM     27  C   LIG    1        2.170 -12.986  -0.548  0.00  0.00    +0.000 A 
ATOM     28  C   LIG    1        3.503 -12.972  -0.497  0.00  0.00    -0.060 A 
ATOM     29  S   LIG    1        4.100 -11.437  -1.114  0.00  0.00    +0.150 S 
ENDBRANCH  19  25
ENDBRANCH  18  19
ENDBRANCH   2  18
TORSDOF 5
