REMARK  Name = ZINCvU0000000GtL.0
REMARK                            x       y       z     vdW  Elec       q    Type
REMARK                         _______ _______ _______ _____ _____    ______ ____
ROOT
ATOM      1  N   LIG    1        1.330  -0.258  -0.289  0.00  0.00    -0.530 N 
ATOM      2  C   LIG    1        2.086   0.795  -0.546  0.00  0.00    +0.540 C 
ATOM      3  C   LIG    1        1.312   2.073  -0.774  0.00  0.00    +0.060 C 
ATOM      4  S   LIG    1       -0.427   1.558  -0.579  0.00  0.00    -0.080 S 
ATOM      5  O   LIG    1        3.296   0.741  -0.595  0.00  0.00    -0.480 OA
ATOM      6  C   LIG    1       -0.032  -0.138  -0.246  0.00  0.00    +0.380 C 
ATOM      7  N   LIG    1       -0.890  -1.101  -0.002  0.00  0.00    -0.410 NA
ENDROOT
BRANCH   7   8
ATOM      8  C   LIG    1       -2.224  -0.816   0.113  0.00  0.00    +0.090 A 
ATOM      9  C   LIG    1       -2.654   0.199   0.970  0.00  0.00    -0.010 A 
ATOM     10  C   LIG    1       -3.999   0.484   1.077  0.00  0.00    +0.010 A 
ATOM     11  C   LIG    1       -4.923  -0.241   0.346  0.00  0.00    -0.090 A 
ATOM     12  C   LIG    1       -4.505  -1.252  -0.501  0.00  0.00    +0.020 A 
ATOM     13  C   LIG    1       -6.392   0.072   0.473  0.00  0.00    +0.090 C 
ATOM     14  C   LIG    1       -3.163  -1.544  -0.622  0.00  0.00    -0.060 A 
ATOM     15  C   LIG    1       -2.709  -2.646  -1.545  0.00  0.00    +0.090 C 
ENDBRANCH   7   8
BRANCH   1  16
ATOM     16  C   LIG    1        1.954  -1.562  -0.049  0.00  0.00    +0.250 C 
ATOM     17  C   LIG    1        1.337  -2.603  -0.985  0.00  0.00    +0.050 C 
BRANCH  16  18
ATOM     18  C   LIG    1        1.719  -1.980   1.404  0.00  0.00    +0.170 C 
BRANCH  18  20
ATOM     19  C   LIG    1       -0.018  -2.501   2.971  0.00  0.00    +0.180 C 
ATOM     20  O   LIG    1        0.324  -2.205   1.615  0.00  0.00    -0.350 OA
ENDBRANCH  18  20
ENDBRANCH  16  18
ENDBRANCH   1  16
BRANCH   3  21
ATOM     21  C   LIG    1        1.560   2.610  -2.185  0.00  0.00    +0.120 C 
BRANCH  21  22
ATOM     22  C   LIG    1        0.788   3.889  -2.379  0.00  0.00    +0.520 C 
ATOM     23  N   LIG    1        0.855   4.545  -3.555  0.00  0.00    -0.670 N 
ATOM     24  H   LIG    1        1.333   4.153  -4.302  0.00  0.00    +0.420 HD
ATOM     25  O   LIG    1        0.106   4.328  -1.478  0.00  0.00    -0.500 OA
BRANCH  23  26
ATOM     26  C   LIG    1        0.234   5.791  -3.697  0.00  0.00    +0.180 A 
ATOM     27  C   LIG    1       -0.066   6.551  -2.575  0.00  0.00    +0.030 A 
ATOM     28  C   LIG    1       -0.679   7.781  -2.719  0.00  0.00    +0.050 A 
ATOM     29  C   LIG    1       -0.994   8.255  -3.978  0.00  0.00    +0.000 A 
ATOM     30  C   LIG    1       -0.697   7.501  -5.099  0.00  0.00    +0.070 A 
ATOM     31  C   LIG    1       -0.079   6.273  -4.963  0.00  0.00    -0.130 A 
ATOM     32 BR   LIG    1        0.334   5.245  -6.495  0.00  0.00    -0.040 Br
ENDBRANCH  23  26
ENDBRANCH  21  22
ENDBRANCH   3  21
TORSDOF 7
