REMARK  Name = ZINCkj00000GePWt.0
REMARK                            x       y       z     vdW  Elec       q    Type
REMARK                         _______ _______ _______ _____ _____    ______ ____
ROOT
ATOM      1  N   LIG    1       -1.132  -0.712  -0.114  0.00  0.00    -0.730 N 
ATOM      2  H   LIG    1       -1.977  -0.240  -0.180  0.00  0.00    +0.410 HD
ATOM      3  C   LIG    1        0.027  -0.025  -0.135  0.00  0.00    +0.600 C 
ATOM      4  O   LIG    1        1.087  -0.617  -0.052  0.00  0.00    -0.500 OA
ENDROOT
BRANCH   3   5
ATOM      5  C   LIG    1        0.011   1.436  -0.258  0.00  0.00    -0.250 A 
ATOM      6  C   LIG    1        1.114   2.241  -0.290  0.00  0.00    +0.110 A 
ATOM      7  C   LIG    1        0.810   3.576  -0.412  0.00  0.00    +0.150 A 
ATOM      8  C   LIG    1       -0.497   3.857  -0.477  0.00  0.00    -0.780 A 
ATOM      9  S   LIG    1       -1.432   2.432  -0.395  0.00  0.00    +0.310 S 
BRANCH   8  10
ATOM     10  S   LIG    1       -1.163   5.481  -0.634  0.00  0.00    +2.520 S 
ATOM     11  O   LIG    1       -0.169   6.323  -0.066  0.00  0.00    -0.920 OA
ATOM     12  O   LIG    1       -2.458   5.385  -0.059  0.00  0.00    -0.930 OA
ATOM     13  C   LIG    1       -1.278   5.750  -2.424  0.00  0.00    -0.230 C 
ENDBRANCH   8  10
ENDBRANCH   3   5
BRANCH   1  14
ATOM     14  C   LIG    1       -1.116  -2.172   0.009  0.00  0.00    +0.300 C 
BRANCH  14  19
ATOM     15  C   LIG    1       -3.815  -5.858   1.556  0.00  0.00    +0.090 C 
ATOM     16  C   LIG    1       -3.862  -4.481   0.891  0.00  0.00    +0.170 C 
ATOM     17  C   LIG    1       -4.045  -3.376   1.953  0.00  0.00    +0.070 C 
ATOM     18  C   LIG    1       -3.182  -2.197   1.458  0.00  0.00    +0.060 C 
ATOM     19  C   LIG    1       -2.550  -2.689   0.139  0.00  0.00    +0.170 C 
ATOM     20  N   LIG    1       -2.559  -4.170   0.249  0.00  0.00    -0.390 N 
ATOM     21  C   LIG    1       -2.483  -4.785  -1.083  0.00  0.00    +0.320 C 
ATOM     22  H   LIG    1       -1.796  -4.486   0.829  0.00  0.00    +0.430 HD
ENDBRANCH  14  19
ENDBRANCH   1  14
TORSDOF 4
