REMARK  Name = ZINCkj00000GePWt.1
REMARK                            x       y       z     vdW  Elec       q    Type
REMARK                         _______ _______ _______ _____ _____    ______ ____
ROOT
ATOM      1  N   LIG    1        0.745  -1.397  -6.009  0.00  0.00    -0.750 N 
ATOM      2  H   LIG    1       -0.144  -1.222  -5.663  0.00  0.00    +0.400 HD
ATOM      3  C   LIG    1        1.811  -1.338  -5.186  0.00  0.00    +0.600 C 
ATOM      4  O   LIG    1        2.927  -1.558  -5.620  0.00  0.00    -0.490 OA
ENDROOT
BRANCH   3   5
ATOM      5  C   LIG    1        1.627  -1.010  -3.770  0.00  0.00    -0.250 A 
ATOM      6  C   LIG    1        2.625  -0.920  -2.841  0.00  0.00    +0.110 A 
ATOM      7  C   LIG    1        2.171  -0.590  -1.585  0.00  0.00    +0.160 A 
ATOM      8  C   LIG    1        0.847  -0.424  -1.486  0.00  0.00    -0.780 A 
ATOM      9  S   LIG    1        0.087  -0.667  -2.994  0.00  0.00    +0.290 S 
BRANCH   8  10
ATOM     10  S   LIG    1        0.002  -0.004   0.002  0.00  0.00    +2.520 S 
ATOM     11  O   LIG    1       -1.309  -0.519  -0.182  0.00  0.00    -0.930 OA
ATOM     12  O   LIG    1        0.845  -0.497   1.035  0.00  0.00    -0.910 OA
ATOM     13  C   LIG    1       -0.022   1.810   0.012  0.00  0.00    -0.230 C 
ENDBRANCH   8  10
ENDBRANCH   3   5
BRANCH   1  14
ATOM     14  C   LIG    1        0.929  -1.725  -7.425  0.00  0.00    +0.320 C 
BRANCH  14  19
ATOM     15  C   LIG    1       -1.286   1.229  -9.770  0.00  0.00    +0.080 C 
ATOM     16  C   LIG    1       -1.815  -0.088  -9.200  0.00  0.00    +0.160 C 
ATOM     17  C   LIG    1       -1.551  -1.236 -10.197  0.00  0.00    +0.080 C 
ATOM     18  C   LIG    1       -0.242  -1.872  -9.660  0.00  0.00    +0.090 C 
ATOM     19  C   LIG    1       -0.429  -1.725  -8.129  0.00  0.00    +0.160 C 
ATOM     20  N   LIG    1       -1.101  -0.420  -7.951  0.00  0.00    -0.390 N 
ATOM     21  C   LIG    1       -0.100   0.616  -7.664  0.00  0.00    +0.310 C 
ATOM     22  H   LIG    1       -1.757  -0.478  -7.187  0.00  0.00    +0.420 HD
ENDBRANCH  14  19
ENDBRANCH   1  14
TORSDOF 4
