REMARK  Name = ZINCrH000004st0Z.0
REMARK                            x       y       z     vdW  Elec       q    Type
REMARK                         _______ _______ _______ _____ _____    ______ ____
ROOT
ATOM      1  C   LIG    1        5.901   3.532  -2.339  0.00  0.00    +0.130 A 
ATOM      2  C   LIG    1        5.483   4.601  -1.558  0.00  0.00    -0.050 A 
ATOM      3  C   LIG    1        4.348   4.490  -0.776  0.00  0.00    +0.050 A 
ATOM      4  C   LIG    1        3.623   3.317  -0.767  0.00  0.00    +0.010 A 
ATOM      5  C   LIG    1        4.035   2.236  -1.550  0.00  0.00    -0.090 A 
ATOM      6  C   LIG    1        5.183   2.348  -2.334  0.00  0.00    +0.050 A 
ENDROOT
BRANCH   5   7
ATOM      7  C   LIG    1        3.260   0.977  -1.543  0.00  0.00    +0.580 C 
ATOM      8  N   LIG    1        1.940   0.999  -1.270  0.00  0.00    -0.600 N 
ATOM      9  C   LIG    1        1.162   2.191  -0.888  0.00  0.00    +0.260 C 
ATOM     10  C   LIG    1       -0.297   1.857  -1.289  0.00  0.00    +0.040 C 
ATOM     11  C   LIG    1       -0.375   0.345  -0.949  0.00  0.00    +0.050 C 
ATOM     12  C   LIG    1        1.039  -0.162  -1.303  0.00  0.00    +0.320 C 
ATOM     13  O   LIG    1        3.813  -0.078  -1.784  0.00  0.00    -0.530 OA
BRANCH  12  14
ATOM     14  C   LIG    1        1.485  -1.186  -0.291  0.00  0.00    +0.320 A 
ATOM     15  N   LIG    1        1.839  -0.786   0.913  0.00  0.00    -0.510 NA
ATOM     16  C   LIG    1        2.230  -1.657   1.830  0.00  0.00    +0.320 A 
ATOM     17  C   LIG    1        2.275  -3.003   1.504  0.00  0.00    -0.080 A 
ATOM     18  C   LIG    1        1.901  -3.385   0.226  0.00  0.00    +0.320 A 
ATOM     19  N   LIG    1        1.515  -2.458  -0.636  0.00  0.00    -0.510 NA
ENDBRANCH  12  14
ENDBRANCH   5   7
BRANCH   1  20
ATOM     20  O   LIG    1        7.017   3.646  -3.105  0.00  0.00    -0.310 OA
BRANCH  20  21
ATOM     21  C   LIG    1        7.712   4.894  -3.058  0.00  0.00    +0.320 C 
BRANCH  21  25
ATOM     22  C   LIG    1       11.785   6.718  -5.228  0.00  0.00    +0.180 C 
ATOM     23  C   LIG    1       10.736   5.679  -4.923  0.00  0.00    +0.050 A 
ATOM     24  N   LIG    1        9.738   5.851  -4.123  0.00  0.00    -0.470 NA
ATOM     25  C   LIG    1        8.914   4.835  -3.965  0.00  0.00    +0.060 A 
ATOM     26  C   LIG    1        9.229   3.750  -4.678  0.00  0.00    -0.050 A 
ATOM     27  S   LIG    1       10.693   4.106  -5.591  0.00  0.00    +0.130 S 
ENDBRANCH  21  25
ENDBRANCH  20  21
ENDBRANCH   1  20
TORSDOF 5
