REMARK  Name = ZINCtV000002HHwP.0
REMARK                            x       y       z     vdW  Elec       q    Type
REMARK                         _______ _______ _______ _____ _____    ______ ____
ROOT
ATOM      1  C   LIG    1       -1.630   3.796  -2.719  0.00  0.00    +0.150 A 
ATOM      2  N   LIG    1       -2.202   2.824  -3.393  0.00  0.00    -0.280 NA
ATOM      3  N   LIG    1       -2.954   3.311  -4.315  0.00  0.00    -0.240 NA
ATOM      4  C   LIG    1       -2.909   4.622  -4.286  0.00  0.00    +0.220 A 
ATOM      5  N   LIG    1       -2.063   4.974  -3.259  0.00  0.00    -0.440 N 
ENDROOT
BRANCH   4   6
ATOM      6  C   LIG    1       -3.634   5.547  -5.182  0.00  0.00    -0.010 A 
ATOM      7  C   LIG    1       -4.345   6.624  -4.652  0.00  0.00    +0.040 A 
ATOM      8  C   LIG    1       -5.014   7.488  -5.495  0.00  0.00    +0.030 A 
ATOM      9  C   LIG    1       -4.992   7.280  -6.863  0.00  0.00    +0.050 A 
ATOM     10  C   LIG    1       -4.294   6.211  -7.396  0.00  0.00    +0.030 A 
ATOM     11  C   LIG    1       -3.615   5.343  -6.564  0.00  0.00    -0.000 A 
ATOM     12 CL   LIG    1       -2.740   4.002  -7.234  0.00  0.00    -0.040 Cl
ENDBRANCH   4   6
BRANCH   5  13
ATOM     13  C   LIG    1       -1.702   6.328  -2.834  0.00  0.00    +0.230 C 
ATOM     14  C   LIG    1       -0.174   6.522  -2.930  0.00  0.00    +0.020 C 
ATOM     15  C   LIG    1        0.175   7.402  -1.704  0.00  0.00    +0.040 C 
ATOM     16  C   LIG    1       -0.768   6.849  -0.607  0.00  0.00    +0.040 C 
ATOM     17  C   LIG    1       -2.079   6.536  -1.357  0.00  0.00    +0.020 C 
ENDBRANCH   5  13
BRANCH   1  18
ATOM     18  S   LIG    1       -0.516   3.614  -1.365  0.00  0.00    +0.070 S 
BRANCH  18  19
ATOM     19  C   LIG    1       -0.452   1.809  -1.252  0.00  0.00    +0.170 C 
BRANCH  19  20
ATOM     20  C   LIG    1        0.164   1.263  -2.472  0.00  0.00    +0.200 C 
ATOM     21  N   LIG    1        0.638   0.841  -3.414  0.00  0.00    -0.390 NA
ENDBRANCH  19  20
BRANCH  19  22
ATOM     22  C   LIG    1        0.383   1.404  -0.035  0.00  0.00    +0.140 C 
BRANCH  22  27
ATOM     23  C   LIG    1       -2.278   3.144   4.791  0.00  0.00    +0.090 C 
ATOM     24  C   LIG    1       -1.584   2.690   3.532  0.00  0.00    -0.080 A 
ATOM     25  C   LIG    1       -1.851   1.439   3.009  0.00  0.00    +0.000 A 
ATOM     26  C   LIG    1       -1.215   1.023   1.854  0.00  0.00    +0.030 A 
ATOM     27  C   LIG    1       -0.311   1.858   1.223  0.00  0.00    -0.100 A 
ATOM     28  C   LIG    1       -0.041   3.107   1.750  0.00  0.00    +0.020 A 
ATOM     29  C   LIG    1       -0.681   3.525   2.901  0.00  0.00    +0.000 A 
ENDBRANCH  22  27
ENDBRANCH  19  22
ENDBRANCH  18  19
ENDBRANCH   1  18
TORSDOF 7
