REMARK  Name = ZINCkj000005feGO.0
REMARK                            x       y       z     vdW  Elec       q    Type
REMARK                         _______ _______ _______ _____ _____    ______ ____
ROOT
ATOM      1  C   LIG    1       -0.817   1.133  -0.977  0.00  0.00    +0.500 C 
ATOM      2  N   LIG    1       -1.818   0.411  -1.519  0.00  0.00    -0.590 N 
ATOM      3  C   LIG    1       -2.176  -0.908  -0.977  0.00  0.00    +0.290 C 
ATOM      4  C   LIG    1       -3.691  -0.928  -0.718  0.00  0.00    +0.200 C 
ATOM      5  N   LIG    1       -4.399  -0.549  -1.948  0.00  0.00    -0.480 N 
ATOM      6  C   LIG    1       -4.073   0.826  -2.348  0.00  0.00    +0.200 C 
ATOM      7  C   LIG    1       -2.578   0.920  -2.671  0.00  0.00    +0.320 C 
ATOM      8  O   LIG    1       -0.593   2.256  -1.378  0.00  0.00    -0.510 OA
ENDROOT
BRANCH   5   9
ATOM      9  C   LIG    1       -5.774  -0.715  -1.804  0.00  0.00    +0.150 A 
ATOM     10  C   LIG    1       -6.337  -0.962  -0.554  0.00  0.00    -0.070 A 
ATOM     11  C   LIG    1       -7.705  -1.114  -0.453  0.00  0.00    +0.300 A 
ATOM     12  N   LIG    1       -8.475  -1.039  -1.522  0.00  0.00    -0.480 NA
ATOM     13  C   LIG    1       -7.980  -0.813  -2.724  0.00  0.00    +0.310 A 
ATOM     14  C   LIG    1       -6.623  -0.643  -2.910  0.00  0.00    -0.100 A 
ATOM     15 CL   LIG    1       -5.982  -0.346  -4.495  0.00  0.00    -0.040 Cl
ENDBRANCH   5   9
BRANCH   1  16
ATOM     16  C   LIG    1        0.024   0.545   0.126  0.00  0.00    +0.160 C 
BRANCH  16  17
ATOM     17  N   LIG    1        1.424   0.951  -0.056  0.00  0.00    -0.620 N 
ATOM     18  H   LIG    1        1.758   0.617  -0.948  0.00  0.00    +0.440 HD
ATOM     19  H   LIG    1        1.987   0.557   0.683  0.00  0.00    +0.440 HD
ATOM     20  H   LIG    1        1.489   1.957  -0.028  0.00  0.00    +0.440 HD
ENDBRANCH  16  17
BRANCH  16  22
ATOM     21  C   LIG    1       -1.960   0.688   1.638  0.00  0.00    +0.070 C 
ATOM     22  C   LIG    1       -0.482   1.051   1.478  0.00  0.00    +0.000 C 
ATOM     23  C   LIG    1        0.327   0.399   2.602  0.00  0.00    +0.060 C 
ENDBRANCH  16  22
ENDBRANCH   1  16
TORSDOF 4
