REMARK  Name = ZINCqH0000000psW.0
REMARK                            x       y       z     vdW  Elec       q    Type
REMARK                         _______ _______ _______ _____ _____    ______ ____
ROOT
ATOM      1  C   LIG    1       -3.068   4.297  -0.018  0.00  0.00    +0.530 C 
ATOM      2  N   LIG    1       -3.394   5.530  -0.454  0.00  0.00    -0.670 N 
ATOM      3  H   LIG    1       -2.799   6.004  -1.056  0.00  0.00    +0.410 HD
ATOM      4  O   LIG    1       -3.854   3.664   0.655  0.00  0.00    -0.480 OA
ENDROOT
BRANCH   1   9
ATOM      5  C   LIG    1        1.628   6.116  -0.527  0.00  0.00    +0.100 C 
ATOM      6  C   LIG    1        1.749   4.621  -0.379  0.00  0.00    +0.520 C 
ATOM      7  N   LIG    1        0.671   3.888  -0.036  0.00  0.00    -0.560 N 
ATOM      8  C   LIG    1       -0.613   4.530   0.294  0.00  0.00    +0.290 C 
ATOM      9  C   LIG    1       -1.727   3.705  -0.366  0.00  0.00    +0.170 C 
ATOM     10  O   LIG    1       -1.653   2.361   0.119  0.00  0.00    -0.280 OA
ATOM     11  C   LIG    1       -0.443   1.744   0.090  0.00  0.00    +0.090 A 
ATOM     12  C   LIG    1       -0.377   0.360   0.137  0.00  0.00    +0.020 A 
ATOM     13  C   LIG    1        0.850  -0.276   0.117  0.00  0.00    +0.030 A 
ATOM     14  C   LIG    1        2.017   0.462   0.050  0.00  0.00    +0.000 A 
ATOM     15  C   LIG    1        1.961   1.843   0.002  0.00  0.00    +0.050 A 
ATOM     16  C   LIG    1        0.734   2.485   0.020  0.00  0.00    +0.070 A 
ATOM     17  O   LIG    1        2.817   4.077  -0.567  0.00  0.00    -0.510 OA
ENDBRANCH   1   9
BRANCH   2  18
ATOM     18  C   LIG    1       -4.592   6.127  -0.038  0.00  0.00    +0.150 A 
ATOM     19  C   LIG    1       -5.294   6.952  -0.906  0.00  0.00    +0.020 A 
ATOM     20  C   LIG    1       -6.477   7.536  -0.499  0.00  0.00    +0.030 A 
ATOM     21  C   LIG    1       -6.958   7.306   0.784  0.00  0.00    -0.110 A 
ATOM     22  C   LIG    1       -6.253   6.485   1.655  0.00  0.00    +0.070 A 
ATOM     23  C   LIG    1       -5.073   5.897   1.244  0.00  0.00    +0.040 A 
BRANCH  21  24
ATOM     24  S   LIG    1       -8.464   8.058   1.308  0.00  0.00    -0.090 S 
BRANCH  24  25
ATOM     25  C   LIG    1       -8.977   9.004  -0.152  0.00  0.00    +0.430 C 
ATOM     26  F   LIG    1       -9.158   8.133  -1.232  0.00  0.00    -0.180 F 
ATOM     27  F   LIG    1       -7.990   9.942  -0.471  0.00  0.00    -0.180 F 
ENDBRANCH  24  25
ENDBRANCH  21  24
ENDBRANCH   2  18
TORSDOF 4
