REMARK  Name = ZINCqH0000001Dsu.0
REMARK                            x       y       z     vdW  Elec       q    Type
REMARK                         _______ _______ _______ _____ _____    ______ ____
ROOT
ATOM      1  N   LIG    1       -0.836   1.564   1.261  0.00  0.00    -0.510 NA
ENDROOT
BRANCH   1   2
ATOM      2  C   LIG    1       -0.216   0.843   0.141  0.00  0.00    +0.210 C 
BRANCH   2   5
ATOM      3  N   LIG    1        0.424  -1.483  -0.405  0.00  0.00    -0.730 N 
ATOM      4  H   LIG    1        0.748  -1.160  -1.260  0.00  0.00    +0.410 HD
ATOM      5  C   LIG    1       -0.116  -0.622   0.480  0.00  0.00    +0.520 C 
ATOM      6  O   LIG    1       -0.521  -1.026   1.549  0.00  0.00    -0.500 OA
BRANCH   3   7
ATOM      7  C   LIG    1        0.521  -2.907  -0.075  0.00  0.00    +0.280 C 
ATOM      8  C   LIG    1       -0.879  -3.469   0.180  0.00  0.00    +0.080 C 
BRANCH   7  10
ATOM      9  C   LIG    1        2.611  -3.183  -1.417  0.00  0.00    +0.030 C 
ATOM     10  C   LIG    1        1.167  -3.658  -1.242  0.00  0.00    +0.010 C 
ATOM     11  C   LIG    1        1.156  -5.160  -0.951  0.00  0.00    +0.050 C 
ENDBRANCH   7  10
BRANCH   7  12
ATOM     12  C   LIG    1        1.345  -3.076   1.133  0.00  0.00    +0.210 C 
ATOM     13  N   LIG    1        1.981  -3.206   2.065  0.00  0.00    -0.410 NA
ENDBRANCH   7  12
ENDBRANCH   3   7
ENDBRANCH   2   5
ENDBRANCH   1   2
BRANCH   1  14
ATOM     14  C   LIG    1       -1.167   2.943   0.880  0.00  0.00    +0.230 C 
BRANCH  14  15
ATOM     15  C   LIG    1       -2.367   2.939  -0.032  0.00  0.00    -0.080 A 
ATOM     16  C   LIG    1       -2.193   2.950  -1.403  0.00  0.00    +0.000 A 
ATOM     17  C   LIG    1       -3.293   2.941  -2.240  0.00  0.00    +0.000 A 
ATOM     18  C   LIG    1       -4.568   2.931  -1.705  0.00  0.00    +0.000 A 
ATOM     19  C   LIG    1       -4.742   2.926  -0.334  0.00  0.00    +0.000 A 
ATOM     20  C   LIG    1       -3.642   2.929   0.503  0.00  0.00    +0.030 A 
ENDBRANCH  14  15
ENDBRANCH   1  14
BRANCH   1  21
ATOM     21  C   LIG    1        0.030   1.538   2.447  0.00  0.00    +0.230 C 
BRANCH  21  22
ATOM     22  C   LIG    1       -0.774   1.916   3.664  0.00  0.00    -0.070 A 
ATOM     23  C   LIG    1       -0.761   3.220   4.124  0.00  0.00    +0.000 A 
ATOM     24  C   LIG    1       -1.502   3.568   5.237  0.00  0.00    +0.000 A 
ATOM     25  C   LIG    1       -2.250   2.610   5.897  0.00  0.00    +0.000 A 
ATOM     26  C   LIG    1       -2.259   1.305   5.441  0.00  0.00    +0.000 A 
ATOM     27  C   LIG    1       -1.521   0.959   4.324  0.00  0.00    +0.040 A 
ENDBRANCH  21  22
ENDBRANCH   1  21
TORSDOF 9
