REMARK  Name = ZINCkj00000y7HSY.1
REMARK                            x       y       z     vdW  Elec       q    Type
REMARK                         _______ _______ _______ _____ _____    ______ ____
ROOT
ATOM      1  C   LIG    1        1.297   3.569   0.027  0.00  0.00    +0.620 C 
ATOM      2  N   LIG    1        1.156   2.231  -0.053  0.00  0.00    -0.720 N 
ATOM      3  H   LIG    1        1.937   1.667  -0.166  0.00  0.00    +0.420 HD
ATOM      4  O   LIG    1        0.318   4.276   0.169  0.00  0.00    -0.520 OA
ENDROOT
BRANCH   1   7
ATOM      5  C   LIG    1        1.919   6.630   0.169  0.00  0.00    +0.190 C 
ATOM      6  C   LIG    1        2.917   5.512   0.003  0.00  0.00    +0.140 A 
ATOM      7  C   LIG    1        2.639   4.176  -0.058  0.00  0.00    -0.130 A 
ATOM      8  N   LIG    1        3.795   3.508  -0.214  0.00  0.00    -0.210 NA
ATOM      9  N   LIG    1        4.774   4.344  -0.249  0.00  0.00    -0.050 NA
ATOM     10  N   LIG    1        4.254   5.638  -0.110  0.00  0.00    -0.350 N 
BRANCH  10  11
ATOM     11  C   LIG    1        5.017   6.889  -0.096  0.00  0.00    +0.250 C 
ATOM     12  C   LIG    1        5.777   7.037  -1.415  0.00  0.00    +0.060 C 
ATOM     13  C   LIG    1        6.012   6.866   1.066  0.00  0.00    +0.070 C 
ENDBRANCH  10  11
ENDBRANCH   1   7
BRANCH   2  14
ATOM     14  C   LIG    1       -0.177   1.629   0.032  0.00  0.00    +0.290 C 
BRANCH  14  15
ATOM     15  C   LIG    1       -0.071   0.121  -0.208  0.00  0.00    +0.170 C 
ATOM     16  C   LIG    1        0.391  -0.164  -1.653  0.00  0.00    +0.080 C 
ATOM     17  C   LIG    1       -0.396  -1.418  -2.085  0.00  0.00    +0.070 C 
ATOM     18  C   LIG    1       -1.267  -1.786  -0.865  0.00  0.00    +0.170 C 
ATOM     19  C   LIG    1       -2.636  -2.294  -1.320  0.00  0.00    +0.090 C 
ATOM     20  N   LIG    1       -1.411  -0.514  -0.111  0.00  0.00    -0.390 N 
ATOM     21  C   LIG    1       -1.751  -0.784   1.293  0.00  0.00    +0.320 C 
ATOM     22  H   LIG    1       -2.111   0.073  -0.538  0.00  0.00    +0.430 HD
ENDBRANCH  14  15
ENDBRANCH   2  14
TORSDOF 4
