REMARK  Name = ZINCkj00000y7HSY.0
REMARK                            x       y       z     vdW  Elec       q    Type
REMARK                         _______ _______ _______ _____ _____    ______ ____
ROOT
ATOM      1  C   LIG    1       -1.660   2.893  -5.129  0.00  0.00    +0.620 C 
ATOM      2  N   LIG    1       -1.275   2.996  -3.842  0.00  0.00    -0.740 N 
ATOM      3  H   LIG    1       -1.909   3.286  -3.168  0.00  0.00    +0.410 HD
ATOM      4  O   LIG    1       -0.865   2.529  -5.974  0.00  0.00    -0.510 OA
ENDROOT
BRANCH   1   7
ATOM      5  C   LIG    1       -2.826   2.746  -8.026  0.00  0.00    +0.190 C 
ATOM      6  C   LIG    1       -3.561   3.159  -6.777  0.00  0.00    +0.140 A 
ATOM      7  C   LIG    1       -3.046   3.221  -5.513  0.00  0.00    -0.130 A 
ATOM      8  N   LIG    1       -4.017   3.627  -4.678  0.00  0.00    -0.210 NA
ATOM      9  N   LIG    1       -5.101   3.829  -5.343  0.00  0.00    -0.050 NA
ATOM     10  N   LIG    1       -4.852   3.537  -6.692  0.00  0.00    -0.350 N 
BRANCH  10  11
ATOM     11  C   LIG    1       -5.810   3.626  -7.796  0.00  0.00    +0.260 C 
ATOM     12  C   LIG    1       -6.319   5.064  -7.916  0.00  0.00    +0.070 C 
ATOM     13  C   LIG    1       -6.989   2.689  -7.525  0.00  0.00    +0.070 C 
ENDBRANCH  10  11
ENDBRANCH   1   7
BRANCH   2  14
ATOM     14  C   LIG    1        0.102   2.670  -3.461  0.00  0.00    +0.320 C 
BRANCH  14  15
ATOM     15  C   LIG    1        0.274   2.869  -1.954  0.00  0.00    +0.160 C 
ATOM     16  C   LIG    1        1.672   2.377  -1.501  0.00  0.00    +0.090 C 
ATOM     17  C   LIG    1        1.425   2.070  -0.000  0.00  0.00    +0.080 C 
ATOM     18  C   LIG    1       -0.019   1.526   0.010  0.00  0.00    +0.160 C 
ATOM     19  C   LIG    1        0.002  -0.004   0.002  0.00  0.00    +0.080 C 
ATOM     20  N   LIG    1       -0.683   2.025  -1.207  0.00  0.00    -0.390 N 
ATOM     21  C   LIG    1       -1.099   0.891  -2.044  0.00  0.00    +0.320 C 
ATOM     22  H   LIG    1       -1.492   2.572  -0.953  0.00  0.00    +0.430 HD
ENDBRANCH  14  15
ENDBRANCH   2  14
TORSDOF 4
