REMARK  Name = ZINCtV000002rTcr.0
REMARK                            x       y       z     vdW  Elec       q    Type
REMARK                         _______ _______ _______ _____ _____    ______ ____
ROOT
ATOM      1  C   LIG    1        2.689   4.033  -0.002  0.00  0.00    +0.320 C 
ENDROOT
BRANCH   1   2
ATOM      2  C   LIG    1        2.751   5.533   0.129  0.00  0.00    -0.090 A 
ATOM      3  C   LIG    1        2.841   6.323  -1.001  0.00  0.00    +0.040 A 
ATOM      4  C   LIG    1        2.897   7.699  -0.881  0.00  0.00    +0.020 A 
ATOM      5  C   LIG    1        2.864   8.286   0.370  0.00  0.00    +0.030 A 
ATOM      6  C   LIG    1        2.774   7.497   1.502  0.00  0.00    +0.030 A 
ATOM      7  C   LIG    1        2.711   6.120   1.382  0.00  0.00    -0.020 A 
ATOM      8 CL   LIG    1        2.590   5.129   2.802  0.00  0.00    -0.060 Cl
ENDBRANCH   1   2
BRANCH   1   9
ATOM      9  N   LIG    1        3.317   3.627  -1.262  0.00  0.00    -0.710 N 
ATOM     10  H   LIG    1        2.772   3.487  -2.052  0.00  0.00    +0.400 HD
ATOM     11  C   LIG    1        4.652   3.449  -1.323  0.00  0.00    +0.590 C 
ATOM     12  O   LIG    1        5.335   3.625  -0.332  0.00  0.00    -0.490 OA
BRANCH  11  13
ATOM     13  C   LIG    1        5.280   3.042  -2.586  0.00  0.00    -0.230 A 
ATOM     14  C   LIG    1        6.593   2.839  -2.752  0.00  0.00    +0.040 A 
ATOM     15  C   LIG    1        6.987   2.452  -4.044  0.00  0.00    -0.100 A 
ATOM     16  C   LIG    1        8.286   2.168  -4.527  0.00  0.00    +0.120 A 
ATOM     17  C   LIG    1        8.477   1.805  -5.822  0.00  0.00    +0.000 A 
ATOM     18  C   LIG    1        7.400   1.706  -6.698  0.00  0.00    +0.140 A 
ATOM     19  C   LIG    1        6.125   1.977  -6.257  0.00  0.00    +0.020 A 
ATOM     20  F   LIG    1        7.607   1.344  -7.983  0.00  0.00    -0.130 F 
ATOM     21  C   LIG    1        5.905   2.352  -4.928  0.00  0.00    -0.100 A 
ATOM     22 CL   LIG    1        7.732   3.039  -1.457  0.00  0.00    -0.000 Cl
ATOM     23  S   LIG    1        4.413   2.748  -4.083  0.00  0.00    +0.170 S 
ENDBRANCH  11  13
ENDBRANCH   1   9
BRANCH   1  24
ATOM     24  C   LIG    1        1.228   3.579   0.010  0.00  0.00    +0.130 C 
BRANCH  24  25
ATOM     25  C   LIG    1        1.170   2.073   0.002  0.00  0.00    +0.460 C 
ATOM     26  O   LIG    1        2.192   1.429  -0.011  0.00  0.00    -0.490 OA
BRANCH  25  27
ATOM     27  O   LIG    1       -0.018   1.448   0.010  0.00  0.00    -0.350 OA
BRANCH  27  29
ATOM     28  C   LIG    1        0.023  -0.522   1.442  0.00  0.00    +0.040 C 
ATOM     29  C   LIG    1        0.002  -0.004   0.002  0.00  0.00    +0.170 C 
ATOM     30  C   LIG    1       -1.247  -0.527  -0.710  0.00  0.00    +0.060 C 
ENDBRANCH  27  29
ENDBRANCH  25  27
ENDBRANCH  24  25
ENDBRANCH   1  24
TORSDOF 7
