REMARK  Name = ZINCpe00000MxTGo.2
REMARK                            x       y       z     vdW  Elec       q    Type
REMARK                         _______ _______ _______ _____ _____    ______ ____
ROOT
ATOM      1  C   LIG    1        1.383   3.482   0.145  0.00  0.00    +0.130 C 
ATOM      2  C   LIG    1        2.449   4.176  -0.739  0.00  0.00    +0.040 C 
ATOM      3  C   LIG    1        2.505   3.227  -1.965  0.00  0.00    +0.010 C 
ATOM      4  C   LIG    1        2.298   1.833  -1.335  0.00  0.00    +0.180 C 
ATOM      5  N   LIG    1        1.622   2.035  -0.041  0.00  0.00    -0.500 NA
ENDROOT
BRANCH   1  12
ATOM      6  C   LIG    1       -1.744   2.712   3.241  0.00  0.00    +0.090 C 
ATOM      7  C   LIG    1       -0.791   3.435   2.325  0.00  0.00    +0.520 C 
ATOM      8  N   LIG    1        0.537   3.233   2.437  0.00  0.00    -0.610 N 
ATOM      9  C   LIG    1        1.190   2.334   3.407  0.00  0.00    +0.250 C 
ATOM     10  C   LIG    1        2.625   2.897   3.565  0.00  0.00    +0.020 C 
ATOM     11  C   LIG    1        2.940   3.357   2.117  0.00  0.00    +0.050 C 
ATOM     12  C   LIG    1        1.574   3.870   1.613  0.00  0.00    +0.230 C 
ATOM     13  O   LIG    1       -1.218   4.200   1.486  0.00  0.00    -0.540 OA
ENDBRANCH   1  12
BRANCH   5  14
ATOM     14  C   LIG    1        0.363   1.282   0.019  0.00  0.00    +0.190 C 
BRANCH  14  15
ATOM     15  C   LIG    1        0.662  -0.179   0.237  0.00  0.00    +0.520 C 
ATOM     16  N   LIG    1       -0.348  -1.068   0.325  0.00  0.00    -0.620 N 
ATOM     17  C   LIG    1       -1.736  -0.614   0.209  0.00  0.00    +0.280 C 
ATOM     18  O   LIG    1        1.811  -0.556   0.332  0.00  0.00    -0.520 OA
BRANCH  16  19
ATOM     19  C   LIG    1       -0.058  -2.488   0.536  0.00  0.00    +0.370 C 
BRANCH  19  20
ATOM     20  C   LIG    1       -0.010  -2.777   2.014  0.00  0.00    -0.260 A 
ATOM     21  C   LIG    1        1.088  -2.714   2.803  0.00  0.00    +0.250 A 
ATOM     22  N   LIG    1        0.712  -3.039   4.058  0.00  0.00    -0.380 N 
ATOM     23  N   LIG    1       -0.660  -3.320   4.038  0.00  0.00    -0.300 NA
ATOM     24  C   LIG    1        1.586  -3.095   5.232  0.00  0.00    +0.360 C 
ATOM     25  C   LIG    1       -1.092  -3.163   2.813  0.00  0.00    +0.240 A 
ENDBRANCH  19  20
ENDBRANCH  16  19
ENDBRANCH  14  15
ENDBRANCH   5  14
TORSDOF 5
