REMARK  Name = ZINCrD000000BWFL.0
REMARK                            x       y       z     vdW  Elec       q    Type
REMARK                         _______ _______ _______ _____ _____    ______ ____
ROOT
ATOM      1  O   LIG    1       -3.853   2.778   3.558  0.00  0.00    -0.570 OA
ATOM      2  C   LIG    1       -4.104   3.043   2.399  0.00  0.00    +0.710 C 
ATOM      3  N   LIG    1       -3.682   2.226   1.414  0.00  0.00    -0.620 N 
ATOM      4  C   LIG    1       -4.070   2.473   0.018  0.00  0.00    +0.270 C 
ATOM      5  C   LIG    1       -2.805   2.529  -0.843  0.00  0.00    +0.030 C 
ATOM      6  C   LIG    1       -1.992   1.249  -0.634  0.00  0.00    +0.020 C 
ATOM      7  C   LIG    1       -1.573   1.144   0.834  0.00  0.00    +0.260 C 
ATOM      8  C   LIG    1       -2.824   1.072   1.715  0.00  0.00    +0.310 C 
ATOM      9  N   LIG    1       -4.805   4.154   2.098  0.00  0.00    -0.690 N 
ATOM     10  H   LIG    1       -5.074   4.325   1.182  0.00  0.00    +0.410 HD
ENDROOT
BRANCH   7  11
ATOM     11  N   LIG    1       -0.769  -0.065   1.027  0.00  0.00    -0.630 N 
ATOM     12  C   LIG    1        0.621  -0.097   1.508  0.00  0.00    +0.250 C 
ATOM     13  C   LIG    1        0.974  -1.597   1.517  0.00  0.00    +0.250 C 
ATOM     14  N   LIG    1       -0.253  -2.251   1.040  0.00  0.00    -0.740 N 
ATOM     15  H   LIG    1       -0.372  -3.207   0.925  0.00  0.00    +0.430 HD
ATOM     16  C   LIG    1       -1.180  -1.317   0.788  0.00  0.00    +0.700 C 
ATOM     17  O   LIG    1       -2.295  -1.583   0.381  0.00  0.00    -0.580 OA
ENDBRANCH   7  11
BRANCH   9  18
ATOM     18  C   LIG    1       -5.146   5.061   3.108  0.00  0.00    +0.170 A 
ATOM     19  C   LIG    1       -4.289   5.254   4.184  0.00  0.00    +0.020 A 
ATOM     20  C   LIG    1       -4.619   6.151   5.178  0.00  0.00    +0.040 A 
ATOM     21  C   LIG    1       -5.820   6.856   5.107  0.00  0.00    -0.060 A 
ATOM     22  C   LIG    1       -6.680   6.657   4.029  0.00  0.00    +0.040 A 
ATOM     23  C   LIG    1       -6.343   5.763   3.035  0.00  0.00    -0.020 A 
BRANCH  21  24
ATOM     24  C   LIG    1       -6.181   7.817   6.178  0.00  0.00    -0.040 A 
ATOM     25  C   LIG    1       -7.378   8.527   6.106  0.00  0.00    +0.010 A 
ATOM     26  C   LIG    1       -7.711   9.416   7.108  0.00  0.00    +0.000 A 
ATOM     27  C   LIG    1       -6.854   9.611   8.176  0.00  0.00    +0.000 A 
ATOM     28  C   LIG    1       -5.662   8.914   8.249  0.00  0.00    +0.000 A 
ATOM     29  C   LIG    1       -5.321   8.018   7.256  0.00  0.00    +0.020 A 
ENDBRANCH  21  24
ENDBRANCH   9  18
TORSDOF 3
