REMARK  Name = ZINCtV00000kxm06.0
REMARK                            x       y       z     vdW  Elec       q    Type
REMARK                         _______ _______ _______ _____ _____    ______ ____
ROOT
ATOM      1  O   LIG    1        3.684  -0.869  -1.069  0.00  0.00    -0.540 OA
ATOM      2  C   LIG    1        3.368  -1.952  -1.522  0.00  0.00    +0.700 C 
ATOM      3  N   LIG    1        2.748  -2.856  -0.737  0.00  0.00    -0.620 N 
ATOM      4  C   LIG    1        2.449  -4.204  -1.239  0.00  0.00    +0.270 C 
ATOM      5  C   LIG    1        3.029  -5.233  -0.264  0.00  0.00    +0.010 C 
ATOM      6  C   LIG    1        2.494  -4.954   1.143  0.00  0.00    +0.020 C 
ATOM      7  C   LIG    1        2.938  -3.559   1.592  0.00  0.00    +0.020 C 
ATOM      8  C   LIG    1        2.358  -2.511   0.637  0.00  0.00    +0.290 C 
ATOM      9  N   LIG    1        3.638  -2.249  -2.808  0.00  0.00    -0.690 N 
ATOM     10  H   LIG    1        3.332  -3.088  -3.187  0.00  0.00    +0.410 HD
ENDROOT
BRANCH   8  11
ATOM     11  C   LIG    1        2.901  -1.150   0.990  0.00  0.00    -0.060 A 
ATOM     12  C   LIG    1        4.263  -0.966   1.135  0.00  0.00    +0.100 A 
ATOM     13  C   LIG    1        4.761   0.282   1.459  0.00  0.00    +0.010 A 
ATOM     14  C   LIG    1        3.896   1.346   1.639  0.00  0.00    +0.060 A 
ATOM     15  C   LIG    1        2.534   1.162   1.493  0.00  0.00    -0.180 A 
ATOM     16  C   LIG    1        2.036  -0.086   1.169  0.00  0.00    +0.060 A 
BRANCH  15  17
ATOM     17  C   LIG    1        1.592   2.323   1.681  0.00  0.00    +0.510 C 
ATOM     18  F   LIG    1        0.465   2.146   0.871  0.00  0.00    -0.180 F 
ATOM     19  F   LIG    1        2.239   3.511   1.326  0.00  0.00    -0.180 F 
ATOM     20  F   LIG    1        1.197   2.390   3.022  0.00  0.00    -0.180 F 
ENDBRANCH  15  17
ENDBRANCH   8  11
BRANCH   9  21
ATOM     21  C   LIG    1        4.359  -1.347  -3.598  0.00  0.00    +0.200 A 
ATOM     22  C   LIG    1        4.154   0.019  -3.459  0.00  0.00    +0.030 A 
ATOM     23  C   LIG    1        4.871   0.907  -4.237  0.00  0.00    +0.090 A 
ATOM     24  C   LIG    1        5.785   0.436  -5.161  0.00  0.00    -0.200 A 
ATOM     25  C   LIG    1        5.988  -0.924  -5.306  0.00  0.00    +0.090 A 
ATOM     26  C   LIG    1        5.278  -1.817  -4.528  0.00  0.00    -0.010 A 
BRANCH  24  27
ATOM     27  C   LIG    1        6.561   1.407  -6.013  0.00  0.00    +0.510 C 
ATOM     28  F   LIG    1        7.808   0.857  -6.329  0.00  0.00    -0.180 F 
ATOM     29  F   LIG    1        6.744   2.602  -5.309  0.00  0.00    -0.180 F 
ATOM     30  F   LIG    1        5.853   1.664  -7.191  0.00  0.00    -0.180 F 
ENDBRANCH  24  27
ENDBRANCH   9  21
TORSDOF 4
