REMARK  Name = ZINCrH000004u6mF.0
REMARK                            x       y       z     vdW  Elec       q    Type
REMARK                         _______ _______ _______ _____ _____    ______ ____
ROOT
ATOM      1  C   LIG    1       -3.596   4.283   3.518  0.00  0.00    -0.150 A 
ATOM      2  C   LIG    1       -4.820   3.722   3.150  0.00  0.00    +0.130 A 
ATOM      3  C   LIG    1       -5.950   3.990   3.895  0.00  0.00    +0.030 A 
ATOM      4  C   LIG    1       -5.873   4.824   4.998  0.00  0.00    +0.070 A 
ATOM      5  C   LIG    1       -4.662   5.388   5.364  0.00  0.00    -0.680 A 
ATOM      6 CL   LIG    1       -7.301   5.162   5.927  0.00  0.00    -0.030 Cl
ATOM      7  C   LIG    1       -3.525   5.123   4.631  0.00  0.00    +0.220 A 
ENDROOT
BRANCH   1   9
ATOM      8  O   LIG    1       -1.317   4.490   3.046  0.00  0.00    -0.520 OA
ATOM      9  C   LIG    1       -2.381   3.995   2.727  0.00  0.00    +0.560 C 
ATOM     10  N   LIG    1       -2.452   3.185   1.653  0.00  0.00    -0.720 N 
ATOM     11  H   LIG    1       -3.301   2.790   1.399  0.00  0.00    +0.400 HD
BRANCH  10  12
ATOM     12  C   LIG    1       -1.247   2.899   0.870  0.00  0.00    +0.240 C 
ATOM     13  C   LIG    1       -0.535   1.627   1.393  0.00  0.00    +0.000 C 
ATOM     14  C   LIG    1        0.278   1.124   0.183  0.00  0.00    +0.020 C 
ATOM     15  C   LIG    1       -0.409   1.686  -1.074  0.00  0.00    +0.020 C 
ATOM     16  C   LIG    1       -1.617   2.511  -0.584  0.00  0.00    +0.010 C 
ENDBRANCH  10  12
ENDBRANCH   1   9
BRANCH   5  17
ATOM     17  S   LIG    1       -4.575   6.448   6.769  0.00  0.00    +2.690 S 
ATOM     18  O   LIG    1       -3.213   6.832   6.898  0.00  0.00    -0.930 OA
ATOM     19  O   LIG    1       -5.301   5.801   7.805  0.00  0.00    -0.920 OA
BRANCH  17  20
ATOM     20  N   LIG    1       -5.417   7.825   6.398  0.00  0.00    -0.930 N 
ATOM     21  C   LIG    1       -6.805   8.090   6.784  0.00  0.00    +0.280 C 
ATOM     22  C   LIG    1       -7.124   9.480   6.212  0.00  0.00    +0.100 C 
ATOM     23  C   LIG    1       -5.848   9.909   5.522  0.00  0.00    -0.130 A 
ATOM     24  C   LIG    1       -5.535  11.063   4.832  0.00  0.00    +0.050 A 
ATOM     25  C   LIG    1       -4.276  11.224   4.282  0.00  0.00    -0.010 A 
ATOM     26  C   LIG    1       -3.330  10.226   4.426  0.00  0.00    +0.050 A 
ATOM     27  C   LIG    1       -3.638   9.072   5.114  0.00  0.00    -0.010 A 
ATOM     28  C   LIG    1       -4.905   8.905   5.677  0.00  0.00    +0.150 A 
ENDBRANCH  17  20
ENDBRANCH   5  17
TORSDOF 4
