REMARK  Name = ZINCrg00000B1xfQ.0
REMARK                            x       y       z     vdW  Elec       q    Type
REMARK                         _______ _______ _______ _____ _____    ______ ____
ROOT
ATOM      1  C   LIG    1        0.465  -6.108   2.976  0.00  0.00    -0.020 C 
ATOM      2  C   LIG    1       -0.316  -5.227   1.986  0.00  0.00    +0.110 C 
ATOM      3  C   LIG    1        1.028  -4.584   1.626  0.00  0.00    -0.570 C 
ATOM      4  C   LIG    1        0.953  -3.074   1.415  0.00  0.00    +0.090 C 
ATOM      5  C   LIG    1        0.207  -2.771   0.116  0.00  0.00    +0.230 C 
ATOM      6  C   LIG    1        1.014  -3.237  -1.091  0.00  0.00    +0.060 C 
ATOM      7  C   LIG    1        1.011  -4.765  -1.172  0.00  0.00    -0.320 C 
ATOM      8  S   LIG    1        1.892  -5.429   0.273  0.00  0.00    +2.430 S 
ATOM      9  O   LIG    1        3.237  -4.972   0.236  0.00  0.00    -0.930 OA
ATOM     10  O   LIG    1        1.631  -6.823   0.366  0.00  0.00    -0.930 OA
ATOM     11  C   LIG    1        1.524  -4.992   3.017  0.00  0.00    +0.100 C 
ENDROOT
BRANCH   5  12
ATOM     12  N   LIG    1       -0.020  -1.327   0.017  0.00  0.00    -0.720 N 
ATOM     13  H   LIG    1        0.577  -0.710   0.467  0.00  0.00    +0.410 HD
ATOM     14  C   LIG    1       -1.060  -0.857  -0.700  0.00  0.00    +0.550 C 
ATOM     15  O   LIG    1       -1.807  -1.629  -1.263  0.00  0.00    -0.530 OA
BRANCH  14  16
ATOM     16  C   LIG    1       -1.294   0.628  -0.803  0.00  0.00    -0.070 C 
ATOM     17  C   LIG    1       -2.529   1.199  -0.103  0.00  0.00    +0.060 C 
ATOM     18  C   LIG    1       -2.492   1.099  -1.630  0.00  0.00    +0.070 C 
ENDBRANCH  14  16
ENDBRANCH   5  12
BRANCH   1  19
ATOM     19  C   LIG    1       -0.255  -6.319   4.310  0.00  0.00    +0.290 C 
BRANCH  19  21
ATOM     20  C   LIG    1        0.060  -7.599   6.358  0.00  0.00    +0.590 C 
ATOM     21  N   LIG    1        0.507  -7.261   5.133  0.00  0.00    -0.720 N 
ATOM     22  H   LIG    1        1.333  -7.642   4.795  0.00  0.00    +0.410 HD
ATOM     23  O   LIG    1       -0.928  -7.057   6.817  0.00  0.00    -0.550 OA
BRANCH  20  29
ATOM     24  C   LIG    1       -0.668  -8.532   9.222  0.00  0.00    +0.330 C 
ATOM     25  N   LIG    1        0.443  -9.038   8.412  0.00  0.00    -0.410 N 
ATOM     26  C   LIG    1        1.325  -9.996   8.790  0.00  0.00    +0.190 A 
ATOM     27  C   LIG    1        2.211 -10.196   7.785  0.00  0.00    -0.070 A 
ATOM     28  C   LIG    1        1.872  -9.336   6.736  0.00  0.00    +0.000 A 
ATOM     29  C   LIG    1        0.764  -8.622   7.140  0.00  0.00    -0.060 A 
ENDBRANCH  20  29
ENDBRANCH  19  21
ENDBRANCH   1  19
TORSDOF 5
