REMARK  Name = ZINCrD0000073lbL.0
REMARK                            x       y       z     vdW  Elec       q    Type
REMARK                         _______ _______ _______ _____ _____    ______ ____
ROOT
ATOM      1  C   LIG    1        1.124  -0.693  -0.025  0.00  0.00    +0.200 A 
ATOM      2  N   LIG    1        0.002  -0.004   0.002  0.00  0.00    -0.440 NA
ATOM      3  C   LIG    1       -0.016   1.330   0.023  0.00  0.00    +0.130 A 
ATOM      4  C   LIG    1       -1.230   2.039   0.058  0.00  0.00    +0.050 A 
ATOM      5  C   LIG    1       -1.217   3.400   0.075  0.00  0.00    +0.040 A 
ATOM      6  C   LIG    1       -0.017   4.107   0.068  0.00  0.00    +0.030 A 
ATOM      7  C   LIG    1        1.179   3.454   0.039  0.00  0.00    +0.050 A 
ATOM      8  C   LIG    1        1.202   2.055   0.016  0.00  0.00    -0.060 A 
ATOM      9  C   LIG    1        2.462   1.311  -0.014  0.00  0.00    -0.070 A 
ATOM     10  C   LIG    1        2.384  -0.074  -0.034  0.00  0.00    +0.070 A 
ENDROOT
BRANCH   1  14
ATOM     11  C   LIG    1        0.923  -4.940  -0.090  0.00  0.00    +0.150 A 
ATOM     12  C   LIG    1       -0.246  -4.191  -0.060  0.00  0.00    -0.020 A 
ATOM     13  C   LIG    1       -0.185  -2.814  -0.039  0.00  0.00    +0.110 A 
ATOM     14  C   LIG    1        1.054  -2.173  -0.047  0.00  0.00    -0.100 A 
ATOM     15  C   LIG    1        2.226  -2.928  -0.082  0.00  0.00    +0.080 A 
ATOM     16  C   LIG    1        2.158  -4.304  -0.098  0.00  0.00    -0.080 A 
BRANCH  11  18
ATOM     17  C   LIG    1        2.100  -7.004  -0.141  0.00  0.00    +0.240 C 
ATOM     18  O   LIG    1        0.859  -6.296  -0.111  0.00  0.00    -0.310 OA
ENDBRANCH  11  18
ENDBRANCH   1  14
BRANCH   9  19
ATOM     19  C   LIG    1        3.766   2.007  -0.022  0.00  0.00    +0.510 C 
ATOM     20  O   LIG    1        3.807   3.218  -0.108  0.00  0.00    -0.470 OA
BRANCH  19  21
ATOM     21  O   LIG    1        4.909   1.299   0.065  0.00  0.00    -0.320 OA
BRANCH  21  22
ATOM     22  C   LIG    1        6.152   2.049   0.051  0.00  0.00    +0.160 C 
ATOM     23  C   LIG    1        7.292   1.191  -0.541  0.00  0.00    +0.070 C 
ATOM     24  C   LIG    1        8.293   1.086   0.630  0.00  0.00    +0.260 C 
ATOM     25  O   LIG    1        7.527   1.447   1.818  0.00  0.00    -0.340 OA
ATOM     26  C   LIG    1        6.598   2.359   1.466  0.00  0.00    +0.470 C 
ATOM     27  O   LIG    1        6.192   3.265   2.155  0.00  0.00    -0.410 OA
ENDBRANCH  21  22
ENDBRANCH  19  21
ENDBRANCH   9  19
TORSDOF 5
