REMARK  Name = ZINCrH000004jBtw.0
REMARK                            x       y       z     vdW  Elec       q    Type
REMARK                         _______ _______ _______ _____ _____    ______ ____
ROOT
ATOM      1  C   LIG    1       -2.987   3.751   1.463  0.00  0.00    +0.410 A 
ATOM      2  N   LIG    1       -3.722   3.496   0.401  0.00  0.00    -0.590 NA
ATOM      3  C   LIG    1       -4.952   4.006   0.267  0.00  0.00    +0.550 A 
ATOM      4  C   LIG    1       -5.486   4.883   1.331  0.00  0.00    -0.220 A 
ATOM      5  C   LIG    1       -4.679   5.127   2.422  0.00  0.00    +0.060 A 
ATOM      6  S   LIG    1       -5.508   6.185   3.550  0.00  0.00    +0.170 S 
ATOM      7  C   LIG    1       -6.932   6.280   2.528  0.00  0.00    -0.190 A 
ATOM      8  C   LIG    1       -8.179   7.078   2.862  0.00  0.00    +0.120 C 
ATOM      9  C   LIG    1       -9.008   7.256   1.588  0.00  0.00    +0.030 C 
ATOM     10  C   LIG    1       -9.183   5.892   0.914  0.00  0.00    +0.020 C 
ATOM     11  C   LIG    1       -7.840   5.443   0.334  0.00  0.00    +0.110 C 
ATOM     12  C   LIG    1       -6.775   5.557   1.417  0.00  0.00    -0.030 A 
ATOM     13  O   LIG    1       -5.622   3.754  -0.723  0.00  0.00    -0.490 OA
ATOM     14  N   LIG    1       -3.424   4.548   2.471  0.00  0.00    -0.580 N 
ATOM     15  H   LIG    1       -2.849   4.714   3.234  0.00  0.00    +0.430 HD
ENDROOT
BRANCH   1  16
ATOM     16  S   LIG    1       -1.379   3.040   1.576  0.00  0.00    +0.070 S 
BRANCH  16  17
ATOM     17  C   LIG    1       -1.334   2.115   0.021  0.00  0.00    +0.090 C 
BRANCH  17  18
ATOM     18  C   LIG    1       -0.064   1.307  -0.047  0.00  0.00    -0.090 A 
ATOM     19  C   LIG    1        1.161   1.947  -0.089  0.00  0.00    +0.030 A 
ATOM     20  C   LIG    1        2.325   1.206  -0.159  0.00  0.00    +0.010 A 
ATOM     21  C   LIG    1        2.266  -0.175  -0.183  0.00  0.00    +0.030 A 
ATOM     22  C   LIG    1        1.041  -0.815  -0.141  0.00  0.00    +0.010 A 
ATOM     23  C   LIG    1       -0.124  -0.074  -0.073  0.00  0.00    +0.040 A 
ENDBRANCH  17  18
BRANCH  17  26
ATOM     24  C   LIG    1       -1.811   3.575  -3.484  0.00  0.00    +0.300 C 
ATOM     25  N   LIG    1       -1.869   2.676  -2.328  0.00  0.00    -0.600 N 
ATOM     26  C   LIG    1       -1.380   3.077  -1.138  0.00  0.00    +0.540 C 
ATOM     27  O   LIG    1       -0.977   4.213  -0.999  0.00  0.00    -0.530 OA
ATOM     28  C   LIG    1       -2.457   1.342  -2.466  0.00  0.00    +0.290 C 
ENDBRANCH  17  26
ENDBRANCH  16  17
ENDBRANCH   1  16
TORSDOF 4
