REMARK  Name = ZINCrD000000D2pb.0
REMARK                            x       y       z     vdW  Elec       q    Type
REMARK                         _______ _______ _______ _____ _____    ______ ____
ROOT
ATOM      1  C   LIG    1       -1.395  10.713   3.840  0.00  0.00    +0.230 C 
ATOM      2  C   LIG    1       -2.642  10.824   2.958  0.00  0.00    +0.040 C 
ATOM      3  C   LIG    1       -2.270  10.484   1.513  0.00  0.00    +0.190 C 
ATOM      4  N   LIG    1       -1.726   9.121   1.454  0.00  0.00    -0.530 NA
ATOM      5  C   LIG    1       -0.501   9.003   2.256  0.00  0.00    +0.170 C 
ATOM      6  C   LIG    1       -0.820   9.299   3.723  0.00  0.00    +0.040 C 
ENDROOT
BRANCH   1   7
ATOM      7  N   LIG    1       -1.757  10.981   5.234  0.00  0.00    -1.110 NA
ATOM      8  H   LIG    1       -2.620  10.698   5.574  0.00  0.00    +0.420 HD
BRANCH   7  10
ATOM      9  O   LIG    1       -1.342  11.901   7.486  0.00  0.00    -0.950 OA
ATOM     10  S   LIG    1       -0.692  11.766   6.230  0.00  0.00    +2.720 S 
ATOM     11  O   LIG    1        0.561  11.116   6.070  0.00  0.00    -0.950 OA
BRANCH  10  12
ATOM     12  C   LIG    1       -0.491  13.398   5.596  0.00  0.00    -0.800 A 
ATOM     13  C   LIG    1       -1.234  14.452   5.937  0.00  0.00    +0.170 A 
ATOM     14  C   LIG    1       -0.890  15.636   5.307  0.00  0.00    -0.010 A 
ATOM     15  C   LIG    1        0.131  15.543   4.454  0.00  0.00    +0.010 A 
ATOM     16  S   LIG    1        0.724  13.887   4.422  0.00  0.00    +0.210 S 
ENDBRANCH  10  12
ENDBRANCH   7  10
ENDBRANCH   1   7
BRANCH   4  17
ATOM     17  C   LIG    1       -1.486   8.710   0.064  0.00  0.00    +0.310 C 
BRANCH  17  18
ATOM     18  C   LIG    1       -0.708   7.419   0.049  0.00  0.00    -0.030 A 
ATOM     19  C   LIG    1       -1.219   6.168   0.042  0.00  0.00    -0.020 A 
ATOM     20  C   LIG    1       -0.070   5.328   0.032  0.00  0.00    +0.060 A 
ATOM     21  N   LIG    1        0.966   6.129   0.026  0.00  0.00    -0.350 NA
ATOM     22  O   LIG    1        0.627   7.290   0.036  0.00  0.00    +0.110 OA
BRANCH  20  23
ATOM     23  C   LIG    1       -0.050   3.844   0.023  0.00  0.00    -0.030 A 
ATOM     24  C   LIG    1        1.164   3.161   0.008  0.00  0.00    +0.040 A 
ATOM     25  C   LIG    1        1.177   1.781   0.000  0.00  0.00    +0.010 A 
ATOM     26  C   LIG    1       -0.013   1.076   0.008  0.00  0.00    +0.020 A 
ATOM     27  C   LIG    1       -1.221   1.748   0.017  0.00  0.00    +0.010 A 
ATOM     28  C   LIG    1       -1.246   3.128   0.031  0.00  0.00    +0.040 A 
ENDBRANCH  20  23
ENDBRANCH  17  18
ENDBRANCH   4  17
TORSDOF 6
