REMARK  Name = ZINCrH00000No4Dc.0
REMARK                            x       y       z     vdW  Elec       q    Type
REMARK                         _______ _______ _______ _____ _____    ______ ____
ROOT
ATOM      1  N   LIG    1        1.698   4.845   1.405  0.00  0.00    -0.530 NA
ENDROOT
BRANCH   1   2
ATOM      2  C   LIG    1        1.578   4.750  -0.056  0.00  0.00    +0.310 C 
BRANCH   2   4
ATOM      3  C   LIG    1       -0.498   3.450  -0.751  0.00  0.00    -0.000 A 
ATOM      4  C   LIG    1        0.802   3.509  -0.417  0.00  0.00    -0.030 A 
ATOM      5  O   LIG    1        1.281   2.251  -0.464  0.00  0.00    -0.190 OA
ATOM      6  C   LIG    1        0.274   1.444  -0.825  0.00  0.00    +0.420 A 
ATOM      7  N   LIG    1       -0.796   2.164  -1.003  0.00  0.00    -0.480 NA
BRANCH   3   9
ATOM      8  C   LIG    1       -1.422   5.197  -2.250  0.00  0.00    +0.020 C 
ATOM      9  C   LIG    1       -1.448   4.617  -0.834  0.00  0.00    +0.110 C 
ENDBRANCH   3   9
ENDBRANCH   2   4
ENDBRANCH   1   2
BRANCH   1  10
ATOM     10  C   LIG    1        2.739   5.809   1.786  0.00  0.00    +0.250 C 
BRANCH  10  11
ATOM     11  C   LIG    1        4.086   5.293   1.349  0.00  0.00    -0.080 A 
ATOM     12  C   LIG    1        4.834   4.505   2.204  0.00  0.00    +0.070 A 
ATOM     13  C   LIG    1        6.068   4.029   1.801  0.00  0.00    +0.020 A 
ATOM     14  C   LIG    1        6.557   4.346   0.548  0.00  0.00    +0.070 A 
ATOM     15  C   LIG    1        5.810   5.138  -0.305  0.00  0.00    -0.180 A 
ATOM     16  C   LIG    1        4.575   5.611   0.096  0.00  0.00    +0.060 A 
BRANCH  15  17
ATOM     17  C   LIG    1        6.343   5.485  -1.671  0.00  0.00    +0.510 C 
ATOM     18  F   LIG    1        5.275   5.657  -2.558  0.00  0.00    -0.180 F 
ATOM     19  F   LIG    1        7.166   4.450  -2.127  0.00  0.00    -0.180 F 
ATOM     20  F   LIG    1        7.082   6.670  -1.596  0.00  0.00    -0.180 F 
ENDBRANCH  15  17
ENDBRANCH  10  11
ENDBRANCH   1  10
BRANCH   1  21
ATOM     21  C   LIG    1        0.409   5.193   2.017  0.00  0.00    +0.220 C 
BRANCH  21  22
ATOM     22  C   LIG    1       -0.389   3.916   2.287  0.00  0.00    +0.050 C 
BRANCH  22  23
ATOM     23  C   LIG    1       -1.650   4.260   3.037  0.00  0.00    +0.520 C 
ATOM     24  N   LIG    1       -2.514   3.286   3.385  0.00  0.00    -0.620 N 
ATOM     25  C   LIG    1       -2.228   1.893   3.034  0.00  0.00    +0.280 C 
ATOM     26  C   LIG    1       -3.740   3.621   4.115  0.00  0.00    +0.290 C 
ATOM     27  O   LIG    1       -1.887   5.413   3.328  0.00  0.00    -0.540 OA
ENDBRANCH  22  23
ENDBRANCH  21  22
ENDBRANCH   1  21
TORSDOF 9
