REMARK  Name = ZINCqH0000008vRc.0
REMARK                            x       y       z     vdW  Elec       q    Type
REMARK                         _______ _______ _______ _____ _____    ______ ____
ROOT
ATOM      1  C   LIG    1       -1.405  -0.526   0.137  0.00  0.00    +0.420 C 
ATOM      2  O   LIG    1       -2.342   0.158  -0.216  0.00  0.00    -0.430 OA
ENDROOT
BRANCH   1   3
ATOM      3  C   LIG    1       -1.642  -1.864   0.694  0.00  0.00    -0.160 A 
ATOM      4  C   LIG    1       -0.561  -2.656   1.101  0.00  0.00    +0.090 A 
ATOM      5  C   LIG    1       -0.783  -3.911   1.624  0.00  0.00    +0.030 A 
ATOM      6  C   LIG    1       -2.078  -4.394   1.750  0.00  0.00    +0.120 A 
ATOM      7  O   LIG    1       -2.306  -5.629   2.267  0.00  0.00    -0.300 OA
ATOM      8  C   LIG    1       -3.509  -5.798   3.022  0.00  0.00    +0.310 C 
ATOM      9  C   LIG    1       -4.667  -5.191   2.272  0.00  0.00    +0.490 C 
ATOM     10  N   LIG    1       -4.463  -4.116   1.480  0.00  0.00    -0.660 N 
ATOM     11  H   LIG    1       -5.204  -3.702   1.011  0.00  0.00    +0.420 HD
ATOM     12  O   LIG    1       -5.778  -5.666   2.381  0.00  0.00    -0.500 OA
ATOM     13  C   LIG    1       -3.162  -3.609   1.345  0.00  0.00    +0.080 A 
ATOM     14  C   LIG    1       -2.950  -2.349   0.825  0.00  0.00    +0.090 A 
ENDBRANCH   1   3
BRANCH   1  16
ATOM     15  C   LIG    1        0.606  -0.499  -1.314  0.00  0.00    +0.100 C 
ATOM     16  C   LIG    1        0.002  -0.004   0.002  0.00  0.00    +0.000 C 
BRANCH  16  17
ATOM     17  S   LIG    1       -0.022   1.810   0.012  0.00  0.00    +0.010 S 
BRANCH  17  18
ATOM     18  C   LIG    1        1.689   2.229  -0.002  0.00  0.00    +0.140 A 
ATOM     19  C   LIG    1        2.071   3.567   0.001  0.00  0.00    +0.000 A 
ATOM     20  C   LIG    1        3.417   3.882  -0.010  0.00  0.00    +0.150 A 
ATOM     21  C   LIG    1        4.341   2.845  -0.024  0.00  0.00    -0.250 A 
ATOM     22  C   LIG    1        3.892   1.540  -0.027  0.00  0.00    +0.340 A 
ATOM     23  N   LIG    1        2.600   1.268  -0.011  0.00  0.00    -0.490 NA
BRANCH  21  24
ATOM     24  C   LIG    1        5.818   3.142  -0.036  0.00  0.00    +0.520 C 
ATOM     25  F   LIG    1        6.045   4.357  -0.691  0.00  0.00    -0.170 F 
ATOM     26  F   LIG    1        6.494   2.117  -0.708  0.00  0.00    -0.170 F 
ATOM     27  F   LIG    1        6.288   3.226   1.279  0.00  0.00    -0.170 F 
ENDBRANCH  21  24
ENDBRANCH  17  18
ENDBRANCH  16  17
ENDBRANCH   1  16
TORSDOF 5
