REMARK  Name = ZINCrH000004pzSs.0
REMARK                            x       y       z     vdW  Elec       q    Type
REMARK                         _______ _______ _______ _____ _____    ______ ____
ROOT
ATOM      1  N   LIG    1        1.133   1.956  -0.449  0.00  0.00    -0.600 N 
ATOM      2  C   LIG    1       -0.021   1.264  -0.378  0.00  0.00    +0.560 C 
ATOM      3  O   LIG    1       -0.003   0.075  -0.126  0.00  0.00    -0.530 OA
ATOM      4  C   LIG    1        1.120   3.363  -0.854  0.00  0.00    +0.290 C 
ENDROOT
BRANCH   2   5
ATOM      5  C   LIG    1       -1.310   1.950  -0.613  0.00  0.00    -0.100 A 
ATOM      6  C   LIG    1       -1.410   3.331  -0.435  0.00  0.00    +0.030 A 
ATOM      7  C   LIG    1       -2.613   3.969  -0.660  0.00  0.00    +0.050 A 
ATOM      8  C   LIG    1       -3.723   3.243  -1.050  0.00  0.00    -0.020 A 
ATOM      9  C   LIG    1       -3.634   1.868  -1.224  0.00  0.00    +0.100 A 
ATOM     10  C   LIG    1       -2.431   1.219  -1.006  0.00  0.00    +0.070 A 
BRANCH   9  11
ATOM     11  O   LIG    1       -4.729   1.159  -1.607  0.00  0.00    -0.320 OA
BRANCH  11  12
ATOM     12  C   LIG    1       -5.937   1.893  -1.813  0.00  0.00    +0.600 C 
ATOM     13  F   LIG    1       -5.737   2.848  -2.816  0.00  0.00    -0.200 F 
ATOM     14  F   LIG    1       -6.302   2.535  -0.625  0.00  0.00    -0.200 F 
ENDBRANCH  11  12
ENDBRANCH   9  11
ENDBRANCH   2   5
BRANCH   1  16
ATOM     15  C   LIG    1        3.106   2.078   0.992  0.00  0.00    +0.060 C 
ATOM     16  C   LIG    1        2.402   1.300  -0.122  0.00  0.00    +0.300 C 
BRANCH  16  17
ATOM     17  C   LIG    1        3.281   1.267  -1.345  0.00  0.00    -0.100 A 
ATOM     18  C   LIG    1        2.719   1.071  -2.594  0.00  0.00    +0.050 A 
ATOM     19  C   LIG    1        3.522   1.045  -3.717  0.00  0.00    +0.000 A 
ATOM     20  C   LIG    1        4.895   1.206  -3.591  0.00  0.00    +0.150 A 
ATOM     21  C   LIG    1        5.457   1.398  -2.336  0.00  0.00    +0.030 A 
ATOM     22  C   LIG    1        4.649   1.427  -1.217  0.00  0.00    +0.050 A 
BRANCH  20  23
ATOM     23  N   LIG    1        5.713   1.177  -4.730  0.00  0.00    -0.330 N 
ATOM     24  C   LIG    1        5.317   0.995  -6.005  0.00  0.00    +0.480 A 
ATOM     25  N   LIG    1        6.379   1.035  -6.768  0.00  0.00    -0.540 NA
ATOM     26  C   LIG    1        7.466   1.230  -6.022  0.00  0.00    +0.430 A 
ATOM     27  N   LIG    1        7.110   1.323  -4.767  0.00  0.00    -0.310 NA
ENDBRANCH  20  23
ENDBRANCH  16  17
ENDBRANCH   1  16
TORSDOF 6
