REMARK  Name = ZINCtV000002Kb6J.0
REMARK                            x       y       z     vdW  Elec       q    Type
REMARK                         _______ _______ _______ _____ _____    ______ ____
ROOT
ATOM      1  C   LIG    1       -1.575  -1.589  -1.080  0.00  0.00    -0.130 A 
ATOM      2  C   LIG    1       -2.678  -2.427  -0.922  0.00  0.00    +0.050 A 
ATOM      3  C   LIG    1       -3.592  -2.182   0.083  0.00  0.00    +0.010 A 
ATOM      4  C   LIG    1       -3.418  -1.109   0.942  0.00  0.00    +0.050 A 
ATOM      5  C   LIG    1       -2.329  -0.272   0.804  0.00  0.00    +0.030 A 
ATOM      6  C   LIG    1       -1.397  -0.503  -0.203  0.00  0.00    +0.010 A 
ENDROOT
BRANCH   6   7
ATOM      7  C   LIG    1       -0.226   0.393  -0.354  0.00  0.00    -0.020 A 
ATOM      8  C   LIG    1       -0.011   1.067  -1.556  0.00  0.00    +0.070 A 
ATOM      9  C   LIG    1        1.080   1.901  -1.691  0.00  0.00    +0.060 A 
ATOM     10  C   LIG    1        1.960   2.068  -0.637  0.00  0.00    -0.180 A 
ATOM     11  C   LIG    1        1.753   1.402   0.557  0.00  0.00    +0.070 A 
ATOM     12  C   LIG    1        0.665   0.566   0.704  0.00  0.00    +0.030 A 
BRANCH  10  13
ATOM     13  C   LIG    1        3.150   2.980  -0.791  0.00  0.00    +0.510 C 
ATOM     14  F   LIG    1        3.478   3.532   0.452  0.00  0.00    -0.180 F 
ATOM     15  F   LIG    1        2.838   4.006  -1.689  0.00  0.00    -0.180 F 
ATOM     16  F   LIG    1        4.239   2.249  -1.278  0.00  0.00    -0.180 F 
ENDBRANCH  10  13
ENDBRANCH   6   7
BRANCH   1  19
ATOM     17  N   LIG    1       -0.836  -2.803  -3.071  0.00  0.00    -0.670 N 
ATOM     18  H   LIG    1       -1.683  -3.276  -3.068  0.00  0.00    +0.410 HD
ATOM     19  C   LIG    1       -0.598  -1.842  -2.156  0.00  0.00    +0.560 C 
ATOM     20  O   LIG    1        0.423  -1.184  -2.218  0.00  0.00    -0.490 OA
BRANCH  17  27
ATOM     21  C   LIG    1        3.099  -4.839  -9.291  0.00  0.00    +0.200 C 
ATOM     22  C   LIG    1        2.347  -4.433  -8.049  0.00  0.00    +0.130 A 
ATOM     23  N   LIG    1        2.894  -4.085  -6.945  0.00  0.00    -0.460 NA
ATOM     24  C   LIG    1        2.091  -3.747  -5.918  0.00  0.00    +0.070 A 
ATOM     25  C   LIG    1        2.447  -3.334  -4.616  0.00  0.00    +0.100 A 
ATOM     26  C   LIG    1        1.490  -3.030  -3.699  0.00  0.00    +0.040 A 
ATOM     27  C   LIG    1        0.138  -3.119  -4.025  0.00  0.00    +0.170 A 
ATOM     28  C   LIG    1       -0.239  -3.525  -5.292  0.00  0.00    +0.020 A 
ATOM     29  C   LIG    1        0.733  -3.835  -6.241  0.00  0.00    -0.150 A 
ATOM     30  S   LIG    1        0.595  -4.370  -7.914  0.00  0.00    +0.050 S 
ENDBRANCH  17  27
ENDBRANCH   1  19
TORSDOF 4
