REMARK  Name = ZINCkj000005gSmN.1
REMARK                            x       y       z     vdW  Elec       q    Type
REMARK                         _______ _______ _______ _____ _____    ______ ____
ROOT
ATOM      1  N   LIG    1        1.417   1.437   2.443  0.00  0.00    -0.530 NA
ATOM      2  C   LIG    1        2.112   0.992   1.228  0.00  0.00    +0.220 C 
ATOM      3  C   LIG    1        1.367   1.513  -0.003  0.00  0.00    +0.270 C 
ATOM      4  N   LIG    1       -0.012   1.005   0.008  0.00  0.00    -0.390 N 
ATOM      5  C   LIG    1       -0.701   1.478   1.215  0.00  0.00    +0.280 C 
ATOM      6  H   LIG    1        0.002  -0.004   0.002  0.00  0.00    +0.420 HD
ATOM      7  C   LIG    1        0.028   0.957   2.456  0.00  0.00    +0.200 C 
ENDROOT
BRANCH   1   8
ATOM      8  C   LIG    1        2.134   1.003   3.649  0.00  0.00    +0.300 C 
BRANCH   8  11
ATOM      9  C   LIG    1        0.472   2.521   6.509  0.00  0.00    +0.060 A 
ATOM     10  N   LIG    1        1.248   2.421   5.483  0.00  0.00    -0.460 NA
ATOM     11  C   LIG    1        1.278   1.258   4.863  0.00  0.00    +0.060 A 
ATOM     12  C   LIG    1        0.490   0.323   5.401  0.00  0.00    -0.090 A 
ATOM     13  S   LIG    1       -0.327   1.035   6.790  0.00  0.00    +0.150 S 
BRANCH   9  15
ATOM     14  C   LIG    1       -0.843   4.607   6.770  0.00  0.00    +0.040 C 
ATOM     15  C   LIG    1        0.299   3.764   7.342  0.00  0.00    +0.140 C 
ENDBRANCH   9  15
ENDBRANCH   8  11
ENDBRANCH   1   8
BRANCH   4  16
ATOM     16  C   LIG    1       -0.722   1.491  -1.183  0.00  0.00    +0.280 C 
BRANCH  16  17
ATOM     17  C   LIG    1       -0.080   0.896  -2.438  0.00  0.00    +0.110 C 
BRANCH  17  18
ATOM     18  C   LIG    1       -0.808   1.395  -3.659  0.00  0.00    +0.470 C 
ATOM     19  O   LIG    1       -1.744   2.149  -3.538  0.00  0.00    -0.500 OA
BRANCH  18  20
ATOM     20  O   LIG    1       -0.416   1.002  -4.882  0.00  0.00    -0.350 OA
ATOM     21  C   LIG    1       -1.164   1.523  -6.012  0.00  0.00    +0.280 C 
ENDBRANCH  18  20
ENDBRANCH  17  18
ENDBRANCH  16  17
ENDBRANCH   4  16
TORSDOF 7
