REMARK  Name = ZINCtj00001n1ktB.0
REMARK                            x       y       z     vdW  Elec       q    Type
REMARK                         _______ _______ _______ _____ _____    ______ ____
ROOT
ATOM      1  C   LIG    1        5.935   1.026  -0.778  0.00  0.00    -0.010 C 
ATOM      2  C   LIG    1        6.295   1.764  -2.071  0.00  0.00    +0.050 C 
ATOM      3  C   LIG    1        7.615   2.511  -1.875  0.00  0.00    +0.250 C 
ATOM      4  N   LIG    1        8.679   1.556  -1.542  0.00  0.00    -0.380 N 
ATOM      5  C   LIG    1        8.375   0.898  -0.265  0.00  0.00    +0.250 C 
ATOM      6  H   LIG    1        8.745   0.861  -2.270  0.00  0.00    +0.430 HD
ATOM      7  C   LIG    1        7.085   0.087  -0.400  0.00  0.00    +0.080 C 
ENDROOT
BRANCH   1   8
ATOM      8  C   LIG    1        4.658   0.211  -0.992  0.00  0.00    +0.280 C 
BRANCH   8  11
ATOM      9  O   LIG    1        2.122  -0.578  -1.448  0.00  0.00    -0.520 OA
ATOM     10  C   LIG    1        2.302   0.621  -1.458  0.00  0.00    +0.510 C 
ATOM     11  N   LIG    1        3.536   1.118  -1.240  0.00  0.00    -0.730 N 
ATOM     12  H   LIG    1        3.680   2.078  -1.248  0.00  0.00    +0.400 HD
BRANCH  10  13
ATOM     13  C   LIG    1        1.147   1.555  -1.713  0.00  0.00    +0.300 C 
BRANCH  13  14
ATOM     14  N   LIG    1       -0.076   0.774  -1.917  0.00  0.00    -0.720 N 
ATOM     15  H   LIG    1       -0.046  -0.194  -1.876  0.00  0.00    +0.410 HD
ATOM     16  C   LIG    1       -1.242   1.402  -2.169  0.00  0.00    +0.570 C 
ATOM     17  O   LIG    1       -1.279   2.616  -2.221  0.00  0.00    -0.530 OA
BRANCH  16  18
ATOM     18  C   LIG    1       -2.474   0.614  -2.382  0.00  0.00    -0.200 A 
ATOM     19  C   LIG    1       -3.693   1.254  -2.638  0.00  0.00    +0.140 A 
ATOM     20  C   LIG    1       -4.817   0.471  -2.835  0.00  0.00    -0.030 A 
ATOM     21  C   LIG    1       -4.704  -0.906  -2.761  0.00  0.00    +0.300 A 
ATOM     22  N   LIG    1       -3.542  -1.482  -2.513  0.00  0.00    -0.490 NA
ATOM     23  C   LIG    1       -2.445  -0.780  -2.325  0.00  0.00    +0.300 A 
ENDBRANCH  16  18
ENDBRANCH  13  14
ENDBRANCH  10  13
ENDBRANCH   8  11
ENDBRANCH   1   8
BRANCH   4  24
ATOM     24  C   LIG    1        9.959   2.269  -1.431  0.00  0.00    +0.240 C 
BRANCH  24  25
ATOM     25  C   LIG    1       11.091   1.259  -1.235  0.00  0.00    +0.270 C 
BRANCH  25  26
ATOM     26  C   LIG    1       12.401   1.992  -1.106  0.00  0.00    -0.140 A 
ATOM     27  C   LIG    1       13.054   2.444  -2.237  0.00  0.00    +0.010 A 
ATOM     28  C   LIG    1       14.254   3.120  -2.119  0.00  0.00    +0.020 A 
ATOM     29  C   LIG    1       14.806   3.336  -0.870  0.00  0.00    +0.030 A 
ATOM     30  C   LIG    1       14.155   2.879   0.261  0.00  0.00    +0.020 A 
ATOM     31  C   LIG    1       12.953   2.207   0.143  0.00  0.00    +0.030 A 
ENDBRANCH  25  26
BRANCH  25  32
ATOM     32  O   LIG    1       11.145   0.380  -2.360  0.00  0.00    -0.550 OA
ATOM     33  H   LIG    1       11.305   0.828  -3.202  0.00  0.00    +0.390 HD
ENDBRANCH  25  32
ENDBRANCH  24  25
ENDBRANCH   4  24
TORSDOF 9
