REMARK  Name = ZINCrD00000e0KSh.0
REMARK                            x       y       z     vdW  Elec       q    Type
REMARK                         _______ _______ _______ _____ _____    ______ ____
ROOT
ATOM      1  N   LIG    1       -6.424   3.506  -1.344  0.00  0.00    -0.620 NA
ATOM      2  C   LIG    1       -6.095   4.071  -0.046  0.00  0.00    +0.350 C 
ATOM      3  C   LIG    1       -4.594   4.291   0.019  0.00  0.00    -0.270 A 
ATOM      4  C   LIG    1       -3.691   3.290  -0.039  0.00  0.00    +0.110 A 
ATOM      5  N   LIG    1       -2.459   3.823   0.046  0.00  0.00    -0.320 N 
ATOM      6  N   LIG    1       -2.618   5.216   0.160  0.00  0.00    -0.280 NA
ATOM      7  C   LIG    1       -4.081   1.824  -0.180  0.00  0.00    +0.120 C 
ATOM      8  C   LIG    1       -4.663   1.672  -1.603  0.00  0.00    -0.090 C 
ATOM      9  C   LIG    1       -4.650   0.180  -1.968  0.00  0.00    +0.040 C 
ATOM     10  C   LIG    1       -3.799   2.429  -2.606  0.00  0.00    +0.030 C 
ATOM     11  C   LIG    1       -3.902   5.491   0.145  0.00  0.00    +0.240 A 
ATOM     12  C   LIG    1       -6.091   2.161  -1.646  0.00  0.00    +0.250 C 
ENDROOT
BRANCH   5  13
ATOM     13  C   LIG    1       -1.237   3.137   0.031  0.00  0.00    +0.160 A 
ATOM     14  C   LIG    1       -1.052   2.029   0.846  0.00  0.00    +0.030 A 
ATOM     15  C   LIG    1        0.156   1.358   0.833  0.00  0.00    +0.040 A 
ATOM     16  C   LIG    1        1.175   1.782   0.001  0.00  0.00    +0.040 A 
ATOM     17  C   LIG    1        0.993   2.882  -0.817  0.00  0.00    +0.040 A 
ATOM     18  C   LIG    1       -0.211   3.561  -0.805  0.00  0.00    -0.030 A 
ATOM     19 CL   LIG    1       -0.441   4.942  -1.832  0.00  0.00    -0.040 Cl
ENDBRANCH   5  13
BRANCH   1  20
ATOM     20  C   LIG    1       -6.469   4.443  -2.449  0.00  0.00    +0.250 C 
BRANCH  20  24
ATOM     21  C   LIG    1       -9.352   7.857  -4.191  0.00  0.00    +0.340 C 
ATOM     22  N   LIG    1       -8.681   6.984  -3.225  0.00  0.00    -0.640 N 
ATOM     23  C   LIG    1       -7.231   6.743  -3.153  0.00  0.00    +0.250 C 
ATOM     24  C   LIG    1       -7.080   5.763  -1.974  0.00  0.00    +0.180 C 
ATOM     25  O   LIG    1       -8.446   5.556  -1.510  0.00  0.00    -0.310 OA
ATOM     26  C   LIG    1       -9.286   6.275  -2.262  0.00  0.00    +0.640 C 
ATOM     27  O   LIG    1      -10.489   6.285  -2.088  0.00  0.00    -0.520 OA
ENDBRANCH  20  24
ENDBRANCH   1  20
TORSDOF 3
