REMARK  Name = ZINCpk00000eawFY.2
REMARK                            x       y       z     vdW  Elec       q    Type
REMARK                         _______ _______ _______ _____ _____    ______ ____
ROOT
ATOM      1  N   LIG    1        0.032   0.750  -0.833  0.00  0.00    -0.490 N 
ATOM      2  C   LIG    1        0.165   2.203  -0.658  0.00  0.00    +0.180 C 
ATOM      3  C   LIG    1        1.636   2.553  -0.413  0.00  0.00    +0.280 C 
ATOM      4  N   LIG    1        2.127   1.744   0.713  0.00  0.00    -0.620 N 
ATOM      5  C   LIG    1        1.908   0.290   0.674  0.00  0.00    +0.300 C 
ATOM      6  C   LIG    1        2.762   2.320   1.754  0.00  0.00    +0.530 C 
ATOM      7  O   LIG    1        3.090   1.650   2.710  0.00  0.00    -0.510 OA
ATOM      8  C   LIG    1        0.425   0.029   0.386  0.00  0.00    +0.180 C 
ENDROOT
BRANCH   6   9
ATOM      9  C   LIG    1        3.064   3.796   1.729  0.00  0.00    +0.080 C 
ATOM     10  C   LIG    1        3.785   4.162   0.415  0.00  0.00    +0.040 C 
ATOM     11  C   LIG    1        5.281   4.165   0.826  0.00  0.00    +0.160 C 
ATOM     12  C   LIG    1        5.208   4.723   2.269  0.00  0.00    +0.170 C 
ATOM     13  C   LIG    1        1.764   4.595   1.849  0.00  0.00    +0.060 C 
ATOM     14  N   LIG    1        3.973   4.141   2.837  0.00  0.00    -0.500 NA
ATOM     15  C   LIG    1        3.332   5.075   3.772  0.00  0.00    +0.200 C 
BRANCH  11  16
ATOM     16  O   LIG    1        6.043   5.029  -0.019  0.00  0.00    -0.380 OA
ATOM     17  C   LIG    1        7.402   4.622  -0.192  0.00  0.00    +0.200 C 
ENDBRANCH  11  16
ENDBRANCH   6   9
BRANCH   1  23
ATOM     18  C   LIG    1       -1.487  -0.244  -2.432  0.00  0.00    +0.150 A 
ATOM     19  C   LIG    1       -2.775  -0.585  -2.809  0.00  0.00    -0.080 A 
ATOM     20  C   LIG    1       -3.842  -0.268  -1.988  0.00  0.00    +0.050 A 
ATOM     21  C   LIG    1       -3.627   0.383  -0.788  0.00  0.00    -0.030 A 
ATOM     22  C   LIG    1       -2.343   0.722  -0.402  0.00  0.00    +0.010 A 
ATOM     23  C   LIG    1       -1.268   0.408  -1.220  0.00  0.00    +0.050 A 
BRANCH  18  25
ATOM     24  C   LIG    1       -0.736  -1.218  -4.468  0.00  0.00    +0.220 C 
ATOM     25  O   LIG    1       -0.437  -0.549  -3.241  0.00  0.00    -0.290 OA
ENDBRANCH  18  25
ENDBRANCH   1  23
TORSDOF 4
