REMARK  Name = ZINCrg000000tVlJ.0
REMARK                            x       y       z     vdW  Elec       q    Type
REMARK                         _______ _______ _______ _____ _____    ______ ____
ROOT
ATOM      1  N   LIG    1       -2.858   2.976   1.261  0.00  0.00    -0.510 NA
ATOM      2  C   LIG    1       -2.825   2.838   2.723  0.00  0.00    +0.170 C 
ATOM      3  C   LIG    1       -3.310   4.142   3.367  0.00  0.00    +0.320 C 
ATOM      4  N   LIG    1       -4.626   4.479   2.804  0.00  0.00    -0.600 N 
ATOM      5  C   LIG    1       -4.772   4.502   1.340  0.00  0.00    +0.310 C 
ATOM      6  C   LIG    1       -4.229   3.185   0.776  0.00  0.00    +0.190 C 
ENDROOT
BRANCH   4   7
ATOM      7  C   LIG    1       -5.700   4.767   3.629  0.00  0.00    +0.410 A 
ATOM      8  C   LIG    1       -5.518   4.886   4.976  0.00  0.00    +0.110 A 
ATOM      9  N   LIG    1       -6.538   5.168   5.782  0.00  0.00    -0.370 NA
ATOM     10  C   LIG    1       -7.754   5.331   5.315  0.00  0.00    +0.270 A 
ATOM     11  C   LIG    1       -7.995   5.213   3.935  0.00  0.00    +0.280 A 
ATOM     12  N   LIG    1       -9.081   5.319   3.181  0.00  0.00    -0.530 NA
ATOM     13  C   LIG    1       -8.765   5.114   1.910  0.00  0.00    +0.480 A 
ATOM     14  N   LIG    1       -7.478   4.873   1.809  0.00  0.00    -0.350 NA
ATOM     15  N   LIG    1       -6.947   4.928   3.102  0.00  0.00    -0.310 N 
ENDBRANCH   4   7
BRANCH   1  18
ATOM     16  O   LIG    1       -0.004   2.526   1.204  0.00  0.00    -0.490 OA
ATOM     17  C   LIG    1       -0.816   1.633   1.088  0.00  0.00    +0.520 C 
ATOM     18  C   LIG    1       -2.240   1.814   0.609  0.00  0.00    +0.190 C 
ATOM     19  C   LIG    1       -2.953   0.507   1.035  0.00  0.00    +0.020 C 
ATOM     20  C   LIG    1       -1.770  -0.484   1.109  0.00  0.00    +0.280 C 
ATOM     21  N   LIG    1       -0.583   0.339   1.365  0.00  0.00    -0.560 N 
BRANCH  21  22
ATOM     22  C   LIG    1        0.636  -0.160   1.838  0.00  0.00    +0.160 A 
ATOM     23  C   LIG    1        1.741   0.677   1.931  0.00  0.00    -0.010 A 
ATOM     24  C   LIG    1        2.941   0.182   2.403  0.00  0.00    +0.040 A 
ATOM     25  C   LIG    1        3.047  -1.146   2.772  0.00  0.00    -0.020 A 
ATOM     26  C   LIG    1        1.950  -1.983   2.675  0.00  0.00    +0.040 A 
ATOM     27  C   LIG    1        0.745  -1.493   2.209  0.00  0.00    -0.040 A 
ENDBRANCH  21  22
ENDBRANCH   1  18
TORSDOF 3
