REMARK  Name = ZINCrD000000Bvzn.0
REMARK                            x       y       z     vdW  Elec       q    Type
REMARK                         _______ _______ _______ _____ _____    ______ ____
ROOT
ATOM      1  O   LIG    1        3.368   2.193  -0.232  0.00  0.00    -0.500 OA
ATOM      2  C   LIG    1        2.491   1.358  -0.123  0.00  0.00    +0.590 C 
ATOM      3  N   LIG    1        2.809   0.049  -0.073  0.00  0.00    -0.720 N 
ATOM      4  H   LIG    1        2.110  -0.618   0.013  0.00  0.00    +0.400 HD
ENDROOT
BRANCH   2   5
ATOM      5  C   LIG    1        1.084   1.775  -0.046  0.00  0.00    -0.070 A 
ATOM      6  C   LIG    1        0.576   3.062  -0.195  0.00  0.00    +0.110 A 
ATOM      7  N   LIG    1       -0.753   2.952  -0.045  0.00  0.00    -0.250 NA
ATOM      8  N   LIG    1       -1.058   1.722   0.171  0.00  0.00    -0.040 NA
ATOM      9  N   LIG    1       -0.008   0.979   0.186  0.00  0.00    -0.370 N 
ATOM     10  H   LIG    1        0.008   0.020   0.333  0.00  0.00    +0.450 HD
BRANCH   6  11
ATOM     11  C   LIG    1        1.344   4.300  -0.464  0.00  0.00    -0.030 A 
ATOM     12  C   LIG    1        1.025   5.482   0.204  0.00  0.00    +0.050 A 
ATOM     13  C   LIG    1        1.748   6.630  -0.046  0.00  0.00    +0.000 A 
ATOM     14  C   LIG    1        2.779   6.614  -0.968  0.00  0.00    +0.020 A 
ATOM     15  C   LIG    1        3.097   5.446  -1.638  0.00  0.00    +0.000 A 
ATOM     16  C   LIG    1        2.386   4.290  -1.391  0.00  0.00    +0.060 A 
ENDBRANCH   6  11
ENDBRANCH   2   5
BRANCH   3  17
ATOM     17  C   LIG    1        4.212  -0.367  -0.150  0.00  0.00    +0.370 C 
BRANCH  17  18
ATOM     18  C   LIG    1        4.295  -1.870  -0.073  0.00  0.00    -0.250 A 
ATOM     19  C   LIG    1        4.422  -2.603   1.057  0.00  0.00    +0.260 A 
ATOM     20  N   LIG    1        4.458  -3.907   0.700  0.00  0.00    -0.320 N 
ATOM     21  N   LIG    1        4.358  -3.973  -0.696  0.00  0.00    -0.280 NA
ATOM     22  C   LIG    1        4.261  -2.753  -1.158  0.00  0.00    +0.270 A 
BRANCH  20  23
ATOM     23  C   LIG    1        4.579  -4.998   1.572  0.00  0.00    +0.170 A 
ATOM     24  C   LIG    1        4.675  -4.787   2.941  0.00  0.00    +0.010 A 
ATOM     25  C   LIG    1        4.789  -5.865   3.798  0.00  0.00    +0.090 A 
ATOM     26  C   LIG    1        4.819  -7.152   3.292  0.00  0.00    -0.100 A 
ATOM     27  C   LIG    1        4.729  -7.365   1.928  0.00  0.00    +0.090 A 
ATOM     28 BR   LIG    1        4.984  -8.624   4.468  0.00  0.00    -0.040 Br
ATOM     29  C   LIG    1        4.609  -6.291   1.067  0.00  0.00    +0.040 A 
ENDBRANCH  20  23
ENDBRANCH  17  18
ENDBRANCH   3  17
TORSDOF 5
