REMARK  Name = ZINCrD000000Bvzn.1
REMARK                            x       y       z     vdW  Elec       q    Type
REMARK                         _______ _______ _______ _____ _____    ______ ____
ROOT
ATOM      1  O   LIG    1       -2.979  -5.471   0.703  0.00  0.00    -0.510 OA
ATOM      2  C   LIG    1       -2.519  -4.827   1.627  0.00  0.00    +0.610 C 
ATOM      3  N   LIG    1       -1.764  -3.739   1.379  0.00  0.00    -0.710 N 
ATOM      4  H   LIG    1       -1.397  -3.225   2.116  0.00  0.00    +0.410 HD
ENDROOT
BRANCH   2   5
ATOM      5  C   LIG    1       -2.787  -5.239   3.019  0.00  0.00    -0.030 A 
ATOM      6  N   LIG    1       -2.357  -4.653   4.125  0.00  0.00    -0.240 NA
ATOM      7  N   LIG    1       -2.804  -5.305   5.139  0.00  0.00    -0.230 N 
ATOM      8  H   LIG    1       -2.628  -5.068   6.062  0.00  0.00    +0.480 HD
ATOM      9  N   LIG    1       -3.511  -6.314   4.772  0.00  0.00    -0.270 NA
ATOM     10  C   LIG    1       -3.554  -6.350   3.454  0.00  0.00    +0.110 A 
BRANCH  10  11
ATOM     11  C   LIG    1       -4.257  -7.344   2.606  0.00  0.00    -0.030 A 
ATOM     12  C   LIG    1       -4.845  -6.948   1.406  0.00  0.00    +0.080 A 
ATOM     13  C   LIG    1       -5.492  -7.878   0.618  0.00  0.00    +0.000 A 
ATOM     14  C   LIG    1       -5.568  -9.198   1.022  0.00  0.00    +0.020 A 
ATOM     15  C   LIG    1       -4.991  -9.596   2.215  0.00  0.00    +0.000 A 
ATOM     16  C   LIG    1       -4.336  -8.675   3.008  0.00  0.00    +0.030 A 
ENDBRANCH  10  11
ENDBRANCH   2   5
BRANCH   3  17
ATOM     17  C   LIG    1       -1.498  -3.330  -0.002  0.00  0.00    +0.370 C 
BRANCH  17  18
ATOM     18  C   LIG    1       -0.637  -2.093  -0.003  0.00  0.00    -0.250 A 
ATOM     19  C   LIG    1       -1.080  -0.815   0.013  0.00  0.00    +0.260 A 
ATOM     20  N   LIG    1        0.002  -0.004   0.002  0.00  0.00    -0.320 N 
ATOM     21  N   LIG    1        1.146  -0.813  -0.013  0.00  0.00    -0.280 NA
ATOM     22  C   LIG    1        0.762  -2.064  -0.016  0.00  0.00    +0.270 A 
BRANCH  20  23
ATOM     23  C   LIG    1       -0.017   1.398   0.010  0.00  0.00    +0.170 A 
ATOM     24  C   LIG    1       -1.228   2.077   0.019  0.00  0.00    +0.000 A 
ATOM     25  C   LIG    1       -1.244   3.458   0.031  0.00  0.00    +0.090 A 
ATOM     26  C   LIG    1       -0.054   4.165   0.024  0.00  0.00    -0.100 A 
ATOM     27  C   LIG    1        1.154   3.490   0.009  0.00  0.00    +0.080 A 
ATOM     28 BR   LIG    1       -0.080   6.055   0.033  0.00  0.00    -0.040 Br
ATOM     29  C   LIG    1        1.175   2.110   0.002  0.00  0.00    +0.040 A 
ENDBRANCH  20  23
ENDBRANCH  17  18
ENDBRANCH   3  17
TORSDOF 5
