REMARK  Name = ZINCrH00000No55J.1
REMARK                            x       y       z     vdW  Elec       q    Type
REMARK                         _______ _______ _______ _____ _____    ______ ____
ROOT
ATOM      1  C   LIG    1       -0.998   3.572  -0.098  0.00  0.00    +0.300 C 
ENDROOT
BRANCH   1   2
ATOM      2  C   LIG    1       -1.117   4.029  -1.553  0.00  0.00    +0.150 C 
ATOM      3  C   LIG    1       -1.090   5.557  -1.611  0.00  0.00    +0.070 C 
ATOM      4  C   LIG    1       -1.208   6.010  -3.069  0.00  0.00    +0.040 C 
ATOM      5  C   LIG    1       -2.491   5.428  -3.671  0.00  0.00    +0.060 C 
ATOM      6  C   LIG    1       -2.466   3.905  -3.537  0.00  0.00    +0.250 C 
ATOM      7  N   LIG    1       -2.379   3.536  -2.118  0.00  0.00    -0.380 N 
ATOM      8  H   LIG    1       -3.153   3.945  -1.617  0.00  0.00    +0.420 HD
BRANCH   7   9
ATOM      9  C   LIG    1       -2.434   2.074  -1.990  0.00  0.00    +0.320 C 
BRANCH   9  10
ATOM     10  C   LIG    1       -3.771   1.577  -2.475  0.00  0.00    -0.160 A 
ATOM     11  C   LIG    1       -4.858   1.572  -1.621  0.00  0.00    +0.030 A 
ATOM     12  C   LIG    1       -6.086   1.121  -2.068  0.00  0.00    +0.030 A 
ATOM     13  C   LIG    1       -6.224   0.664  -3.365  0.00  0.00    +0.040 A 
ATOM     14  C   LIG    1       -5.136   0.664  -4.218  0.00  0.00    +0.030 A 
ATOM     15  C   LIG    1       -3.909   1.120  -3.772  0.00  0.00    +0.040 A 
ENDBRANCH   9  10
ENDBRANCH   7   9
ENDBRANCH   1   2
BRANCH   1  17
ATOM     16  C   LIG    1        1.493   3.217   0.226  0.00  0.00    +0.300 C 
ATOM     17  N   LIG    1        0.286   4.016   0.451  0.00  0.00    -0.620 N 
ATOM     18  C   LIG    1        0.356   5.159   1.161  0.00  0.00    +0.520 C 
ATOM     19  O   LIG    1       -0.642   5.822   1.343  0.00  0.00    -0.520 OA
BRANCH  18  20
ATOM     20  C   LIG    1        1.677   5.615   1.725  0.00  0.00    +0.080 C 
BRANCH  20  21
ATOM     21  C   LIG    1        1.483   6.933   2.477  0.00  0.00    +0.130 C 
BRANCH  21  22
ATOM     22  S   LIG    1        3.073   7.483   3.155  0.00  0.00    -0.130 S 
BRANCH  22  23
ATOM     23  S   LIG    1        4.126   8.023   1.482  0.00  0.00    -0.190 S 
BRANCH  23  24
ATOM     24  C   LIG    1        3.591   9.733   1.197  0.00  0.00    +0.150 C 
BRANCH  24  25
ATOM     25  C   LIG    1        4.159  10.635   2.295  0.00  0.00    -0.050 C 
BRANCH  25  26
ATOM     26  C   LIG    1        3.714  12.055   2.058  0.00  0.00    +0.500 C 
ATOM     27  O   LIG    1        4.060  12.938   2.824  0.00  0.00    -0.690 OA
ATOM     28  O   LIG    1        3.008  12.321   1.100  0.00  0.00    -0.700 OA
ENDBRANCH  25  26
ENDBRANCH  24  25
ENDBRANCH  23  24
ENDBRANCH  22  23
ENDBRANCH  21  22
ENDBRANCH  20  21
ENDBRANCH  18  20
ENDBRANCH   1  17
TORSDOF 11
