REMARK  Name = ZINCrH00000No55J.0
REMARK                            x       y       z     vdW  Elec       q    Type
REMARK                         _______ _______ _______ _____ _____    ______ ____
ROOT
ATOM      1  C   LIG    1       -0.774   3.044   1.313  0.00  0.00    +0.300 C 
ENDROOT
BRANCH   1   2
ATOM      2  C   LIG    1       -0.750   1.544   1.613  0.00  0.00    +0.150 C 
ATOM      3  C   LIG    1       -0.026   0.809   0.483  0.00  0.00    +0.060 C 
ATOM      4  C   LIG    1       -0.766   1.055  -0.835  0.00  0.00    +0.040 C 
ATOM      5  C   LIG    1       -2.221   0.599  -0.685  0.00  0.00    +0.060 C 
ATOM      6  C   LIG    1       -2.864   1.341   0.488  0.00  0.00    +0.240 C 
ATOM      7  N   LIG    1       -2.127   1.045   1.722  0.00  0.00    -0.370 N 
ATOM      8  H   LIG    1       -2.110   0.047   1.871  0.00  0.00    +0.420 HD
BRANCH   7   9
ATOM      9  C   LIG    1       -2.794   1.696   2.857  0.00  0.00    +0.320 C 
BRANCH   9  10
ATOM     10  C   LIG    1       -4.159   1.088   3.055  0.00  0.00    -0.160 A 
ATOM     11  C   LIG    1       -5.260   1.645   2.433  0.00  0.00    +0.030 A 
ATOM     12  C   LIG    1       -6.511   1.085   2.611  0.00  0.00    +0.030 A 
ATOM     13  C   LIG    1       -6.662  -0.027   3.418  0.00  0.00    +0.040 A 
ATOM     14  C   LIG    1       -5.561  -0.581   4.044  0.00  0.00    +0.030 A 
ATOM     15  C   LIG    1       -4.309  -0.024   3.863  0.00  0.00    +0.040 A 
ENDBRANCH   9  10
ENDBRANCH   7   9
ENDBRANCH   1   2
BRANCH   1  17
ATOM     16  C   LIG    1        1.352   3.714   0.101  0.00  0.00    +0.300 C 
ATOM     17  N   LIG    1        0.592   3.570   1.345  0.00  0.00    -0.620 N 
ATOM     18  C   LIG    1        1.151   3.923   2.520  0.00  0.00    +0.520 C 
ATOM     19  O   LIG    1        0.557   3.721   3.559  0.00  0.00    -0.530 OA
BRANCH  18  20
ATOM     20  C   LIG    1        2.512   4.568   2.544  0.00  0.00    +0.080 C 
BRANCH  20  21
ATOM     21  C   LIG    1        2.955   4.771   3.994  0.00  0.00    +0.130 C 
BRANCH  21  22
ATOM     22  S   LIG    1        4.532   5.668   4.025  0.00  0.00    -0.140 S 
BRANCH  22  23
ATOM     23  S   LIG    1        4.004   7.549   3.405  0.00  0.00    -0.180 S 
BRANCH  23  24
ATOM     24  C   LIG    1        3.455   8.345   4.940  0.00  0.00    +0.160 C 
BRANCH  24  25
ATOM     25  C   LIG    1        4.661   8.584   5.851  0.00  0.00    -0.040 C 
BRANCH  25  26
ATOM     26  C   LIG    1        4.204   9.245   7.126  0.00  0.00    +0.500 C 
ATOM     27  O   LIG    1        5.015   9.524   7.992  0.00  0.00    -0.690 OA
ATOM     28  O   LIG    1        3.024   9.501   7.291  0.00  0.00    -0.700 OA
ENDBRANCH  25  26
ENDBRANCH  24  25
ENDBRANCH  23  24
ENDBRANCH  22  23
ENDBRANCH  21  22
ENDBRANCH  20  21
ENDBRANCH  18  20
ENDBRANCH   1  17
TORSDOF 11
