REMARK  Name = ZINCpk00000xIkqF.0
REMARK                            x       y       z     vdW  Elec       q    Type
REMARK                         _______ _______ _______ _____ _____    ______ ____
ROOT
ATOM      1  C   LIG    1        0.724  -1.955   1.242  0.00  0.00    +0.200 C 
ENDROOT
BRANCH   1   3
ATOM      2  O   LIG    1        2.414  -1.623   2.856  0.00  0.00    -0.510 OA
ATOM      3  C   LIG    1        1.777  -2.428   2.211  0.00  0.00    +0.510 C 
ATOM      4  N   LIG    1        2.009  -3.747   2.362  0.00  0.00    -0.610 N 
ATOM      5  C   LIG    1        1.216  -4.702   1.563  0.00  0.00    +0.260 C 
ATOM      6  C   LIG    1        2.079  -5.846   1.001  0.00  0.00    +0.020 C 
ATOM      7  C   LIG    1        3.406  -5.309   0.524  0.00  0.00    +0.030 C 
ATOM      8  C   LIG    1        4.423  -5.392   1.658  0.00  0.00    +0.000 C 
ATOM      9  C   LIG    1        4.395  -4.247   2.582  0.00  0.00    -0.020 C 
ATOM     10  C   LIG    1        3.030  -4.169   3.296  0.00  0.00    +0.290 C 
BRANCH   9  11
ATOM     11  C   LIG    1        5.502  -4.412   3.625  0.00  0.00    +0.180 C 
BRANCH  11  12
ATOM     12  O   LIG    1        5.554  -3.248   4.452  0.00  0.00    -0.570 OA
ATOM     13  H   LIG    1        6.234  -3.283   5.138  0.00  0.00    +0.380 HD
ENDBRANCH  11  12
ENDBRANCH   9  11
ENDBRANCH   1   3
BRANCH   1  14
ATOM     14  N   LIG    1        0.560  -0.501   1.369  0.00  0.00    -0.520 NA
ATOM     15  C   LIG    1        0.002  -0.146   2.681  0.00  0.00    +0.190 C 
ATOM     16  C   LIG    1       -0.078   1.377   2.803  0.00  0.00    +0.190 C 
ATOM     17  N   LIG    1       -0.913   1.910   1.718  0.00  0.00    -0.530 NA
ATOM     18  C   LIG    1       -0.355   1.555   0.405  0.00  0.00    +0.190 C 
ATOM     19  C   LIG    1       -0.275   0.032   0.283  0.00  0.00    +0.180 C 
BRANCH  17  20
ATOM     20  C   LIG    1       -1.077   3.364   1.845  0.00  0.00    +0.220 C 
BRANCH  20  21
ATOM     21  C   LIG    1       -1.723   3.908   0.596  0.00  0.00    -0.080 A 
ATOM     22  C   LIG    1       -0.939   4.327  -0.462  0.00  0.00    +0.010 A 
ATOM     23  C   LIG    1       -1.532   4.822  -1.608  0.00  0.00    +0.000 A 
ATOM     24  C   LIG    1       -2.909   4.905  -1.694  0.00  0.00    +0.000 A 
ATOM     25  C   LIG    1       -3.693   4.491  -0.633  0.00  0.00    +0.000 A 
ATOM     26  C   LIG    1       -3.101   3.993   0.512  0.00  0.00    +0.020 A 
ENDBRANCH  20  21
ENDBRANCH  17  20
ENDBRANCH   1  14
TORSDOF 6
