REMARK  Name = ZINCc70000005NAn.0
REMARK                            x       y       z     vdW  Elec       q    Type
REMARK                         _______ _______ _______ _____ _____    ______ ____
ROOT
ATOM      1  C   LIG    1       -1.098   0.833   3.499  0.00  0.00    +0.100 C 
ATOM      2  C   LIG    1       -2.435   1.157   2.794  0.00  0.00    +0.050 C 
ATOM      3  C   LIG    1       -2.079   1.013   1.293  0.00  0.00    +0.170 C 
ATOM      4  N   LIG    1       -0.700   1.560   1.217  0.00  0.00    -0.520 NA
ATOM      5  C   LIG    1       -0.013   1.086   0.008  0.00  0.00    +0.190 C 
ATOM      6  F   LIG    1       -1.074  -0.506   3.906  0.00  0.00    -0.200 F 
ATOM      7  C   LIG    1       -0.012   1.088   2.438  0.00  0.00    +0.170 C 
ENDROOT
BRANCH   1   8
ATOM      8  C   LIG    1       -0.893   1.756   4.701  0.00  0.00    +0.280 C 
BRANCH   8  11
ATOM      9  C   LIG    1        2.145   1.892   7.027  0.00  0.00    +0.110 C 
ATOM     10  C   LIG    1        0.806   2.177   6.396  0.00  0.00    +0.510 C 
ATOM     11  N   LIG    1        0.408   1.479   5.314  0.00  0.00    -0.730 N 
ATOM     12  H   LIG    1        0.984   0.793   4.941  0.00  0.00    +0.400 HD
ATOM     13  O   LIG    1        0.086   3.035   6.863  0.00  0.00    -0.540 OA
ENDBRANCH   8  11
ENDBRANCH   1   8
TORSDOF 2
