REMARK  Name = ZINCrH000004qncA.0
REMARK                            x       y       z     vdW  Elec       q    Type
REMARK                         _______ _______ _______ _____ _____    ______ ____
ROOT
ATOM      1  C   LIG    1       -0.013   1.086   0.008  0.00  0.00    +0.130 C 
ATOM      2  C   LIG    1       -0.718   1.572   1.248  0.00  0.00    +0.020 A 
ATOM      3  C   LIG    1       -0.129   1.833   2.427  0.00  0.00    +0.000 A 
ATOM      4  C   LIG    1       -1.196   2.277   3.334  0.00  0.00    -0.260 A 
ATOM      5  C   LIG    1       -2.363   2.240   2.594  0.00  0.00    +0.130 A 
ATOM      6  C   LIG    1       -3.738   2.608   3.090  0.00  0.00    +0.150 C 
ATOM      7  N   LIG    1       -2.058   1.822   1.350  0.00  0.00    -0.390 N 
ENDROOT
BRANCH   7   8
ATOM      8  C   LIG    1       -2.984   1.664   0.309  0.00  0.00    +0.080 A 
ATOM      9  C   LIG    1       -3.650   2.770  -0.202  0.00  0.00    +0.070 A 
ATOM     10  C   LIG    1       -4.558   2.614  -1.231  0.00  0.00    -0.040 A 
ATOM     11  C   LIG    1       -4.812   1.352  -1.747  0.00  0.00    +0.120 A 
ATOM     12  C   LIG    1       -4.151   0.246  -1.233  0.00  0.00    +0.030 A 
ATOM     13  C   LIG    1       -3.239   0.401  -0.208  0.00  0.00    +0.070 A 
BRANCH  11  14
ATOM     14  O   LIG    1       -5.710   1.198  -2.756  0.00  0.00    -0.320 OA
BRANCH  14  15
ATOM     15  C   LIG    1       -6.354   2.380  -3.236  0.00  0.00    +0.600 C 
ATOM     16  F   LIG    1       -5.392   3.271  -3.722  0.00  0.00    -0.200 F 
ATOM     17  F   LIG    1       -7.063   2.982  -2.191  0.00  0.00    -0.200 F 
ENDBRANCH  14  15
ENDBRANCH  11  14
ENDBRANCH   7   8
BRANCH   4  18
ATOM     18  C   LIG    1       -1.053   2.676   4.736  0.00  0.00    +0.420 C 
ATOM     19  O   LIG    1       -2.028   3.022   5.371  0.00  0.00    -0.460 OA
BRANCH  18  20
ATOM     20  C   LIG    1        0.304   2.656   5.390  0.00  0.00    +0.300 C 
BRANCH  20  21
ATOM     21  N   LIG    1        0.182   3.095   6.782  0.00  0.00    -0.490 N 
ATOM     22  C   LIG    1       -0.052   2.178   7.756  0.00  0.00    +0.300 A 
ATOM     23  C   LIG    1       -0.170   2.559   9.050  0.00  0.00    -0.080 A 
ATOM     24  C   LIG    1       -0.049   3.913   9.394  0.00  0.00    +0.120 A 
ATOM     25  C   LIG    1        0.186   4.832   8.415  0.00  0.00    -0.090 A 
ATOM     26  C   LIG    1        0.308   4.401   7.082  0.00  0.00    +0.520 A 
ATOM     27  O   LIG    1        0.524   5.213   6.196  0.00  0.00    -0.550 OA
ENDBRANCH  20  21
ENDBRANCH  18  20
ENDBRANCH   4  18
TORSDOF 6
