REMARK  Name = ZINCrH00000No4Zc.0
REMARK                            x       y       z     vdW  Elec       q    Type
REMARK                         _______ _______ _______ _____ _____    ______ ____
ROOT
ATOM      1  S   LIG    1        1.092   4.250  -0.067  0.00  0.00    +2.670 S 
ATOM      2  O   LIG    1       -0.152   4.656  -0.621  0.00  0.00    -0.960 OA
ATOM      3  O   LIG    1        2.341   4.774  -0.496  0.00  0.00    -0.920 OA
ENDROOT
BRANCH   1   4
ATOM      4  N   LIG    1        0.997   4.540   1.560  0.00  0.00    -0.980 NA
ATOM      5  C   LIG    1       -0.309   4.681   2.220  0.00  0.00    +0.240 C 
ATOM      6  C   LIG    1       -0.336   5.999   2.992  0.00  0.00    +0.020 C 
ATOM      7  C   LIG    1        0.860   6.054   3.946  0.00  0.00    +0.020 C 
ATOM      8  C   LIG    1        2.160   5.990   3.140  0.00  0.00    +0.020 C 
ATOM      9  C   LIG    1       -0.521   3.518   3.191  0.00  0.00    +0.030 C 
ATOM     10  C   LIG    1        2.215   4.667   2.371  0.00  0.00    +0.290 C 
BRANCH  10  11
ATOM     11  C   LIG    1        3.424   4.655   1.471  0.00  0.00    -0.110 A 
ATOM     12  C   LIG    1        4.091   3.470   1.224  0.00  0.00    +0.000 A 
ATOM     13  C   LIG    1        5.196   3.459   0.394  0.00  0.00    -0.010 A 
ATOM     14  C   LIG    1        5.642   4.635  -0.179  0.00  0.00    +0.020 A 
ATOM     15  C   LIG    1        4.979   5.822   0.072  0.00  0.00    +0.010 A 
ATOM     16  C   LIG    1        3.869   5.832   0.897  0.00  0.00    +0.080 A 
ENDBRANCH  10  11
ENDBRANCH   1   4
BRANCH   1  20
ATOM     17  C   LIG    1        1.333  -0.237  -0.619  0.00  0.00    -0.610 A 
ATOM     18  C   LIG    1        0.108   0.369  -0.412  0.00  0.00    +0.100 A 
ATOM     19  C   LIG    1        0.034   1.740  -0.244  0.00  0.00    +0.110 A 
ATOM     20  C   LIG    1        1.186   2.503  -0.281  0.00  0.00    -0.630 A 
ATOM     21  C   LIG    1        2.411   1.897  -0.488  0.00  0.00    +0.110 A 
ATOM     22  C   LIG    1        2.485   0.527  -0.656  0.00  0.00    +0.100 A 
BRANCH  17  23
ATOM     23  S   LIG    1        1.427  -1.983  -0.833  0.00  0.00    +2.490 S 
ATOM     24  O   LIG    1        0.284  -2.482  -0.152  0.00  0.00    -0.930 OA
ATOM     25  O   LIG    1        2.739  -2.319  -0.405  0.00  0.00    -0.930 OA
BRANCH  23  27
ATOM     26  C   LIG    1        1.325  -3.724  -2.940  0.00  0.00    +0.100 C 
ATOM     27  C   LIG    1        1.259  -2.229  -2.622  0.00  0.00    -0.320 C 
ENDBRANCH  23  27
ENDBRANCH  17  23
ENDBRANCH   1  20
TORSDOF 5
