REMARK  Name = ZINCqH0000007KRJ.0
REMARK                            x       y       z     vdW  Elec       q    Type
REMARK                         _______ _______ _______ _____ _____    ______ ____
ROOT
ATOM      1  C   LIG    1       -3.202  -0.313   1.431  0.00  0.00    +0.370 C 
ATOM      2  O   LIG    1       -2.856   0.393   2.347  0.00  0.00    -0.380 OA
ENDROOT
BRANCH   1   3
ATOM      3  C   LIG    1       -3.154   0.208   0.018  0.00  0.00    +0.150 C 
BRANCH   3   6
ATOM      4  C   LIG    1       -0.016   1.355   0.009  0.00  0.00    +0.180 A 
ATOM      5  C   LIG    1       -1.236   2.043   0.019  0.00  0.00    -0.120 A 
ATOM      6  C   LIG    1       -2.640   1.625   0.023  0.00  0.00    -0.150 A 
ATOM      7  C   LIG    1       -3.382   2.744   0.032  0.00  0.00    +0.230 A 
ATOM      8  N   LIG    1       -2.566   3.844   0.047  0.00  0.00    -0.590 N 
ATOM      9  H   LIG    1       -2.872   4.764   0.054  0.00  0.00    +0.420 HD
ATOM     10  C   LIG    1       -1.247   3.448   0.032  0.00  0.00    +0.130 A 
ATOM     11  C   LIG    1       -0.041   4.143   0.023  0.00  0.00    -0.050 A 
ATOM     12  C   LIG    1        1.151   3.454   0.009  0.00  0.00    +0.070 A 
ATOM     13  C   LIG    1        1.168   2.066   0.002  0.00  0.00    -0.110 A 
BRANCH   4  15
ATOM     14  C   LIG    1        1.284  -0.635  -0.014  0.00  0.00    +0.250 C 
ATOM     15  O   LIG    1        0.002  -0.004   0.002  0.00  0.00    -0.310 OA
ENDBRANCH   4  15
ENDBRANCH   3   6
ENDBRANCH   1   3
BRANCH   1  16
ATOM     16  C   LIG    1       -3.684  -1.716   1.700  0.00  0.00    +0.230 C 
BRANCH  16  17
ATOM     17  C   LIG    1       -3.093  -2.210   2.995  0.00  0.00    +0.240 A 
ATOM     18  N   LIG    1       -3.268  -1.648   4.153  0.00  0.00    -0.430 NA
ATOM     19  C   LIG    1       -2.594  -2.363   5.094  0.00  0.00    +0.020 A 
ATOM     20  C   LIG    1       -2.430  -2.231   6.474  0.00  0.00    +0.090 A 
ATOM     21  C   LIG    1       -1.657  -3.142   7.160  0.00  0.00    +0.020 A 
ATOM     22  C   LIG    1       -1.041  -4.187   6.488  0.00  0.00    +0.060 A 
ATOM     23  C   LIG    1       -1.195  -4.330   5.125  0.00  0.00    +0.050 A 
ATOM     24  C   LIG    1       -1.969  -3.422   4.418  0.00  0.00    +0.020 A 
ATOM     25  O   LIG    1       -2.305  -3.290   3.116  0.00  0.00    -0.200 OA
ENDBRANCH  16  17
BRANCH  16  26
ATOM     26  C   LIG    1       -5.152  -1.720   1.798  0.00  0.00    +0.210 C 
ATOM     27  N   LIG    1       -6.286  -1.723   1.873  0.00  0.00    -0.370 NA
ENDBRANCH  16  26
ENDBRANCH   1  16
TORSDOF 6
