REMARK  Name = ZINCrg000000sCBi.0
REMARK                            x       y       z     vdW  Elec       q    Type
REMARK                         _______ _______ _______ _____ _____    ______ ____
ROOT
ATOM      1  C   LIG    1        2.797   4.627  -1.420  0.00  0.00    +0.520 C 
ATOM      2  N   LIG    1        3.907   5.349  -1.673  0.00  0.00    -0.600 N 
ATOM      3  O   LIG    1        2.128   4.204  -2.338  0.00  0.00    -0.500 OA
ENDROOT
BRANCH   1   4
ATOM      4  C   LIG    1        2.389   4.346   0.003  0.00  0.00    +0.360 C 
BRANCH   4  10
ATOM      5  C   LIG    1       -2.457   4.217   0.047  0.00  0.00    +0.360 C 
ATOM      6  N   LIG    1       -1.190   3.482   0.032  0.00  0.00    -0.520 N 
ATOM      7  C   LIG    1       -1.211   2.122   0.019  0.00  0.00    +0.450 A 
ATOM      8  C   LIG    1       -0.017   1.428   0.010  0.00  0.00    -0.200 A 
ATOM      9  C   LIG    1        1.234   2.202   0.002  0.00  0.00    +0.570 A 
ATOM     10  N   LIG    1        1.160   3.549   0.010  0.00  0.00    -0.530 N 
ATOM     11  O   LIG    1        2.313   1.639  -0.011  0.00  0.00    -0.480 OA
ATOM     12  C   LIG    1       -0.035   4.165   0.025  0.00  0.00    +0.700 A 
ATOM     13  O   LIG    1       -0.070   5.380   0.032  0.00  0.00    -0.520 OA
BRANCH   8  14
ATOM     14  C   LIG    1        0.002  -0.004   0.002  0.00  0.00    +0.280 C 
ATOM     15  N   LIG    1        0.018  -1.140  -0.004  0.00  0.00    -0.400 NA
ENDBRANCH   8  14
ENDBRANCH   4  10
ENDBRANCH   1   4
BRANCH   2  16
ATOM     16  C   LIG    1        4.716   5.861  -0.564  0.00  0.00    +0.330 C 
BRANCH  16  17
ATOM     17  C   LIG    1        5.782   4.829  -0.191  0.00  0.00    +0.430 C 
ATOM     18  F   LIG    1        5.162   3.637   0.196  0.00  0.00    -0.170 F 
ATOM     19  F   LIG    1        6.555   5.318   0.868  0.00  0.00    -0.180 F 
ATOM     20  F   LIG    1        6.605   4.589  -1.297  0.00  0.00    -0.180 F 
ENDBRANCH  16  17
ENDBRANCH   2  16
BRANCH   2  21
ATOM     21  C   LIG    1        4.304   5.623  -3.056  0.00  0.00    +0.350 C 
BRANCH  21  22
ATOM     22  C   LIG    1        3.667   6.909  -3.517  0.00  0.00    -0.110 A 
ATOM     23  C   LIG    1        2.427   6.886  -4.127  0.00  0.00    +0.040 A 
ATOM     24  C   LIG    1        1.841   8.066  -4.545  0.00  0.00    +0.000 A 
ATOM     25  C   LIG    1        2.500   9.267  -4.363  0.00  0.00    +0.010 A 
ATOM     26  C   LIG    1        3.742   9.290  -3.758  0.00  0.00    +0.000 A 
ATOM     27  C   LIG    1        4.326   8.110  -3.334  0.00  0.00    +0.010 A 
ENDBRANCH  21  22
ENDBRANCH   2  21
TORSDOF 7
