REMARK  Name = ZINCqH0000036QzL.0
REMARK                            x       y       z     vdW  Elec       q    Type
REMARK                         _______ _______ _______ _____ _____    ______ ____
ROOT
ATOM      1  C   LIG    1        8.710  -3.723   3.278  0.00  0.00    +0.070 C 
ATOM      2  C   LIG    1        7.857  -3.850   2.014  0.00  0.00    +0.030 C 
ATOM      3  C   LIG    1        7.942  -2.557   1.217  0.00  0.00    +0.030 C 
ATOM      4  C   LIG    1        7.368  -2.615  -0.179  0.00  0.00    +0.300 C 
ATOM      5  N   LIG    1        5.907  -2.785  -0.142  0.00  0.00    -0.560 N 
ATOM      6  C   LIG    1        5.389  -4.087  -0.137  0.00  0.00    +0.150 A 
ATOM      7  C   LIG    1        4.779  -4.588  -1.280  0.00  0.00    +0.010 A 
ATOM      8  C   LIG    1        4.312  -5.890  -1.294  0.00  0.00    +0.040 A 
ATOM      9  C   LIG    1        4.449  -6.701  -0.182  0.00  0.00    +0.030 A 
ATOM     10  C   LIG    1        5.040  -6.204   0.969  0.00  0.00    +0.080 A 
ATOM     11  C   LIG    1        5.482  -4.895   0.987  0.00  0.00    -0.100 A 
ATOM     12  C   LIG    1        5.088  -1.715  -0.118  0.00  0.00    +0.550 C 
ATOM     13  O   LIG    1        5.552  -0.595  -0.123  0.00  0.00    -0.510 OA
ATOM     14  S   LIG    1        6.135  -4.186   2.480  0.00  0.00    -0.140 S 
ENDROOT
BRANCH  12  15
ATOM     15  C   LIG    1        3.594  -1.911  -0.086  0.00  0.00    +0.110 C 
BRANCH  15  16
ATOM     16  S   LIG    1        2.774  -0.298  -0.060  0.00  0.00    +0.110 S 
BRANCH  16  17
ATOM     17  C   LIG    1        1.089  -0.811  -0.026  0.00  0.00    +0.200 A 
ATOM     18  N   LIG    1        0.649  -2.051  -0.022  0.00  0.00    -0.340 NA
ATOM     19  N   LIG    1       -0.634  -2.074   0.006  0.00  0.00    -0.030 NA
ATOM     20  N   LIG    1       -1.103  -0.873   0.028  0.00  0.00    -0.070 NA
ATOM     21  N   LIG    1        0.002  -0.004   0.002  0.00  0.00    -0.350 N 
BRANCH  21  22
ATOM     22  C   LIG    1       -0.018   1.461   0.010  0.00  0.00    +0.260 C 
ATOM     23  C   LIG    1       -0.768   1.972   1.257  0.00  0.00    +0.040 C 
ATOM     24  C   LIG    1       -1.536   3.220   0.752  0.00  0.00    +0.040 C 
ATOM     25  C   LIG    1       -1.983   2.796  -0.668  0.00  0.00    +0.030 C 
ATOM     26  C   LIG    1       -0.790   1.984  -1.214  0.00  0.00    +0.040 C 
ENDBRANCH  21  22
ENDBRANCH  16  17
ENDBRANCH  15  16
ENDBRANCH  12  15
TORSDOF 4
