REMARK  Name = ZINCqH0000001lDR.0
REMARK                            x       y       z     vdW  Elec       q    Type
REMARK                         _______ _______ _______ _____ _____    ______ ____
ROOT
ATOM      1  C   LIG    1        5.502   4.529   0.427  0.00  0.00    +0.240 C 
ENDROOT
BRANCH   1   2
ATOM      2  C   LIG    1        6.713   4.020  -0.311  0.00  0.00    +0.530 C 
ATOM      3  N   LIG    1        7.943   4.447   0.037  0.00  0.00    -0.610 N 
ATOM      4  C   LIG    1        8.136   5.346   1.186  0.00  0.00    +0.250 C 
ATOM      5  C   LIG    1        9.231   4.749   2.083  0.00  0.00    +0.150 C 
ATOM      6  O   LIG    1       10.389   4.475   1.291  0.00  0.00    -0.370 OA
ATOM      7  C   LIG    1       10.179   3.504   0.263  0.00  0.00    +0.140 C 
ATOM      8  C   LIG    1       11.494   3.247  -0.474  0.00  0.00    +0.070 C 
ATOM      9  C   LIG    1        9.590   5.750   3.184  0.00  0.00    +0.070 C 
ATOM     10  C   LIG    1        9.133   4.033  -0.724  0.00  0.00    +0.260 C 
ATOM     11  O   LIG    1        6.581   3.226  -1.219  0.00  0.00    -0.530 OA
ENDBRANCH   1   2
BRANCH   1  12
ATOM     12  N   LIG    1        4.288   4.094  -0.268  0.00  0.00    -0.710 N 
ATOM     13  H   LIG    1        4.311   3.311  -0.840  0.00  0.00    +0.410 HD
ATOM     14  C   LIG    1        3.140   4.783  -0.114  0.00  0.00    +0.560 C 
ATOM     15  O   LIG    1        3.087   5.708   0.673  0.00  0.00    -0.510 OA
BRANCH  14  16
ATOM     16  C   LIG    1        1.945   4.413  -0.900  0.00  0.00    -0.130 A 
ATOM     17  C   LIG    1        2.002   3.350  -1.804  0.00  0.00    +0.090 A 
ATOM     18  C   LIG    1        0.884   3.010  -2.535  0.00  0.00    +0.040 A 
ATOM     19  C   LIG    1       -0.293   3.723  -2.379  0.00  0.00    +0.000 A 
ATOM     20  C   LIG    1       -0.359   4.774  -1.480  0.00  0.00    +0.040 A 
ATOM     21 CL   LIG    1       -1.694   3.292  -3.309  0.00  0.00    -0.050 Cl
ATOM     22  C   LIG    1        0.753   5.125  -0.742  0.00  0.00    +0.030 A 
ATOM     23 CL   LIG    1        0.671   6.448   0.379  0.00  0.00    -0.010 Cl
ENDBRANCH  14  16
ENDBRANCH   1  12
BRANCH   1  24
ATOM     24  C   LIG    1        5.501   3.970   1.851  0.00  0.00    +0.040 C 
BRANCH  24  26
ATOM     25  C   LIG    1        6.551   1.798   1.202  0.00  0.00    +0.010 C 
ATOM     26  C   LIG    1        5.307   2.453   1.804  0.00  0.00    -0.020 C 
ATOM     27  C   LIG    1        5.087   1.923   3.223  0.00  0.00    +0.020 C 
ENDBRANCH  24  26
ENDBRANCH   1  24
TORSDOF 5
