REMARK  Name = ZINCrD000000AENq.0
REMARK                            x       y       z     vdW  Elec       q    Type
REMARK                         _______ _______ _______ _____ _____    ______ ____
ROOT
ATOM      1  O   LIG    1       -4.012  -2.759  -0.888  0.00  0.00    -0.510 OA
ATOM      2  C   LIG    1       -3.515  -1.665  -0.721  0.00  0.00    +0.500 C 
ATOM      3  N   LIG    1       -3.269  -0.868  -1.780  0.00  0.00    -0.670 N 
ATOM      4  H   LIG    1       -2.936   0.033  -1.642  0.00  0.00    +0.410 HD
ENDROOT
BRANCH   3   5
ATOM      5  C   LIG    1       -3.494  -1.340  -3.079  0.00  0.00    +0.100 A 
ATOM      6  C   LIG    1       -2.651  -0.957  -4.114  0.00  0.00    +0.030 A 
ATOM      7  C   LIG    1       -2.872  -1.426  -5.394  0.00  0.00    -0.060 A 
ATOM      8  C   LIG    1       -3.941  -2.272  -5.648  0.00  0.00    +0.120 A 
ATOM      9  C   LIG    1       -4.786  -2.652  -4.616  0.00  0.00    -0.010 A 
ATOM     10  C   LIG    1       -4.564  -2.188  -3.335  0.00  0.00    +0.060 A 
BRANCH   8  11
ATOM     11  O   LIG    1       -4.160  -2.730  -6.910  0.00  0.00    -0.310 OA
BRANCH  11  12
ATOM     12  C   LIG    1       -3.186  -2.395  -7.900  0.00  0.00    +0.160 C 
ATOM     13  C   LIG    1       -3.515  -1.023  -8.523  0.00  0.00    +0.000 C 
ATOM     14  C   LIG    1       -3.137  -1.185 -10.017  0.00  0.00    +0.020 C 
ATOM     15  C   LIG    1       -3.579  -2.637 -10.327  0.00  0.00    +0.020 C 
ATOM     16  C   LIG    1       -3.226  -3.421  -9.046  0.00  0.00    +0.040 C 
ENDBRANCH  11  12
ENDBRANCH   8  11
ENDBRANCH   3   5
BRANCH   2  17
ATOM     17  C   LIG    1       -3.172  -1.197   0.670  0.00  0.00    +0.370 C 
BRANCH  17  18
ATOM     18  N   LIG    1       -3.533  -2.236   1.637  0.00  0.00    -0.420 N 
ATOM     19  N   LIG    1       -4.812  -2.229   2.196  0.00  0.00    -0.230 NA
ATOM     20  C   LIG    1       -5.205  -3.117   3.060  0.00  0.00    +0.320 A 
ATOM     21  C   LIG    1       -4.293  -4.179   3.485  0.00  0.00    -0.070 A 
ATOM     22  C   LIG    1       -4.677  -5.152   4.410  0.00  0.00    +0.050 A 
ATOM     23  C   LIG    1       -3.781  -6.132   4.776  0.00  0.00    +0.050 A 
ATOM     24  C   LIG    1       -2.501  -6.162   4.236  0.00  0.00    +0.030 A 
ATOM     25  C   LIG    1       -2.101  -5.213   3.322  0.00  0.00    +0.080 A 
ATOM     26  C   LIG    1       -2.991  -4.212   2.936  0.00  0.00    -0.120 A 
ATOM     27  C   LIG    1       -2.620  -3.174   1.965  0.00  0.00    +0.540 A 
ATOM     28  O   LIG    1       -1.511  -3.164   1.461  0.00  0.00    -0.520 OA
ENDBRANCH  17  18
ENDBRANCH   2  17
TORSDOF 5
