REMARK  Name = ZINCah0000002uF4.0
REMARK                            x       y       z     vdW  Elec       q    Type
REMARK                         _______ _______ _______ _____ _____    ______ ____
ROOT
ATOM      1 CL   LIG    1        1.113  -2.401  -0.021  0.00  0.00    +0.040 Cl
ATOM      2  C   LIG    1        1.144  -0.665  -0.012  0.00  0.00    +0.370 A 
ATOM      3  N   LIG    1        0.002  -0.004   0.002  0.00  0.00    -0.500 NA
ATOM      4  C   LIG    1       -0.016   1.321   0.009  0.00  0.00    +0.380 A 
ATOM      5  C   LIG    1        1.184   2.002   0.002  0.00  0.00    -0.250 A 
ATOM      6  C   LIG    1        1.556   3.463   0.005  0.00  0.00    +0.300 C 
ATOM      7  O   LIG    1        2.937   3.519   0.410  0.00  0.00    -0.350 OA
ATOM      8  C   LIG    1        3.502   2.267  -0.020  0.00  0.00    +0.320 C 
ATOM      9  C   LIG    1        2.366   1.273  -0.013  0.00  0.00    +0.160 A 
ATOM     10  N   LIG    1        2.310  -0.044  -0.020  0.00  0.00    -0.490 NA
ENDROOT
TORSDOF 0
