REMARK  Name = ZINCpk00000jXOMV.0
REMARK                            x       y       z     vdW  Elec       q    Type
REMARK                         _______ _______ _______ _____ _____    ______ ____
ROOT
ATOM      1  N   LIG    1        0.214   1.931  -0.385  0.00  0.00    -0.520 NA
ATOM      2  C   LIG    1       -0.572   2.833   0.446  0.00  0.00    +0.180 C 
ATOM      3  C   LIG    1       -0.300   4.303   0.186  0.00  0.00    +0.020 C 
ATOM      4  C   LIG    1        1.124   4.675   0.609  0.00  0.00    +0.270 C 
ATOM      5  N   LIG    1        2.034   4.375  -0.509  0.00  0.00    -0.720 N 
ATOM      6  H   LIG    1        2.450   5.098  -1.005  0.00  0.00    +0.400 HD
ATOM      7  C   LIG    1        2.285   3.105  -0.840  0.00  0.00    +0.540 C 
ATOM      8  O   LIG    1        3.027   2.857  -1.767  0.00  0.00    -0.540 OA
ATOM      9  C   LIG    1        1.646   1.974  -0.062  0.00  0.00    +0.200 C 
ENDROOT
BRANCH   1  10
ATOM     10  C   LIG    1       -0.302   0.558  -0.305  0.00  0.00    +0.280 C 
BRANCH  10  15
ATOM     11  C   LIG    1       -3.864   0.803   0.607  0.00  0.00    +0.560 A 
ATOM     12  N   LIG    1       -4.497   0.624  -0.543  0.00  0.00    -0.570 NA
ATOM     13  C   LIG    1       -3.821   0.418  -1.661  0.00  0.00    +0.360 A 
ATOM     14  C   LIG    1       -2.436   0.396  -1.620  0.00  0.00    -0.120 A 
ATOM     15  C   LIG    1       -1.806   0.580  -0.399  0.00  0.00    +0.220 A 
ATOM     16  N   LIG    1       -2.541   0.781   0.682  0.00  0.00    -0.560 NA
BRANCH  11  18
ATOM     17  C   LIG    1       -3.920   1.214   3.040  0.00  0.00    +0.300 C 
ATOM     18  N   LIG    1       -4.602   1.016   1.758  0.00  0.00    -0.590 N 
ATOM     19  C   LIG    1       -6.066   1.042   1.696  0.00  0.00    +0.310 C 
ENDBRANCH  11  18
ENDBRANCH  10  15
ENDBRANCH   1  10
BRANCH   9  20
ATOM     20  C   LIG    1        1.827   2.217   1.438  0.00  0.00    +0.060 C 
BRANCH  20  21
ATOM     21  C   LIG    1        1.820   0.897   2.164  0.00  0.00    -0.090 A 
ATOM     22  C   LIG    1        0.660   0.443   2.764  0.00  0.00    +0.010 A 
ATOM     23  C   LIG    1        0.653  -0.770   3.426  0.00  0.00    +0.000 A 
ATOM     24  C   LIG    1        1.809  -1.525   3.498  0.00  0.00    +0.000 A 
ATOM     25  C   LIG    1        2.970  -1.069   2.904  0.00  0.00    +0.000 A 
ATOM     26  C   LIG    1        2.976   0.142   2.237  0.00  0.00    +0.010 A 
ENDBRANCH  20  21
ENDBRANCH   9  20
TORSDOF 5
