REMARK  Name = ZINCrD00000hQ6l8.1
REMARK                            x       y       z     vdW  Elec       q    Type
REMARK                         _______ _______ _______ _____ _____    ______ ____
ROOT
ATOM      1  C   LIG    1       -5.805  -1.064  -3.299  0.00  0.00    -0.160 A 
ATOM      2  C   LIG    1       -6.704  -0.401  -2.462  0.00  0.00    +0.090 A 
ATOM      3  C   LIG    1       -6.245   0.514  -1.535  0.00  0.00    +0.000 A 
ATOM      4  C   LIG    1       -4.896   0.784  -1.425  0.00  0.00    +0.090 A 
ATOM      5  C   LIG    1       -3.979   0.133  -2.253  0.00  0.00    -0.170 A 
ATOM      6  C   LIG    1       -4.434  -0.794  -3.201  0.00  0.00    +0.220 A 
ENDROOT
BRANCH   1  13
ATOM      7  C   LIG    1       -9.916  -3.904  -6.712  0.00  0.00    +0.080 C 
ATOM      8  C   LIG    1       -9.304  -2.898  -5.735  0.00  0.00    +0.020 C 
ATOM      9  S   LIG    1      -10.163  -1.304  -5.884  0.00  0.00    -0.240 S 
ATOM     10  C   LIG    1       -9.186  -0.234  -4.787  0.00  0.00    +0.100 C 
ATOM     11  C   LIG    1       -7.716  -0.298  -5.214  0.00  0.00    +0.290 C 
ATOM     12  N   LIG    1       -7.255  -1.687  -5.168  0.00  0.00    -0.610 N 
ATOM     13  C   LIG    1       -6.298  -2.042  -4.288  0.00  0.00    +0.570 C 
ATOM     14  O   LIG    1       -5.841  -3.169  -4.309  0.00  0.00    -0.520 OA
ATOM     15  C   LIG    1       -7.817  -2.692  -6.071  0.00  0.00    +0.250 C 
ATOM     16  C   LIG    1       -7.679  -2.212  -7.517  0.00  0.00    +0.050 C 
ENDBRANCH   1  13
BRANCH   5  17
ATOM     17  C   LIG    1       -2.537   0.423  -2.135  0.00  0.00    +0.560 C 
ATOM     18  N   LIG    1       -2.000   0.688  -0.927  0.00  0.00    -0.610 N 
ATOM     19  C   LIG    1       -2.824   0.559   0.276  0.00  0.00    +0.290 C 
ATOM     20  C   LIG    1       -2.276  -0.573   1.152  0.00  0.00    +0.110 C 
ATOM     21  S   LIG    1       -0.539  -0.212   1.562  0.00  0.00    -0.250 S 
ATOM     22  C   LIG    1        0.200   0.030  -0.081  0.00  0.00    +0.020 C 
ATOM     23  C   LIG    1        1.652   0.486   0.072  0.00  0.00    +0.090 C 
ATOM     24  C   LIG    1       -0.599   1.100  -0.833  0.00  0.00    +0.240 C 
ATOM     25  C   LIG    1       -0.022   1.273  -2.239  0.00  0.00    +0.060 C 
ATOM     26  O   LIG    1       -1.834   0.424  -3.126  0.00  0.00    -0.490 OA
ENDBRANCH   5  17
BRANCH   6  27
ATOM     27  O   LIG    1       -3.554  -1.427  -4.012  0.00  0.00    -0.470 OA
ATOM     28  H   LIG    1       -3.216  -2.259  -3.654  0.00  0.00    +0.400 HD
ENDBRANCH   6  27
TORSDOF 3
