REMARK  Name = ZINCvU00000007Zn.0
REMARK                            x       y       z     vdW  Elec       q    Type
REMARK                         _______ _______ _______ _____ _____    ______ ____
ROOT
ATOM      1  C   LIG    1       -1.725   5.250   0.047  0.00  0.00    +0.290 A 
ATOM      2  N   LIG    1       -2.232   4.052   0.045  0.00  0.00    -0.480 NA
ATOM      3  C   LIG    1       -1.233   3.133   0.031  0.00  0.00    +0.050 A 
ATOM      4  C   LIG    1       -1.209   1.736   0.017  0.00  0.00    +0.070 A 
ATOM      5  C   LIG    1       -0.013   1.076   0.008  0.00  0.00    +0.000 A 
ATOM      6  C   LIG    1        1.183   1.779   0.000  0.00  0.00    +0.030 A 
ATOM      7  C   LIG    1        1.184   3.158   0.008  0.00  0.00    +0.010 A 
ATOM      8  C   LIG    1       -0.022   3.845   0.023  0.00  0.00    +0.050 A 
ATOM      9  N   LIG    1       -0.366   5.182   0.033  0.00  0.00    -0.480 N 
ENDROOT
BRANCH   1  12
ATOM     10  N   LIG    1       -4.710   7.237  -0.629  0.00  0.00    -0.620 N 
ATOM     11  C   LIG    1       -3.498   6.583  -1.138  0.00  0.00    +0.290 C 
ATOM     12  C   LIG    1       -2.526   6.527   0.061  0.00  0.00    +0.080 C 
ATOM     13  C   LIG    1       -3.501   6.554   1.261  0.00  0.00    +0.090 C 
ATOM     14  C   LIG    1       -4.740   7.230   0.715  0.00  0.00    +0.520 C 
ATOM     15  O   LIG    1       -5.632   7.697   1.391  0.00  0.00    -0.520 OA
BRANCH  10  16
ATOM     16  C   LIG    1       -5.752   7.821  -1.477  0.00  0.00    +0.290 C 
BRANCH  16  17
ATOM     17  C   LIG    1       -6.806   6.759  -1.794  0.00  0.00    +0.000 C 
BRANCH  17  19
ATOM     18  C   LIG    1       -8.949   6.307  -2.996  0.00  0.00    +0.010 C 
ATOM     19  C   LIG    1       -7.895   7.369  -2.679  0.00  0.00    +0.000 C 
ENDBRANCH  17  19
ENDBRANCH  16  17
ENDBRANCH  10  16
ENDBRANCH   1  12
BRANCH   9  20
ATOM     20  C   LIG    1        0.559   6.317   0.030  0.00  0.00    +0.310 C 
BRANCH  20  21
ATOM     21  C   LIG    1        0.868   6.720  -1.413  0.00  0.00    +0.020 C 
BRANCH  21  22
ATOM     22  C   LIG    1        1.835   7.906  -1.417  0.00  0.00    +0.200 C 
BRANCH  22  23
ATOM     23  O   LIG    1        2.123   8.281  -2.765  0.00  0.00    -0.310 OA
BRANCH  23  24
ATOM     24  C   LIG    1        2.973   9.326  -2.946  0.00  0.00    +0.130 A 
ATOM     25  C   LIG    1        3.518   9.977  -1.849  0.00  0.00    -0.080 A 
ATOM     26  C   LIG    1        4.382  11.039  -2.035  0.00  0.00    +0.050 A 
ATOM     27  C   LIG    1        4.703  11.454  -3.314  0.00  0.00    -0.030 A 
ATOM     28  C   LIG    1        4.161  10.807  -4.410  0.00  0.00    -0.050 A 
ATOM     29  C   LIG    1        4.513  11.261  -5.803  0.00  0.00    +0.090 C 
ATOM     30  C   LIG    1        3.301   9.741  -4.229  0.00  0.00    -0.120 A 
ATOM     31  C   LIG    1        2.716   9.033  -5.423  0.00  0.00    +0.100 C 
ENDBRANCH  23  24
ENDBRANCH  22  23
ENDBRANCH  21  22
ENDBRANCH  20  21
ENDBRANCH   9  20
TORSDOF 9
