REMARK  Name = ZINCfA000000bgj2.0
REMARK                            x       y       z     vdW  Elec       q    Type
REMARK                         _______ _______ _______ _____ _____    ______ ____
ROOT
ATOM      1  N   LIG    1        1.692  -1.619   0.817  0.00  0.00    -0.510 N 
ATOM      2  H   LIG    1        1.321  -1.453   1.740  0.00  0.00    +0.430 HD
ATOM      3  H   LIG    1        2.679  -1.818   0.881  0.00  0.00    +0.430 HD
ENDROOT
BRANCH   1   7
ATOM      4  C   LIG    1        1.453   1.995  -0.001  0.00  0.00    +0.040 C 
ATOM      5  C   LIG    1       -0.019   1.534   0.011  0.00  0.00    +0.060 C 
ATOM      6  C   LIG    1        0.002  -0.004   0.002  0.00  0.00    +0.050 C 
ATOM      7  C   LIG    1        1.486  -0.425  -0.014  0.00  0.00    +0.170 C 
ATOM      8  C   LIG    1        2.232   0.792   0.586  0.00  0.00    +0.090 C 
BRANCH   4   9
ATOM      9  S   LIG    1        1.668   3.462   1.044  0.00  0.00    -0.230 S 
BRANCH   9  11
ATOM     10  C   LIG    1        0.802   6.054   0.930  0.00  0.00    +0.080 C 
ATOM     11  C   LIG    1        0.720   4.733   0.163  0.00  0.00    +0.080 C 
ENDBRANCH   9  11
ENDBRANCH   4   9
ENDBRANCH   1   7
BRANCH   1  12
ATOM     12  C   LIG    1        1.000  -2.763   0.208  0.00  0.00    +0.280 C 
BRANCH  12  13
ATOM     13  C   LIG    1        1.214  -4.006   1.074  0.00  0.00    -0.010 C 
ATOM     14  C   LIG    1        0.601  -5.225   0.382  0.00  0.00    +0.060 C 
ATOM     15  C   LIG    1        0.107  -6.283   1.381  0.00  0.00    +0.130 C 
ATOM     16  S   LIG    1        0.408  -5.549   3.035  0.00  0.00    -0.240 S 
ATOM     17  C   LIG    1        0.524  -3.808   2.449  0.00  0.00    +0.100 C 
ENDBRANCH  12  13
ENDBRANCH   1  12
TORSDOF 5
