REMARK  Name = ZINCrg00001Jdv1U.0
REMARK                            x       y       z     vdW  Elec       q    Type
REMARK                         _______ _______ _______ _____ _____    ______ ____
ROOT
ATOM      1  C   LIG    1        3.771  -2.095   0.048  0.00  0.00    +0.230 A 
ATOM      2  N   LIG    1        5.054  -2.339  -0.011  0.00  0.00    -0.300 NA
ATOM      3  N   LIG    1        5.718  -1.245  -0.122  0.00  0.00    -0.030 NA
ATOM      4  N   LIG    1        4.914  -0.237  -0.147  0.00  0.00    -0.060 NA
ATOM      5  N   LIG    1        3.612  -0.756  -0.031  0.00  0.00    -0.310 N 
ENDROOT
BRANCH   5   6
ATOM      6  C   LIG    1        2.410  -0.039  -0.009  0.00  0.00    +0.120 A 
ATOM      7  C   LIG    1        1.362  -0.416  -0.819  0.00  0.00    +0.040 A 
ATOM      8  C   LIG    1        0.162   0.290  -0.805  0.00  0.00    +0.030 A 
ATOM      9  C   LIG    1       -0.010   1.368   0.007  0.00  0.00    +0.070 A 
ATOM     10  C   LIG    1        1.036   1.785   0.850  0.00  0.00    -0.040 A 
ATOM     11  C   LIG    1        0.887   2.894   1.700  0.00  0.00    +0.040 A 
ATOM     12  C   LIG    1        1.920   3.270   2.503  0.00  0.00    +0.020 A 
ATOM     13  C   LIG    1        3.125   2.571   2.496  0.00  0.00    +0.030 A 
ATOM     14  C   LIG    1        3.304   1.492   1.686  0.00  0.00    +0.020 A 
ATOM     15  C   LIG    1        2.261   1.075   0.844  0.00  0.00    -0.030 A 
ENDBRANCH   5   6
BRANCH   1  16
ATOM     16  C   LIG    1        2.672  -3.119   0.179  0.00  0.00    +0.420 C 
BRANCH  16  18
ATOM     17  C   LIG    1        1.359  -4.567  -1.276  0.00  0.00    +0.530 C 
ATOM     18  N   LIG    1        2.324  -3.634  -1.147  0.00  0.00    -0.730 N 
ATOM     19  H   LIG    1        2.787  -3.304  -1.933  0.00  0.00    +0.410 HD
ATOM     20  O   LIG    1        0.780  -4.979  -0.293  0.00  0.00    -0.520 OA
BRANCH  17  24
ATOM     21  C   LIG    1       -1.433  -5.776  -4.865  0.00  0.00    +0.570 C 
ATOM     22  N   LIG    1       -0.652  -5.423  -3.825  0.00  0.00    -0.650 N 
ATOM     23  C   LIG    1       -0.150  -6.120  -2.625  0.00  0.00    +0.320 C 
ATOM     24  C   LIG    1        1.000  -5.097  -2.640  0.00  0.00    -0.020 C 
ATOM     25  C   LIG    1        0.047  -4.182  -3.429  0.00  0.00    +0.310 C 
ATOM     26  O   LIG    1       -1.882  -6.904  -4.933  0.00  0.00    -0.540 OA
BRANCH  21  28
ATOM     27  C   LIG    1       -2.512  -5.146  -6.945  0.00  0.00    +0.150 C 
ATOM     28  C   LIG    1       -1.741  -4.797  -5.919  0.00  0.00    -0.090 C 
ENDBRANCH  21  28
ENDBRANCH  17  24
ENDBRANCH  16  18
ENDBRANCH   1  16
TORSDOF 5
