REMARK  Name = ZINCqH0000001LvR.1
REMARK                            x       y       z     vdW  Elec       q    Type
REMARK                         _______ _______ _______ _____ _____    ______ ____
ROOT
ATOM      1  C   LIG    1        7.602   4.633   1.104  0.00  0.00    +0.520 C 
ATOM      2  N   LIG    1        7.727   5.902   0.667  0.00  0.00    -0.720 N 
ATOM      3  H   LIG    1        6.935   6.436   0.497  0.00  0.00    +0.410 HD
ATOM      4  O   LIG    1        8.591   3.965   1.317  0.00  0.00    -0.510 OA
ENDROOT
BRANCH   1   5
ATOM      5  C   LIG    1        6.233   4.045   1.329  0.00  0.00    +0.220 C 
BRANCH   5   6
ATOM      6  O   LIG    1        6.362   2.698   1.789  0.00  0.00    -0.290 OA
BRANCH   6  10
ATOM      7  C   LIG    1        2.873   0.635   2.554  0.00  0.00    -0.110 A 
ATOM      8  C   LIG    1        2.818   1.940   2.101  0.00  0.00    +0.050 A 
ATOM      9  C   LIG    1        3.985   2.635   1.850  0.00  0.00    -0.080 A 
ATOM     10  C   LIG    1        5.213   2.019   2.042  0.00  0.00    +0.120 A 
ATOM     11  C   LIG    1        5.265   0.707   2.491  0.00  0.00    -0.010 A 
ATOM     12  C   LIG    1        4.095   0.018   2.746  0.00  0.00    +0.050 A 
BRANCH   7  14
ATOM     13  C   LIG    1        0.763  -0.200   1.553  0.00  0.00    +0.030 C 
ATOM     14  C   LIG    1        1.598  -0.118   2.833  0.00  0.00    +0.030 C 
ATOM     15  C   LIG    1        0.801   0.611   3.916  0.00  0.00    +0.030 C 
ENDBRANCH   7  14
ENDBRANCH   6  10
ENDBRANCH   5   6
ENDBRANCH   1   5
BRANCH   2  16
ATOM     16  C   LIG    1        9.057   6.473   0.448  0.00  0.00    +0.290 C 
BRANCH  16  17
ATOM     17  C   LIG    1        8.918   7.915  -0.044  0.00  0.00    +0.270 C 
BRANCH  17  18
ATOM     18  N   LIG    1        8.101   8.681   0.906  0.00  0.00    -0.510 NA
ATOM     19  C   LIG    1        8.625   8.544   2.290  0.00  0.00    +0.170 C 
ATOM     20  C   LIG    1        8.020   9.769   3.021  0.00  0.00    +0.020 C 
ATOM     21  C   LIG    1        8.075  10.876   1.943  0.00  0.00    +0.010 C 
ATOM     22  C   LIG    1        8.146  10.127   0.600  0.00  0.00    +0.160 C 
ENDBRANCH  17  18
BRANCH  17  23
ATOM     23  C   LIG    1       10.284   8.543  -0.151  0.00  0.00    -0.050 A 
ATOM     24  C   LIG    1       10.937   8.815  -1.296  0.00  0.00    -0.040 A 
ATOM     25  C   LIG    1       12.174   9.396  -0.933  0.00  0.00    -0.060 A 
ATOM     26  C   LIG    1       12.203   9.445   0.411  0.00  0.00    +0.160 A 
ATOM     27  O   LIG    1       11.053   8.932   0.879  0.00  0.00    -0.170 OA
ENDBRANCH  17  23
ENDBRANCH  16  17
ENDBRANCH   2  16
TORSDOF 8
