REMARK  Name = ZINCpe000000Umd0.0
REMARK                            x       y       z     vdW  Elec       q    Type
REMARK                         _______ _______ _______ _____ _____    ______ ____
ROOT
ATOM      1  C   LIG    1        2.502   1.284   0.060  0.00  0.00    +0.210 C 
ATOM      2  N   LIG    1        2.681   0.029   0.812  0.00  0.00    -0.720 N 
ATOM      3  H   LIG    1        2.278  -0.830   0.611  0.00  0.00    +0.440 HD
ATOM      4  C   LIG    1        3.512   0.308   1.832  0.00  0.00    +0.710 C 
ATOM      5  N   LIG    1        3.899   1.589   1.841  0.00  0.00    -0.560 N 
ATOM      6  O   LIG    1        3.872  -0.512   2.654  0.00  0.00    -0.540 OA
ATOM      7  C   LIG    1        3.003   1.126  -1.377  0.00  0.00    +0.100 C 
ATOM      8  C   LIG    1        3.355   2.280   0.820  0.00  0.00    +0.540 C 
ATOM      9  O   LIG    1        3.515   3.453   0.561  0.00  0.00    -0.460 OA
ENDROOT
BRANCH   1  13
ATOM     10  C   LIG    1       -2.508   1.161   0.134  0.00  0.00    +0.360 C 
ATOM     11  N   LIG    1       -1.127   1.647   0.104  0.00  0.00    -0.370 N 
ATOM     12  C   LIG    1       -0.015   0.880   0.112  0.00  0.00    +0.270 A 
ATOM     13  C   LIG    1        1.055   1.707   0.072  0.00  0.00    -0.260 A 
ATOM     14  C   LIG    1        0.583   3.023   0.043  0.00  0.00    +0.260 A 
ATOM     15  N   LIG    1       -0.725   2.988   0.066  0.00  0.00    -0.290 NA
ENDBRANCH   1  13
BRANCH   5  16
ATOM     16  C   LIG    1        4.804   2.169   2.837  0.00  0.00    +0.360 C 
BRANCH  16  17
ATOM     17  C   LIG    1        6.227   2.036   2.361  0.00  0.00    +0.510 C 
ATOM     18  N   LIG    1        7.238   2.503   3.120  0.00  0.00    -0.570 N 
ATOM     19  C   LIG    1        6.948   3.241   4.352  0.00  0.00    +0.300 C 
ATOM     20  O   LIG    1        6.463   1.509   1.294  0.00  0.00    -0.510 OA
BRANCH  18  21
ATOM     21  C   LIG    1        8.564   2.283   2.732  0.00  0.00    +0.130 A 
ATOM     22  C   LIG    1        9.383   1.457   3.491  0.00  0.00    +0.010 A 
ATOM     23  C   LIG    1       10.690   1.237   3.102  0.00  0.00    +0.020 A 
ATOM     24  C   LIG    1       11.187   1.846   1.964  0.00  0.00    +0.010 A 
ATOM     25  C   LIG    1       10.375   2.673   1.209  0.00  0.00    +0.020 A 
ATOM     26  C   LIG    1        9.066   2.893   1.590  0.00  0.00    +0.020 A 
ENDBRANCH  18  21
ENDBRANCH  16  17
ENDBRANCH   5  16
TORSDOF 4
