REMARK  Name = ZINCvU00000005IX.0
REMARK                            x       y       z     vdW  Elec       q    Type
REMARK                         _______ _______ _______ _____ _____    ______ ____
ROOT
ATOM      1  C   LIG    1       -5.494   1.574   1.330  0.00  0.00    +0.220 A 
ATOM      2  N   LIG    1       -6.512   1.718   0.513  0.00  0.00    -0.260 NA
ATOM      3  N   LIG    1       -6.307   2.714  -0.272  0.00  0.00    -0.290 NA
ATOM      4  C   LIG    1       -5.148   3.272  -0.001  0.00  0.00    +0.170 A 
ATOM      5  N   LIG    1       -4.588   2.563   1.024  0.00  0.00    -0.450 N 
ENDROOT
BRANCH   1  10
ATOM      6  F   LIG    1       -4.946  -2.326   5.311  0.00  0.00    -0.130 F 
ATOM      7  C   LIG    1       -5.079  -1.385   4.350  0.00  0.00    +0.120 A 
ATOM      8  C   LIG    1       -6.331  -1.101   3.829  0.00  0.00    +0.000 A 
ATOM      9  C   LIG    1       -6.472  -0.141   2.849  0.00  0.00    +0.110 A 
ATOM     10  C   LIG    1       -5.349   0.544   2.381  0.00  0.00    -0.030 A 
ATOM     11  C   LIG    1       -4.089   0.250   2.904  0.00  0.00    +0.050 A 
ATOM     12  C   LIG    1       -3.961  -0.707   3.889  0.00  0.00    -0.010 A 
ENDBRANCH   1  10
BRANCH   4  13
ATOM     13  S   LIG    1       -4.446   4.670  -0.811  0.00  0.00    +0.070 S 
BRANCH  13  14
ATOM     14  C   LIG    1       -5.752   5.026  -2.012  0.00  0.00    +0.250 C 
BRANCH  14  15
ATOM     15  C   LIG    1       -5.359   6.221  -2.842  0.00  0.00    +0.200 A 
ATOM     16  N   LIG    1       -4.691   6.178  -3.961  0.00  0.00    -0.450 NA
ATOM     17  C   LIG    1       -4.526   7.428  -4.417  0.00  0.00    +0.170 A 
ATOM     18  C   LIG    1       -5.121   8.268  -3.532  0.00  0.00    +0.010 A 
ATOM     19  O   LIG    1       -5.644   7.497  -2.552  0.00  0.00    -0.190 OA
BRANCH  18  20
ATOM     20  C   LIG    1       -5.190   9.742  -3.624  0.00  0.00    -0.020 A 
ATOM     21  C   LIG    1       -4.600  10.405  -4.701  0.00  0.00    +0.040 A 
ATOM     22  C   LIG    1       -4.672  11.780  -4.784  0.00  0.00    +0.020 A 
ATOM     23  C   LIG    1       -5.318  12.502  -3.797  0.00  0.00    +0.020 A 
ATOM     24  C   LIG    1       -5.900  11.852  -2.724  0.00  0.00    +0.010 A 
ATOM     25  C   LIG    1       -5.840  10.477  -2.632  0.00  0.00    +0.030 A 
ENDBRANCH  18  20
ENDBRANCH  14  15
ENDBRANCH  13  14
ENDBRANCH   4  13
BRANCH   5  26
ATOM     26  C   LIG    1       -3.294   2.808   1.667  0.00  0.00    +0.320 C 
BRANCH  26  27
ATOM     27  C   LIG    1       -2.197   2.060   0.907  0.00  0.00    +0.140 C 
ATOM     28  C   LIG    1       -0.822   2.260   1.605  0.00  0.00    +0.030 C 
ATOM     29  C   LIG    1        0.144   2.023   0.413  0.00  0.00    +0.020 C 
ATOM     30  C   LIG    1       -0.651   2.598  -0.779  0.00  0.00    +0.190 C 
ATOM     31  O   LIG    1       -2.035   2.614  -0.408  0.00  0.00    -0.360 OA
ENDBRANCH  26  27
ENDBRANCH   5  26
TORSDOF 7
