REMARK  Name = ZINCpk000000n26s.0
REMARK                            x       y       z     vdW  Elec       q    Type
REMARK                         _______ _______ _______ _____ _____    ______ ____
ROOT
ATOM      1  C   LIG    1        3.834   1.089   5.516  0.00  0.00    +0.180 C 
ENDROOT
BRANCH   1   2
ATOM      2  O   LIG    1        4.441   1.253   4.232  0.00  0.00    -0.550 OA
ATOM      3  H   LIG    1        4.713   2.161   4.040  0.00  0.00    +0.380 HD
ENDBRANCH   1   2
BRANCH   1   4
ATOM      4  C   LIG    1        4.825   1.504   6.605  0.00  0.00    +0.170 C 
BRANCH   4   5
ATOM      5  O   LIG    1        5.942   0.614   6.598  0.00  0.00    -0.300 OA
BRANCH   5  10
ATOM      6  C   LIG    1        9.036   0.263   8.501  0.00  0.00    -0.130 A 
ATOM      7  C   LIG    1        8.911   1.337   9.387  0.00  0.00    +0.030 A 
ATOM      8  C   LIG    1        7.800   2.152   9.329  0.00  0.00    +0.040 A 
ATOM      9  C   LIG    1        6.809   1.913   8.393  0.00  0.00    -0.050 A 
ATOM     10  C   LIG    1        6.921   0.845   7.512  0.00  0.00    +0.120 A 
ATOM     11  C   LIG    1        8.031   0.021   7.560  0.00  0.00    +0.050 A 
BRANCH   6  13
ATOM     12  C   LIG    1       11.302  -0.345   9.575  0.00  0.00    +0.090 C 
ATOM     13  C   LIG    1       10.220  -0.610   8.559  0.00  0.00    +0.390 C 
ATOM     14  O   LIG    1       10.326  -1.541   7.790  0.00  0.00    -0.450 OA
ENDBRANCH   6  13
ENDBRANCH   5  10
ENDBRANCH   4   5
ENDBRANCH   1   4
BRANCH   1  15
ATOM     15  C   LIG    1        2.582   1.963   5.604  0.00  0.00    +0.210 C 
BRANCH  15  16
ATOM     16  N   LIG    1        1.573   1.472   4.656  0.00  0.00    -0.520 NA
ATOM     17  C   LIG    1        1.914   1.855   3.279  0.00  0.00    +0.180 C 
ATOM     18  C   LIG    1        0.755   1.485   2.348  0.00  0.00    +0.280 C 
ATOM     19  N   LIG    1        0.441   0.061   2.537  0.00  0.00    -0.620 N 
ATOM     20  C   LIG    1        0.216  -0.426   3.906  0.00  0.00    +0.280 C 
ATOM     21  C   LIG    1        0.355  -0.775   1.482  0.00  0.00    +0.520 C 
ATOM     22  O   LIG    1        0.627  -0.376   0.369  0.00  0.00    -0.540 OA
ATOM     23  C   LIG    1        1.402   0.018   4.777  0.00  0.00    +0.170 C 
BRANCH  21  24
ATOM     24  C   LIG    1       -0.077  -2.204   1.686  0.00  0.00    -0.020 C 
ATOM     25  C   LIG    1       -0.706  -2.735   0.397  0.00  0.00    +0.050 C 
ATOM     26  C   LIG    1        1.139  -3.058   2.051  0.00  0.00    +0.050 C 
ENDBRANCH  21  24
ENDBRANCH  15  16
ENDBRANCH   1  15
TORSDOF 8
