REMARK  Name = ZINCbw0000000Ho2.0
REMARK                            x       y       z     vdW  Elec       q    Type
REMARK                         _______ _______ _______ _____ _____    ______ ____
ROOT
ATOM      1  C   LIG    1        4.651   0.360  -0.039  0.00  0.00    +0.390 A 
ATOM      2  N   LIG    1        3.673  -0.480  -0.035  0.00  0.00    -0.540 NA
ATOM      3  C   LIG    1        2.418   0.014  -0.021  0.00  0.00    +0.160 A 
ATOM      4  C   LIG    1        1.194  -0.687  -0.013  0.00  0.00    -0.070 A 
ATOM      5  C   LIG    1        0.002  -0.004   0.002  0.00  0.00    +0.080 A 
ATOM      6  C   LIG    1       -0.017   1.383   0.010  0.00  0.00    +0.020 A 
ATOM      7  C   LIG    1        1.167   2.087   0.002  0.00  0.00    +0.100 A 
ATOM      8 BR   LIG    1        1.193  -2.578  -0.023  0.00  0.00    -0.030 Br
ATOM      9  C   LIG    1        2.385   1.412  -0.013  0.00  0.00    -0.190 A 
ATOM     10  S   LIG    1        4.042   2.009  -0.025  0.00  0.00    +0.050 S 
ENDROOT
BRANCH   1  11
ATOM     11  N   LIG    1        5.987   0.013  -0.054  0.00  0.00    -0.810 N 
ATOM     12  H   LIG    1        6.667   0.704  -0.056  0.00  0.00    +0.420 HD
ATOM     13  H   LIG    1        6.245  -0.922  -0.062  0.00  0.00    +0.420 HD
ENDBRANCH   1  11
TORSDOF 1
