REMARK  Name = ZINCqH0000006DUN.0
REMARK                            x       y       z     vdW  Elec       q    Type
REMARK                         _______ _______ _______ _____ _____    ______ ____
ROOT
ATOM      1  C   LIG    1        1.938   4.174   0.008  0.00  0.00    +0.600 C 
ATOM      2  N   LIG    1        1.610   5.481   0.015  0.00  0.00    -0.680 N 
ATOM      3  H   LIG    1        0.679   5.747  -0.050  0.00  0.00    +0.400 HD
ATOM      4  O   LIG    1        3.110   3.840   0.004  0.00  0.00    -0.500 OA
ENDROOT
BRANCH   2   5
ATOM      5  C   LIG    1        2.610   6.452   0.117  0.00  0.00    +0.150 A 
ATOM      6  C   LIG    1        2.370   7.628   0.817  0.00  0.00    -0.010 A 
ATOM      7  C   LIG    1        3.362   8.584   0.919  0.00  0.00    +0.030 A 
ATOM      8  C   LIG    1        4.590   8.376   0.317  0.00  0.00    -0.090 A 
ATOM      9  C   LIG    1        4.830   7.209  -0.385  0.00  0.00    +0.030 A 
ATOM     10  C   LIG    1        3.844   6.247  -0.487  0.00  0.00    +0.020 A 
BRANCH   8  11
ATOM     11  C   LIG    1        5.667   9.423   0.426  0.00  0.00    +0.100 C 
BRANCH  11  12
ATOM     12  C   LIG    1        5.548  10.388  -0.726  0.00  0.00    +0.520 C 
ATOM     13  O   LIG    1        4.674  10.240  -1.553  0.00  0.00    -0.530 OA
ATOM     14  N   LIG    1        6.413  11.416  -0.836  0.00  0.00    -0.860 N 
ATOM     15  H   LIG    1        6.336  12.037  -1.577  0.00  0.00    +0.400 HD
ATOM     16  H   LIG    1        7.112  11.535  -0.175  0.00  0.00    +0.400 HD
ENDBRANCH  11  12
ENDBRANCH   8  11
ENDBRANCH   2   5
BRANCH   1  18
ATOM     17  C   LIG    1        1.134   1.832  -0.004  0.00  0.00    +0.210 A 
ATOM     18  C   LIG    1        0.921   3.188   0.004  0.00  0.00    -0.330 A 
ATOM     19  S   LIG    1       -0.806   3.515   0.009  0.00  0.00    +0.190 S 
ATOM     20  C   LIG    1       -1.171   1.795  -0.006  0.00  0.00    -0.070 A 
ATOM     21  C   LIG    1       -0.013   1.076  -0.006  0.00  0.00    -0.050 A 
BRANCH  20  22
ATOM     22  C   LIG    1       -2.530   1.215  -0.013  0.00  0.00    -0.040 A 
ATOM     23  C   LIG    1       -2.701  -0.170  -0.028  0.00  0.00    +0.040 A 
ATOM     24  C   LIG    1       -3.973  -0.705  -0.030  0.00  0.00    +0.010 A 
ATOM     25  C   LIG    1       -5.077   0.129  -0.028  0.00  0.00    +0.030 A 
ATOM     26  C   LIG    1       -4.915   1.503  -0.020  0.00  0.00    +0.020 A 
ATOM     27  C   LIG    1       -3.648   2.050  -0.012  0.00  0.00    +0.020 A 
ENDBRANCH  20  22
BRANCH  17  29
ATOM     28  C   LIG    1        2.454  -0.144  -0.017  0.00  0.00    +0.250 C 
ATOM     29  O   LIG    1        2.376   1.283  -0.009  0.00  0.00    -0.270 OA
ENDBRANCH  17  29
ENDBRANCH   1  18
TORSDOF 6
