REMARK  Name = ZINCvU0000000Cin.0
REMARK                            x       y       z     vdW  Elec       q    Type
REMARK                         _______ _______ _______ _____ _____    ______ ____
ROOT
ATOM      1  C   LIG    1        1.039   6.445  -1.974  0.00  0.00    +0.260 C 
ENDROOT
BRANCH   1   4
ATOM      2  C   LIG    1        3.443   9.048  -2.819  0.00  0.00    +0.130 A 
ATOM      3  N   LIG    1        2.354   8.501  -2.358  0.00  0.00    -0.470 NA
ATOM      4  C   LIG    1        2.249   7.195  -2.469  0.00  0.00    +0.070 A 
ATOM      5  C   LIG    1        3.283   6.574  -3.043  0.00  0.00    -0.080 A 
ATOM      6  S   LIG    1        4.483   7.789  -3.481  0.00  0.00    +0.130 S 
BRANCH   2  10
ATOM      7  C   LIG    1        4.341  13.203  -2.739  0.00  0.00    +0.190 A 
ATOM      8  C   LIG    1        3.141  12.740  -2.213  0.00  0.00    -0.110 A 
ATOM      9  C   LIG    1        2.844  11.394  -2.242  0.00  0.00    +0.160 A 
ATOM     10  C   LIG    1        3.755  10.491  -2.791  0.00  0.00    -0.100 A 
ATOM     11  C   LIG    1        4.965  10.959  -3.320  0.00  0.00    +0.190 A 
ATOM     12  C   LIG    1        5.251  12.313  -3.291  0.00  0.00    -0.100 A 
BRANCH   7  14
ATOM     13  C   LIG    1        3.644  15.392  -2.128  0.00  0.00    +0.240 C 
ATOM     14  O   LIG    1        4.624  14.531  -2.711  0.00  0.00    -0.310 OA
ENDBRANCH   7  14
BRANCH  11  15
ATOM     15  O   LIG    1        5.854  10.087  -3.861  0.00  0.00    -0.310 OA
ATOM     16  C   LIG    1        7.067  10.636  -4.382  0.00  0.00    +0.250 C 
ENDBRANCH  11  15
ENDBRANCH   2  10
ENDBRANCH   1   4
BRANCH   1  17
ATOM     17  N   LIG    1        1.196   6.152  -0.544  0.00  0.00    -0.510 NA
ATOM     18  C   LIG    1        1.512   7.386   0.221  0.00  0.00    +0.180 C 
ATOM     19  C   LIG    1        1.123   7.012   1.673  0.00  0.00    +0.010 C 
ATOM     20  C   LIG    1       -0.144   6.148   1.481  0.00  0.00    +0.020 C 
ATOM     21  C   LIG    1       -0.063   5.631   0.032  0.00  0.00    +0.190 C 
BRANCH  21  22
ATOM     22  C   LIG    1       -0.047   4.125   0.024  0.00  0.00    -0.140 A 
ATOM     23  C   LIG    1        1.157   3.447   0.010  0.00  0.00    +0.130 A 
ATOM     24  C   LIG    1        1.175   2.065   0.002  0.00  0.00    -0.120 A 
ATOM     25  C   LIG    1       -0.016   1.355   0.009  0.00  0.00    +0.160 A 
ATOM     26  C   LIG    1       -1.226   2.032   0.019  0.00  0.00    -0.120 A 
ATOM     27  C   LIG    1       -1.242   3.418   0.031  0.00  0.00    +0.170 A 
BRANCH  25  28
ATOM     28  O   LIG    1        0.002  -0.004   0.002  0.00  0.00    -0.320 OA
ATOM     29  C   LIG    1        1.284  -0.635  -0.014  0.00  0.00    +0.250 C 
ENDBRANCH  25  28
BRANCH  27  30
ATOM     30  O   LIG    1       -2.426   4.085   0.045  0.00  0.00    -0.310 OA
ATOM     31  C   LIG    1       -3.616   3.294   0.052  0.00  0.00    +0.250 C 
ENDBRANCH  27  30
ENDBRANCH  21  22
ENDBRANCH   1  17
TORSDOF 8
