REMARK  Name = ZINCrD00000750BL.0
REMARK                            x       y       z     vdW  Elec       q    Type
REMARK                         _______ _______ _______ _____ _____    ______ ____
ROOT
ATOM      1  C   LIG    1       -0.142   1.084  -2.346  0.00  0.00    +0.320 A 
ATOM      2  C   LIG    1       -0.678   1.430  -3.580  0.00  0.00    +0.000 A 
ATOM      3  C   LIG    1       -0.077   0.935  -4.740  0.00  0.00    +0.040 A 
ATOM      4  C   LIG    1        1.038   0.099  -4.604  0.00  0.00    +0.000 A 
ATOM      5  C   LIG    1        1.504  -0.199  -3.340  0.00  0.00    +0.310 A 
ATOM      6  N   LIG    1        0.915   0.290  -2.266  0.00  0.00    -0.500 NA
ENDROOT
BRANCH   1  10
ATOM      7  N   LIG    1       -0.783   3.048   1.252  0.00  0.00    -0.540 NA
ATOM      8  C   LIG    1       -0.730   1.580   1.267  0.00  0.00    +0.190 C 
ATOM      9  C   LIG    1       -0.013   1.086   0.008  0.00  0.00    +0.220 C 
ATOM     10  N   LIG    1       -0.724   1.573  -1.182  0.00  0.00    -0.480 N 
ATOM     11  C   LIG    1       -0.777   3.042  -1.196  0.00  0.00    +0.210 C 
ATOM     12  C   LIG    1       -1.495   3.536   0.062  0.00  0.00    +0.200 C 
BRANCH   7  13
ATOM     13  C   LIG    1       -1.399   3.565   2.482  0.00  0.00    +0.280 C 
BRANCH  13  17
ATOM     14  C   LIG    1       -1.037  -0.119   5.787  0.00  0.00    +0.180 C 
ATOM     15  C   LIG    1       -0.668   1.192   5.143  0.00  0.00    +0.050 A 
ATOM     16  N   LIG    1       -1.260   1.702   4.115  0.00  0.00    -0.470 NA
ATOM     17  C   LIG    1       -0.807   2.859   3.675  0.00  0.00    +0.070 A 
ATOM     18  C   LIG    1        0.216   3.357   4.376  0.00  0.00    -0.060 A 
ATOM     19  S   LIG    1        0.588   2.224   5.672  0.00  0.00    +0.120 S 
ENDBRANCH  13  17
ENDBRANCH   7  13
ENDBRANCH   1  10
BRANCH   3  20
ATOM     20  C   LIG    1       -0.609   1.280  -6.077  0.00  0.00    +0.220 A 
ATOM     21  N   LIG    1       -0.137   0.875  -7.242  0.00  0.00    -0.460 NA
ATOM     22  C   LIG    1       -0.932   1.436  -8.167  0.00  0.00    +0.180 A 
ATOM     23  N   LIG    1       -1.829   2.140  -7.541  0.00  0.00    -0.370 NA
ATOM     24  O   LIG    1       -1.668   2.061  -6.341  0.00  0.00    +0.090 OA
BRANCH  22  25
ATOM     25  C   LIG    1       -0.807   1.279  -9.660  0.00  0.00    +0.090 C 
ATOM     26  C   LIG    1       -0.585   2.651 -10.301  0.00  0.00    +0.040 C 
ATOM     27  C   LIG    1       -2.090   0.658 -10.217  0.00  0.00    +0.040 C 
ENDBRANCH  22  25
ENDBRANCH   3  20
TORSDOF 5
