REMARK  Name = ZINCnE00000rhnCJ.0
REMARK                            x       y       z     vdW  Elec       q    Type
REMARK                         _______ _______ _______ _____ _____    ______ ____
ROOT
ATOM      1  C   LIG    1       -1.876   2.398   1.420  0.00  0.00    -0.080 C 
ATOM      2  C   LIG    1       -3.278   3.000   1.662  0.00  0.00    +0.020 C 
ATOM      3  C   LIG    1       -4.112   1.810   2.188  0.00  0.00    +0.170 C 
ATOM      4  O   LIG    1       -3.141   0.899   2.748  0.00  0.00    -0.360 OA
ATOM      5  C   LIG    1       -2.028   0.916   1.828  0.00  0.00    +0.200 C 
ENDROOT
BRANCH   1   6
ATOM      6  C   LIG    1       -0.834   3.095   2.298  0.00  0.00    +0.200 C 
BRANCH   6  11
ATOM      7  C   LIG    1        0.030   1.550   6.502  0.00  0.00    +0.090 A 
ATOM      8  N   LIG    1        0.947   1.239   5.649  0.00  0.00    -0.300 NA
ATOM      9  N   LIG    1        0.587   1.779   4.405  0.00  0.00    -0.550 NA
ATOM     10  C   LIG    1       -0.600   2.436   4.596  0.00  0.00    +0.440 A 
ATOM     11  N   LIG    1       -1.286   3.084   3.692  0.00  0.00    -0.690 NA
ATOM     12  O   LIG    1       -0.928   2.280   5.895  0.00  0.00    -0.300 OA
BRANCH   7  14
ATOM     13  C   LIG    1        1.341   0.444   8.293  0.00  0.00    +0.050 C 
ATOM     14  C   LIG    1        0.030   1.157   7.957  0.00  0.00    +0.040 C 
ATOM     15  C   LIG    1       -1.147   0.219   8.231  0.00  0.00    +0.040 C 
ATOM     16  C   LIG    1       -0.105   2.411   8.823  0.00  0.00    +0.030 C 
ENDBRANCH   7  14
ENDBRANCH   6  11
ENDBRANCH   1   6
BRANCH   1  17
ATOM     17  C   LIG    1       -1.492   2.511  -0.057  0.00  0.00    +0.070 C 
BRANCH  17  18
ATOM     18  C   LIG    1       -0.122   1.919  -0.266  0.00  0.00    -0.070 A 
ATOM     19  C   LIG    1        1.000   2.722  -0.173  0.00  0.00    +0.010 A 
ATOM     20  C   LIG    1        2.256   2.180  -0.371  0.00  0.00    +0.000 A 
ATOM     21  C   LIG    1        2.391   0.835  -0.662  0.00  0.00    -0.010 A 
ATOM     22  C   LIG    1        1.269   0.033  -0.756  0.00  0.00    +0.000 A 
ATOM     23  C   LIG    1        0.013   0.575  -0.557  0.00  0.00    +0.000 A 
ENDBRANCH  17  18
ENDBRANCH   1  17
TORSDOF 5
