REMARK  Name = ZINCpk00000y6y34.0
REMARK                            x       y       z     vdW  Elec       q    Type
REMARK                         _______ _______ _______ _____ _____    ______ ____
ROOT
ATOM      1  N   LIG    1        0.870  -4.105  -0.249  0.00  0.00    -0.720 N 
ATOM      2  H   LIG    1        0.612  -4.554   0.571  0.00  0.00    +0.410 HD
ATOM      3  C   LIG    1        1.540  -4.780  -1.204  0.00  0.00    +0.570 C 
ATOM      4  O   LIG    1        1.865  -4.217  -2.232  0.00  0.00    -0.520 OA
ENDROOT
BRANCH   1   9
ATOM      5  C   LIG    1        1.246   1.756  -0.000  0.00  0.00    +0.020 A 
ATOM      6  C   LIG    1        2.078   0.694  -0.015  0.00  0.00    +0.120 A 
ATOM      7  N   LIG    1        1.291  -0.419  -0.014  0.00  0.00    -0.450 N 
ATOM      8  C   LIG    1        1.719  -1.820  -0.028  0.00  0.00    +0.280 C 
ATOM      9  C   LIG    1        0.532  -2.694  -0.450  0.00  0.00    +0.250 C 
ATOM     10  C   LIG    1       -0.692  -2.337   0.398  0.00  0.00    +0.040 C 
ATOM     11  C   LIG    1       -1.185  -0.938   0.010  0.00  0.00    +0.160 C 
ATOM     12  C   LIG    1        0.002  -0.004   0.002  0.00  0.00    +0.200 A 
ATOM     13  N   LIG    1       -0.016   1.297   0.009  0.00  0.00    -0.470 NA
BRANCH   5  15
ATOM     14  C   LIG    1        2.147   3.600  -1.393  0.00  0.00    +0.030 C 
ATOM     15  C   LIG    1        1.661   3.205   0.003  0.00  0.00    +0.010 C 
ATOM     16  C   LIG    1        2.792   3.409   1.013  0.00  0.00    +0.030 C 
ATOM     17  C   LIG    1        0.466   4.076   0.394  0.00  0.00    +0.030 C 
ENDBRANCH   5  15
ENDBRANCH   1   9
BRANCH   3  18
ATOM     18  C   LIG    1        1.882  -6.206  -1.002  0.00  0.00    -0.170 A 
ATOM     19  C   LIG    1        2.572  -6.916  -1.989  0.00  0.00    +0.140 A 
ATOM     20  C   LIG    1        2.874  -8.247  -1.752  0.00  0.00    +0.050 A 
ATOM     21  C   LIG    1        2.474  -8.831  -0.553  0.00  0.00    +0.100 A 
ATOM     22  N   LIG    1        1.815  -8.128   0.360  0.00  0.00    -0.460 NA
ATOM     23  C   LIG    1        1.514  -6.862   0.175  0.00  0.00    +0.310 A 
BRANCH  21  24
ATOM     24  C   LIG    1        2.787 -10.257  -0.293  0.00  0.00    +0.570 C 
ATOM     25  O   LIG    1        3.390 -10.908  -1.123  0.00  0.00    -0.530 OA
ATOM     26  N   LIG    1        2.404 -10.831   0.865  0.00  0.00    -0.830 N 
ATOM     27  H   LIG    1        2.608 -11.764   1.035  0.00  0.00    +0.410 HD
ATOM     28  H   LIG    1        1.922 -10.312   1.528  0.00  0.00    +0.410 HD
ENDBRANCH  21  24
ENDBRANCH   3  18
TORSDOF 4
