REMARK  Name = ZINCtV000002HGOD.0
REMARK                            x       y       z     vdW  Elec       q    Type
REMARK                         _______ _______ _______ _____ _____    ______ ____
ROOT
ATOM      1  C   LIG    1        3.515   3.122  -3.948  0.00  0.00    +0.150 A 
ATOM      2  N   LIG    1        3.417   4.393  -4.268  0.00  0.00    -0.280 NA
ATOM      3  N   LIG    1        3.752   4.566  -5.497  0.00  0.00    -0.240 NA
ATOM      4  C   LIG    1        4.083   3.417  -6.037  0.00  0.00    +0.220 A 
ATOM      5  N   LIG    1        3.947   2.457  -5.060  0.00  0.00    -0.440 N 
ENDROOT
BRANCH   4   6
ATOM      6  C   LIG    1        4.525   3.195  -7.430  0.00  0.00    -0.010 A 
ATOM      7  C   LIG    1        5.663   2.432  -7.692  0.00  0.00    +0.040 A 
ATOM      8  C   LIG    1        6.066   2.224  -8.995  0.00  0.00    +0.030 A 
ATOM      9  C   LIG    1        5.352   2.781 -10.041  0.00  0.00    +0.050 A 
ATOM     10  C   LIG    1        4.226   3.544  -9.789  0.00  0.00    +0.030 A 
ATOM     11  C   LIG    1        3.807   3.754  -8.491  0.00  0.00    +0.000 A 
ATOM     12 CL   LIG    1        2.394   4.712  -8.176  0.00  0.00    -0.040 Cl
ENDBRANCH   4   6
BRANCH   5  13
ATOM     13  C   LIG    1        4.209   1.021  -5.187  0.00  0.00    +0.230 C 
ATOM     14  C   LIG    1        2.932   0.220  -4.861  0.00  0.00    +0.030 C 
ATOM     15  C   LIG    1        3.450  -1.032  -4.111  0.00  0.00    +0.030 C 
ATOM     16  C   LIG    1        4.606  -0.462  -3.252  0.00  0.00    +0.040 C 
ATOM     17  C   LIG    1        5.274   0.588  -4.164  0.00  0.00    +0.020 C 
ENDBRANCH   5  13
BRANCH   1  18
ATOM     18  S   LIG    1        3.162   2.410  -2.376  0.00  0.00    +0.070 S 
BRANCH  18  19
ATOM     19  C   LIG    1        2.670   3.893  -1.462  0.00  0.00    +0.160 C 
BRANCH  19  20
ATOM     20  C   LIG    1        3.822   4.801  -1.343  0.00  0.00    +0.200 C 
ATOM     21  N   LIG    1        4.712   5.501  -1.252  0.00  0.00    -0.390 NA
ENDBRANCH  19  20
BRANCH  19  22
ATOM     22  C   LIG    1        2.188   3.495  -0.066  0.00  0.00    +0.140 C 
BRANCH  22  27
ATOM     23  C   LIG    1       -2.616   0.317  -0.532  0.00  0.00    +0.090 C 
ATOM     24  C   LIG    1       -1.363   1.145  -0.407  0.00  0.00    -0.080 A 
ATOM     25  C   LIG    1       -0.125   0.530  -0.401  0.00  0.00    +0.000 A 
ATOM     26  C   LIG    1        1.024   1.291  -0.292  0.00  0.00    +0.020 A 
ATOM     27  C   LIG    1        0.935   2.666  -0.184  0.00  0.00    -0.100 A 
ATOM     28  C   LIG    1       -0.303   3.281  -0.184  0.00  0.00    +0.030 A 
ATOM     29  C   LIG    1       -1.452   2.520  -0.293  0.00  0.00    +0.000 A 
ENDBRANCH  22  27
ENDBRANCH  19  22
ENDBRANCH  18  19
ENDBRANCH   1  18
TORSDOF 7
