REMARK  Name = ZINCb80000002kNk.0
REMARK                            x       y       z     vdW  Elec       q    Type
REMARK                         _______ _______ _______ _____ _____    ______ ____
ROOT
ATOM      1  C   LIG    1       -4.904   1.941   0.035  0.00  0.00    +0.170 C 
ATOM      2  C   LIG    1       -3.406   2.112   0.030  0.00  0.00    +0.160 A 
ATOM      3  N   LIG    1       -2.766   3.253   0.033  0.00  0.00    -0.270 NA
ATOM      4  N   LIG    1       -1.391   2.988   0.031  0.00  0.00    -0.390 N 
ATOM      5  C   LIG    1       -1.226   1.645   0.017  0.00  0.00    +0.440 A 
ATOM      6  C   LIG    1       -0.320   3.988   0.039  0.00  0.00    +0.370 C 
ATOM      7  C   LIG    1       -2.465   1.079   0.020  0.00  0.00    -0.260 A 
ENDROOT
BRANCH   5   8
ATOM      8  N   LIG    1       -0.011   0.966   0.007  0.00  0.00    -0.840 N 
ATOM      9  H   LIG    1        0.822   1.462   0.002  0.00  0.00    +0.410 HD
ATOM     10  H   LIG    1        0.002  -0.004   0.002  0.00  0.00    +0.420 HD
ENDBRANCH   5   8
BRANCH   7  11
ATOM     11  N   LIG    1       -2.761  -0.371   0.012  0.00  0.00    +0.060 N 
ATOM     12  O   LIG    1       -2.888  -0.961  -1.045  0.00  0.00    -0.140 OA
ATOM     13  O   LIG    1       -2.877  -0.974   1.064  0.00  0.00    -0.140 OA
ENDBRANCH   7  11
TORSDOF 2
