REMARK  Name = ZINCpe000000Ya4c.0
REMARK                            x       y       z     vdW  Elec       q    Type
REMARK                         _______ _______ _______ _____ _____    ______ ____
ROOT
ATOM      1  N   LIG    1        2.745   2.331   4.272  0.00  0.00    -0.690 N 
ATOM      2  H   LIG    1        3.128   3.108   3.837  0.00  0.00    +0.410 HD
ATOM      3  C   LIG    1        1.427   2.075   4.157  0.00  0.00    +0.700 C 
ATOM      4  N   LIG    1        0.622   2.954   3.529  0.00  0.00    -0.720 N 
ATOM      5  H   LIG    1        0.992   3.772   3.160  0.00  0.00    +0.400 HD
ATOM      6  O   LIG    1        0.964   1.050   4.620  0.00  0.00    -0.570 OA
ENDROOT
BRANCH   1  11
ATOM      7  C   LIG    1        3.866  -0.015   6.878  0.00  0.00    +0.150 A 
ATOM      8  C   LIG    1        5.185  -0.219   6.495  0.00  0.00    +0.000 A 
ATOM      9  C   LIG    1        5.689   0.421   5.379  0.00  0.00    +0.080 A 
ATOM     10  C   LIG    1        4.882   1.266   4.641  0.00  0.00    +0.000 A 
ATOM     11  C   LIG    1        3.562   1.474   5.020  0.00  0.00    +0.190 A 
ATOM     12  C   LIG    1        3.055   0.837   6.143  0.00  0.00    +0.050 A 
BRANCH   7  18
ATOM     13  C   LIG    1        4.631  -2.867   7.815  0.00  0.00    +0.220 C 
ATOM     14  C   LIG    1        3.662  -1.905   8.453  0.00  0.00    +0.250 A 
ATOM     15  N   LIG    1        2.963  -2.115   9.537  0.00  0.00    -0.330 NA
ATOM     16  N   LIG    1        2.235  -1.092   9.812  0.00  0.00    -0.030 NA
ATOM     17  N   LIG    1        2.421  -0.165   8.935  0.00  0.00    -0.080 NA
ATOM     18  N   LIG    1        3.356  -0.666   8.012  0.00  0.00    -0.330 N 
ENDBRANCH   7  18
ENDBRANCH   1  11
BRANCH   4  19
ATOM     19  C   LIG    1       -0.811   2.676   3.404  0.00  0.00    +0.250 C 
ATOM     20  C   LIG    1       -1.533   3.143   4.669  0.00  0.00    +0.030 C 
BRANCH  19  21
ATOM     21  C   LIG    1       -1.371   3.423   2.192  0.00  0.00    +0.190 C 
BRANCH  21  22
ATOM     22  N   LIG    1       -0.598   3.064   0.995  0.00  0.00    -0.530 NA
ATOM     23  C   LIG    1       -0.398   1.610   0.914  0.00  0.00    +0.140 C 
ATOM     24  C   LIG    1        0.459   1.286  -0.313  0.00  0.00    +0.230 C 
ATOM     25  O   LIG    1       -0.172   1.813  -1.483  0.00  0.00    -0.380 OA
ATOM     26  C   LIG    1       -0.380   3.228  -1.437  0.00  0.00    +0.220 C 
ATOM     27  C   LIG    1       -1.247   3.571  -0.223  0.00  0.00    +0.160 C 
ENDBRANCH  21  22
ENDBRANCH  19  21
ENDBRANCH   4  19
TORSDOF 5
