REMARK  Name = ZINCtV00000tExEY.0
REMARK                            x       y       z     vdW  Elec       q    Type
REMARK                         _______ _______ _______ _____ _____    ______ ____
ROOT
ATOM      1  N   LIG    1        6.241  -1.422   0.718  0.00  0.00    -0.670 N 
ATOM      2  H   LIG    1        6.278  -0.462   0.855  0.00  0.00    +0.410 HD
ATOM      3  C   LIG    1        5.049  -2.049   0.664  0.00  0.00    +0.560 C 
ATOM      4  O   LIG    1        5.003  -3.262   0.585  0.00  0.00    -0.510 OA
ENDROOT
BRANCH   1   9
ATOM      5  C   LIG    1        9.689  -2.331  -0.213  0.00  0.00    -0.000 A 
ATOM      6  C   LIG    1        9.764  -3.624   0.308  0.00  0.00    +0.010 A 
ATOM      7  C   LIG    1        8.676  -4.171   0.957  0.00  0.00    +0.030 A 
ATOM      8  C   LIG    1        7.511  -3.441   1.098  0.00  0.00    +0.030 A 
ATOM      9  C   LIG    1        7.424  -2.155   0.578  0.00  0.00    +0.150 A 
ATOM     10  C   LIG    1        8.511  -1.596  -0.076  0.00  0.00    +0.010 A 
BRANCH   5  13
ATOM     11  C   LIG    1        9.533  -0.916  -2.871  0.00  0.00    +0.110 C 
ATOM     12  C   LIG    1       10.811  -1.105  -2.095  0.00  0.00    -0.090 A 
ATOM     13  C   LIG    1       10.853  -1.742  -0.908  0.00  0.00    -0.150 A 
ATOM     14  S   LIG    1       12.510  -1.772  -0.318  0.00  0.00    +0.120 S 
ATOM     15  C   LIG    1       13.064  -0.894  -1.738  0.00  0.00    -0.040 A 
ATOM     16  C   LIG    1       12.029  -0.636  -2.542  0.00  0.00    +0.010 A 
ENDBRANCH   5  13
ENDBRANCH   1   9
BRANCH   3  17
ATOM     17  C   LIG    1        3.800  -1.264   0.701  0.00  0.00    -0.150 A 
ATOM     18  C   LIG    1        2.563  -1.914   0.644  0.00  0.00    +0.110 A 
ATOM     19  C   LIG    1        1.400  -1.179   0.678  0.00  0.00    +0.020 A 
ATOM     20  C   LIG    1        1.454   0.209   0.767  0.00  0.00    +0.180 A 
ATOM     21  C   LIG    1        2.684   0.859   0.818  0.00  0.00    -0.010 A 
ATOM     22  C   LIG    1        3.851   0.129   0.790  0.00  0.00    +0.070 A 
BRANCH  20  23
ATOM     23  N   LIG    1        0.275   0.950   0.801  0.00  0.00    -0.670 N 
ATOM     24  H   LIG    1        0.234   1.817   0.368  0.00  0.00    +0.410 HD
ATOM     25  C   LIG    1       -0.810   0.462   1.434  0.00  0.00    +0.600 C 
ATOM     26  O   LIG    1       -0.787  -0.661   1.903  0.00  0.00    -0.500 OA
BRANCH  25  27
ATOM     27  C   LIG    1       -2.016   1.284   1.562  0.00  0.00    -0.280 A 
ATOM     28  C   LIG    1       -3.175   0.903   2.179  0.00  0.00    +0.120 A 
ATOM     29  C   LIG    1       -4.148   1.873   2.155  0.00  0.00    +0.000 A 
ATOM     30  C   LIG    1       -3.802   3.010   1.540  0.00  0.00    -0.050 A 
ATOM     31  S   LIG    1       -2.202   2.924   0.954  0.00  0.00    +0.200 S 
ENDBRANCH  25  27
ENDBRANCH  20  23
ENDBRANCH   3  17
TORSDOF 5
