REMARK  Name = ZINCpe000000UhQG.0
REMARK                            x       y       z     vdW  Elec       q    Type
REMARK                         _______ _______ _______ _____ _____    ______ ____
ROOT
ATOM      1  C   LIG    1       -1.059   4.195  -3.112  0.00  0.00    +0.350 C 
ENDROOT
BRANCH   1   6
ATOM      2  N   LIG    1       -0.520   7.837  -3.182  0.00  0.00    -0.520 N 
ATOM      3  C   LIG    1        0.783   7.980  -3.542  0.00  0.00    +0.450 A 
ATOM      4  C   LIG    1        1.546   6.854  -3.780  0.00  0.00    -0.200 A 
ATOM      5  C   LIG    1        0.905   5.538  -3.630  0.00  0.00    +0.570 A 
ATOM      6  N   LIG    1       -0.394   5.491  -3.269  0.00  0.00    -0.530 N 
ATOM      7  O   LIG    1        1.533   4.515  -3.828  0.00  0.00    -0.490 OA
ATOM      8  C   LIG    1       -1.084   6.625  -3.057  0.00  0.00    +0.700 A 
ATOM      9  O   LIG    1       -2.255   6.550  -2.738  0.00  0.00    -0.520 OA
BRANCH   2  11
ATOM     10  C   LIG    1       -1.998   9.478  -4.231  0.00  0.00    +0.040 C 
ATOM     11  C   LIG    1       -1.329   9.032  -2.930  0.00  0.00    +0.320 C 
ENDBRANCH   2  11
BRANCH   4  12
ATOM     12  C   LIG    1        2.922   6.965  -4.162  0.00  0.00    +0.280 C 
ATOM     13  N   LIG    1        4.013   7.052  -4.465  0.00  0.00    -0.400 NA
ENDBRANCH   4  12
ENDBRANCH   1   6
BRANCH   1  14
ATOM     14  C   LIG    1       -0.905   3.720  -1.690  0.00  0.00    +0.510 C 
ATOM     15  N   LIG    1       -1.441   2.542  -1.311  0.00  0.00    -0.610 N 
ATOM     16  C   LIG    1       -2.268   1.779  -2.248  0.00  0.00    +0.290 C 
ATOM     17  O   LIG    1       -0.300   4.397  -0.887  0.00  0.00    -0.520 OA
BRANCH  15  18
ATOM     18  C   LIG    1       -1.195   2.026   0.038  0.00  0.00    +0.360 C 
BRANCH  18  19
ATOM     19  C   LIG    1        0.105   1.264   0.055  0.00  0.00    -0.100 A 
ATOM     20  C   LIG    1        0.799   1.056  -1.122  0.00  0.00    +0.020 A 
ATOM     21  C   LIG    1        1.995   0.362  -1.105  0.00  0.00    +0.000 A 
ATOM     22  C   LIG    1        2.496  -0.123   0.088  0.00  0.00    +0.000 A 
ATOM     23  C   LIG    1        1.802   0.087   1.265  0.00  0.00    +0.000 A 
ATOM     24  C   LIG    1        0.606   0.779   1.249  0.00  0.00    -0.080 A 
ATOM     25  C   LIG    1       -0.151   1.007   2.532  0.00  0.00    +0.090 C 
ENDBRANCH  18  19
ENDBRANCH  15  18
ENDBRANCH   1  14
TORSDOF 6
