REMARK  Name = ZINCpe000000Zuum.1
REMARK                            x       y       z     vdW  Elec       q    Type
REMARK                         _______ _______ _______ _____ _____    ______ ____
ROOT
ATOM      1  O   LIG    1        0.970   3.337  -1.727  0.00  0.00    -0.530 OA
ATOM      2  C   LIG    1        1.785   2.875  -0.953  0.00  0.00    +0.610 C 
ATOM      3  N   LIG    1        1.447   1.844  -0.153  0.00  0.00    -0.600 N 
ATOM      4  C   LIG    1        0.058   1.368  -0.093  0.00  0.00    +0.290 C 
ATOM      5  C   LIG    1        0.039  -0.132  -0.413  0.00  0.00    +0.290 C 
ATOM      6  N   LIG    1        1.053  -0.801   0.413  0.00  0.00    -1.000 NA
ATOM      7  C   LIG    1        2.442  -0.326   0.353  0.00  0.00    +0.290 C 
ATOM      8  C   LIG    1        2.462   1.174   0.673  0.00  0.00    +0.300 C 
ENDROOT
BRANCH   2   9
ATOM      9  C   LIG    1        3.147   3.443  -0.889  0.00  0.00    -0.010 A 
ATOM     10  N   LIG    1        4.084   3.139  -0.013  0.00  0.00    -0.260 NA
ATOM     11  N   LIG    1        5.148   3.819  -0.251  0.00  0.00    -0.380 N 
ATOM     12  H   LIG    1        5.969   3.760   0.261  0.00  0.00    +0.440 HD
ATOM     13  C   LIG    1        4.956   4.630  -1.313  0.00  0.00    +0.060 A 
ATOM     14  C   LIG    1        3.692   4.424  -1.752  0.00  0.00    +0.000 A 
BRANCH  13  15
ATOM     15  C   LIG    1        5.961   5.587  -1.900  0.00  0.00    +0.050 C 
ATOM     16  C   LIG    1        7.435   5.179  -1.854  0.00  0.00    +0.030 C 
ATOM     17  C   LIG    1        6.918   6.287  -0.934  0.00  0.00    +0.030 C 
ENDBRANCH  13  15
ENDBRANCH   2   9
BRANCH   6  18
ATOM     18  S   LIG    1        0.638  -2.068   1.395  0.00  0.00    +2.700 S 
ATOM     19  O   LIG    1       -0.751  -1.931   1.661  0.00  0.00    -0.950 OA
ATOM     20  O   LIG    1        1.623  -2.123   2.418  0.00  0.00    -0.950 OA
BRANCH  18  21
ATOM     21  C   LIG    1        0.820  -3.543   0.449  0.00  0.00    -0.740 A 
ATOM     22  C   LIG    1        2.028  -4.223   0.434  0.00  0.00    +0.170 A 
ATOM     23  C   LIG    1        2.125  -5.379  -0.325  0.00  0.00    -0.040 A 
ATOM     24  C   LIG    1        1.022  -5.813  -1.036  0.00  0.00    +0.320 A 
ATOM     25  N   LIG    1       -0.112  -5.141  -0.998  0.00  0.00    -0.490 NA
ATOM     26  C   LIG    1       -0.242  -4.040  -0.283  0.00  0.00    +0.370 A 
ENDBRANCH  18  21
ENDBRANCH   6  18
TORSDOF 4
