REMARK  Name = ZINCpe000000ZuUM.0
REMARK                            x       y       z     vdW  Elec       q    Type
REMARK                         _______ _______ _______ _____ _____    ______ ____
ROOT
ATOM      1  O   LIG    1        2.534  -0.091   0.086  0.00  0.00    -0.530 OA
ATOM      2  C   LIG    1        2.486   1.119  -0.015  0.00  0.00    +0.570 C 
ATOM      3  N   LIG    1        3.625   1.832  -0.123  0.00  0.00    -0.600 N 
ATOM      4  C   LIG    1        3.592   3.301  -0.118  0.00  0.00    +0.260 C 
ATOM      5  C   LIG    1        4.549   3.812   0.964  0.00  0.00    +0.030 C 
ATOM      6  C   LIG    1        5.939   3.215   0.732  0.00  0.00    +0.020 C 
ATOM      7  C   LIG    1        5.865   1.690   0.834  0.00  0.00    +0.260 C 
ATOM      8  C   LIG    1        4.923   1.155  -0.244  0.00  0.00    +0.290 C 
ENDROOT
BRANCH   7   9
ATOM      9  N   LIG    1        7.202   1.121   0.643  0.00  0.00    -0.630 N 
ATOM     10  C   LIG    1        7.926   0.299   1.624  0.00  0.00    +0.250 C 
ATOM     11  C   LIG    1        9.259  -0.025   0.922  0.00  0.00    +0.250 C 
ATOM     12  N   LIG    1        9.144   0.649  -0.380  0.00  0.00    -0.740 N 
ATOM     13  H   LIG    1        9.820   0.646  -1.076  0.00  0.00    +0.430 HD
ATOM     14  C   LIG    1        7.956   1.263  -0.455  0.00  0.00    +0.700 C 
ATOM     15  O   LIG    1        7.597   1.895  -1.429  0.00  0.00    -0.580 OA
ENDBRANCH   7   9
BRANCH   2  16
ATOM     16  C   LIG    1        1.181   1.809  -0.018  0.00  0.00    -0.200 A 
ATOM     17  C   LIG    1        0.943   2.879  -0.892  0.00  0.00    +0.130 A 
ATOM     18  C   LIG    1       -0.292   3.494  -0.855  0.00  0.00    -0.010 A 
ATOM     19  C   LIG    1       -1.256   3.031   0.035  0.00  0.00    +0.400 A 
ATOM     20  N   LIG    1       -1.001   2.017   0.848  0.00  0.00    -0.510 NA
ATOM     21  C   LIG    1        0.164   1.405   0.849  0.00  0.00    +0.370 A 
BRANCH  19  22
ATOM     22  N   LIG    1       -2.508   3.646   0.074  0.00  0.00    -0.330 N 
ATOM     23  C   LIG    1       -3.543   3.304   0.885  0.00  0.00    +0.270 A 
ATOM     24  C   LIG    1       -4.569   4.143   0.615  0.00  0.00    -0.100 A 
ATOM     25  C   LIG    1       -4.156   5.018  -0.397  0.00  0.00    +0.270 A 
ATOM     26  N   LIG    1       -2.924   4.722  -0.721  0.00  0.00    -0.280 NA
ENDBRANCH  19  22
ENDBRANCH   2  16
TORSDOF 3
