REMARK  Name = ZINCrg00000AbYZg.0
REMARK                            x       y       z     vdW  Elec       q    Type
REMARK                         _______ _______ _______ _____ _____    ______ ____
ROOT
ATOM      1  N   LIG    1       -0.715   1.430   6.207  0.00  0.00    -0.470 N 
ATOM      2  C   LIG    1       -0.508   2.535   6.978  0.00  0.00    +0.490 A 
ATOM      3  N   LIG    1       -1.355   2.552   7.967  0.00  0.00    -0.450 NA
ATOM      4  C   LIG    1       -2.156   1.462   7.893  0.00  0.00    -0.050 A 
ATOM      5  C   LIG    1       -3.221   0.965   8.663  0.00  0.00    +0.390 A 
ATOM      6  N   LIG    1       -3.797  -0.173   8.288  0.00  0.00    -0.560 NA
ATOM      7  C   LIG    1       -3.385  -0.827   7.217  0.00  0.00    +0.550 A 
ATOM      8  N   LIG    1       -2.392  -0.399   6.466  0.00  0.00    -0.520 NA
ATOM      9  C   LIG    1       -1.759   0.732   6.760  0.00  0.00    +0.290 A 
ENDROOT
BRANCH   5  10
ATOM     10  N   LIG    1       -3.659   1.643   9.787  0.00  0.00    -0.410 N 
ATOM     11  C   LIG    1       -2.833   1.307  10.965  0.00  0.00    +0.220 C 
ATOM     12  C   LIG    1       -4.123   1.231  11.764  0.00  0.00    -0.110 C 
ATOM     13  C   LIG    1       -4.211   0.152  12.845  0.00  0.00    +0.280 C 
ATOM     14  N   LIG    1       -4.098   0.878  14.120  0.00  0.00    -0.730 N 
ATOM     15  H   LIG    1       -3.905   0.458  14.973  0.00  0.00    +0.410 HD
ATOM     16  C   LIG    1       -4.298   2.198  13.952  0.00  0.00    +0.520 C 
ATOM     17  O   LIG    1       -4.267   3.024  14.840  0.00  0.00    -0.530 OA
ATOM     18  C   LIG    1       -4.567   2.504  12.491  0.00  0.00    +0.100 C 
ATOM     19  C   LIG    1       -4.784   0.931  10.430  0.00  0.00    +0.240 C 
ENDBRANCH   5  10
BRANCH   1  20
ATOM     20  C   LIG    1        0.035   1.059   5.005  0.00  0.00    +0.300 C 
BRANCH  20  26
ATOM     21  C   LIG    1       -0.013   1.086   0.008  0.00  0.00    +0.020 C 
ATOM     22  C   LIG    1       -0.729   1.579   1.267  0.00  0.00    -0.010 C 
ATOM     23  C   LIG    1       -2.164   1.050   1.278  0.00  0.00    +0.010 C 
ATOM     24  C   LIG    1       -2.880   1.543   2.537  0.00  0.00    +0.020 C 
ATOM     25  C   LIG    1       -2.140   1.036   3.776  0.00  0.00    -0.000 C 
ATOM     26  C   LIG    1       -0.705   1.566   3.765  0.00  0.00    +0.120 C 
ATOM     27  C   LIG    1        0.011   1.072   2.506  0.00  0.00    +0.050 C 
BRANCH  26  28
ATOM     28  O   LIG    1       -0.724   2.995   3.773  0.00  0.00    -0.550 OA
ATOM     29  H   LIG    1       -1.164   3.378   4.544  0.00  0.00    +0.370 HD
ENDBRANCH  26  28
ENDBRANCH  20  26
ENDBRANCH   1  20
TORSDOF 4
