REMARK  Name = ZINCpe000000Ygr1.0
REMARK                            x       y       z     vdW  Elec       q    Type
REMARK                         _______ _______ _______ _____ _____    ______ ____
ROOT
ATOM      1  C   LIG    1       -1.038   0.788  -3.162  0.00  0.00    +0.590 C 
ATOM      2  N   LIG    1       -1.034  -0.381  -2.492  0.00  0.00    -0.710 N 
ATOM      3  H   LIG    1       -1.860  -0.875  -2.373  0.00  0.00    +0.400 HD
ATOM      4  O   LIG    1       -0.013   1.436  -3.261  0.00  0.00    -0.530 OA
ENDROOT
BRANCH   1  10
ATOM      5  C   LIG    1       -1.411   3.527  -4.534  0.00  0.00    +0.330 C 
ATOM      6  N   LIG    1       -2.448   2.503  -4.384  0.00  0.00    -0.390 N 
ATOM      7  C   LIG    1       -3.712   2.605  -4.826  0.00  0.00    +0.250 A 
ATOM      8  C   LIG    1       -4.385   1.445  -4.494  0.00  0.00    -0.230 A 
ATOM      9  C   LIG    1       -3.465   0.609  -3.823  0.00  0.00    +0.070 A 
ATOM     10  C   LIG    1       -2.280   1.281  -3.771  0.00  0.00    -0.060 A 
BRANCH   8  11
ATOM     11  C   LIG    1       -5.797   1.139  -4.784  0.00  0.00    +0.590 C 
ATOM     12  O   LIG    1       -6.273   0.075  -4.435  0.00  0.00    -0.550 OA
ATOM     13  N   LIG    1       -6.562   2.037  -5.436  0.00  0.00    -0.850 N 
ATOM     14  H   LIG    1       -7.491   1.835  -5.627  0.00  0.00    +0.410 HD
ATOM     15  H   LIG    1       -6.183   2.885  -5.714  0.00  0.00    +0.400 HD
ENDBRANCH   8  11
ENDBRANCH   1  10
BRANCH   2  16
ATOM     16  C   LIG    1        0.219  -0.907  -1.944  0.00  0.00    +0.280 C 
BRANCH  16  17
ATOM     17  C   LIG    1        0.117  -2.428  -1.807  0.00  0.00    -0.020 C 
ATOM     18  C   LIG    1        1.431  -2.980  -1.245  0.00  0.00    +0.020 C 
ATOM     19  C   LIG    1        1.348  -4.508  -1.185  0.00  0.00    +0.210 C 
ATOM     20  O   LIG    1        1.079  -5.020  -2.492  0.00  0.00    -0.380 OA
ATOM     21  C   LIG    1       -0.160  -4.575  -3.049  0.00  0.00    +0.210 C 
ATOM     22  C   LIG    1       -0.138  -3.050  -3.183  0.00  0.00    +0.000 C 
ENDBRANCH  16  17
BRANCH  16  23
ATOM     23  C   LIG    1        0.474  -0.287  -0.569  0.00  0.00    -0.100 C 
ATOM     24  C   LIG    1        0.593   1.246  -0.597  0.00  0.00    +0.030 C 
ATOM     25  C   LIG    1        2.098   1.046  -0.845  0.00  0.00    -0.000 C 
ATOM     26  C   LIG    1        1.952  -0.316  -0.145  0.00  0.00    +0.030 C 
BRANCH  23  27
ATOM     27  C   LIG    1       -0.482  -0.808   0.506  0.00  0.00    +0.180 C 
BRANCH  27  28
ATOM     28  O   LIG    1       -0.156  -0.212   1.763  0.00  0.00    -0.570 OA
ATOM     29  H   LIG    1       -0.723  -0.497   2.492  0.00  0.00    +0.380 HD
ENDBRANCH  27  28
ENDBRANCH  23  27
ENDBRANCH  16  23
ENDBRANCH   2  16
TORSDOF 7
