REMARK  Name = ZINCqH0000000vzf.0
REMARK                            x       y       z     vdW  Elec       q    Type
REMARK                         _______ _______ _______ _____ _____    ______ ____
ROOT
ATOM      1  C   LIG    1        2.881   1.141   2.315  0.00  0.00    +0.590 C 
ATOM      2  N   LIG    1        3.230   2.007   1.343  0.00  0.00    -0.720 N 
ATOM      3  H   LIG    1        3.983   2.604   1.474  0.00  0.00    +0.400 HD
ATOM      4  O   LIG    1        1.936   0.392   2.151  0.00  0.00    -0.520 OA
ENDROOT
BRANCH   1   9
ATOM      5  C   LIG    1        4.359   0.570   5.618  0.00  0.00    -0.260 A 
ATOM      6  C   LIG    1        5.164   1.577   5.111  0.00  0.00    +0.100 A 
ATOM      7  N   LIG    1        4.730   1.886   3.880  0.00  0.00    -0.530 N 
ATOM      8  H   LIG    1        5.120   2.558   3.300  0.00  0.00    +0.420 HD
ATOM      9  C   LIG    1        3.640   1.100   3.571  0.00  0.00    -0.060 A 
ATOM     10  C   LIG    1        6.333   2.213   5.819  0.00  0.00    +0.160 C 
ATOM     11  C   LIG    1        3.392   0.276   4.626  0.00  0.00    -0.020 A 
ATOM     12  C   LIG    1        2.296  -0.754   4.721  0.00  0.00    +0.120 C 
BRANCH   5  14
ATOM     13  C   LIG    1        5.392  -1.259   7.107  0.00  0.00    +0.070 C 
ATOM     14  C   LIG    1        4.484  -0.069   6.931  0.00  0.00    +0.440 C 
ATOM     15  O   LIG    1        3.856   0.360   7.877  0.00  0.00    -0.450 OA
ENDBRANCH   5  14
ENDBRANCH   1   9
BRANCH   2  16
ATOM     16  C   LIG    1        2.473   2.048   0.090  0.00  0.00    +0.360 C 
BRANCH  16  17
ATOM     17  C   LIG    1        1.272   2.943   0.258  0.00  0.00    +0.110 A 
ATOM     18  C   LIG    1        0.002   2.404   0.183  0.00  0.00    -0.010 A 
ATOM     19  C   LIG    1       -1.096   3.238   0.333  0.00  0.00    +0.060 A 
ATOM     20  C   LIG    1       -0.874   4.587   0.564  0.00  0.00    -0.030 A 
ATOM     21  C   LIG    1        0.426   5.054   0.626  0.00  0.00    +0.260 A 
ATOM     22  N   LIG    1        1.446   4.233   0.474  0.00  0.00    -0.470 NA
ENDBRANCH  16  17
BRANCH  16  23
ATOM     23  C   LIG    1        3.350   2.585  -1.010  0.00  0.00    -0.090 A 
ATOM     24  C   LIG    1        4.208   3.639  -0.758  0.00  0.00    +0.030 A 
ATOM     25  C   LIG    1        5.017   4.129  -1.767  0.00  0.00    +0.000 A 
ATOM     26  C   LIG    1        4.960   3.571  -3.030  0.00  0.00    +0.010 A 
ATOM     27  C   LIG    1        4.099   2.521  -3.284  0.00  0.00    +0.010 A 
ATOM     28  C   LIG    1        3.293   2.028  -2.274  0.00  0.00    +0.020 A 
ENDBRANCH  16  23
ENDBRANCH   2  16
TORSDOF 5
