REMARK  Name = ZINCrH00000kpDRL.0
REMARK                            x       y       z     vdW  Elec       q    Type
REMARK                         _______ _______ _______ _____ _____    ______ ____
ROOT
ATOM      1  C   LIG    1       -0.018   1.470   0.010  0.00  0.00    +0.610 C 
ATOM      2  N   LIG    1       -1.194   2.128   0.019  0.00  0.00    -0.700 N 
ATOM      3  H   LIG    1       -2.027   1.632   0.021  0.00  0.00    +0.400 HD
ATOM      4  O   LIG    1        1.027   2.092   0.004  0.00  0.00    -0.540 OA
ENDROOT
BRANCH   2   5
ATOM      5  C   LIG    1       -1.214   3.593   0.027  0.00  0.00    +0.280 C 
ATOM      6  C   LIG    1       -2.449   4.279   0.615  0.00  0.00    -0.030 C 
ATOM      7  C   LIG    1       -3.726   3.451   0.810  0.00  0.00    +0.120 C 
ATOM      8  C   LIG    1       -4.176   3.004  -0.560  0.00  0.00    -0.090 A 
ATOM      9  C   LIG    1       -5.268   2.231  -0.926  0.00  0.00    +0.030 A 
ATOM     10  C   LIG    1       -5.499   1.934  -2.256  0.00  0.00    -0.030 A 
ATOM     11  C   LIG    1       -4.636   2.410  -3.227  0.00  0.00    +0.030 A 
ATOM     12  C   LIG    1       -3.550   3.180  -2.863  0.00  0.00    +0.040 A 
ATOM     13 CL   LIG    1       -6.867   0.966  -2.707  0.00  0.00    -0.060 Cl
ATOM     14  C   LIG    1       -3.317   3.478  -1.528  0.00  0.00    -0.060 A 
ATOM     15  C   LIG    1       -2.211   4.290  -0.900  0.00  0.00    -0.010 C 
ENDBRANCH   2   5
BRANCH   1  20
ATOM     16  C   LIG    1        1.566  -3.268  -0.031  0.00  0.00    +0.360 C 
ATOM     17  N   LIG    1        0.704  -2.084  -0.016  0.00  0.00    -0.360 N 
ATOM     18  N   LIG    1       -0.695  -2.090  -0.003  0.00  0.00    -0.290 NA
ATOM     19  C   LIG    1       -1.123  -0.858   0.008  0.00  0.00    +0.270 A 
ATOM     20  C   LIG    1        0.002  -0.004   0.002  0.00  0.00    -0.300 A 
ATOM     21  C   LIG    1        1.124  -0.808  -0.019  0.00  0.00    +0.170 A 
BRANCH  21  22
ATOM     22  C   LIG    1        2.556  -0.341  -0.036  0.00  0.00    +0.180 C 
BRANCH  22  23
ATOM     23  C   LIG    1        3.014  -0.177  -1.463  0.00  0.00    -0.080 A 
ATOM     24  C   LIG    1        3.600  -1.238  -2.127  0.00  0.00    +0.000 A 
ATOM     25  C   LIG    1        4.015  -1.089  -3.437  0.00  0.00    +0.000 A 
ATOM     26  C   LIG    1        3.853   0.124  -4.080  0.00  0.00    +0.000 A 
ATOM     27  C   LIG    1        3.271   1.187  -3.414  0.00  0.00    +0.000 A 
ATOM     28  C   LIG    1        2.852   1.036  -2.106  0.00  0.00    +0.040 A 
ENDBRANCH  22  23
ENDBRANCH  21  22
ENDBRANCH   1  20
TORSDOF 4
