REMARK  Name = ZINCpk00000xIe0c.0
REMARK                            x       y       z     vdW  Elec       q    Type
REMARK                         _______ _______ _______ _____ _____    ______ ____
ROOT
ATOM      1  C   LIG    1        4.848   4.244  -0.020  0.00  0.00    +0.510 C 
ATOM      2  O   LIG    1        5.910   3.651  -0.033  0.00  0.00    -0.510 OA
ENDROOT
BRANCH   1   4
ATOM      3  C   LIG    1        3.650   2.166  -0.021  0.00  0.00    +0.170 C 
ATOM      4  C   LIG    1        3.630   3.517  -0.013  0.00  0.00    -0.080 C 
BRANCH   3   8
ATOM      5  C   LIG    1        0.002  -0.004   0.002  0.00  0.00    +0.120 A 
ATOM      6  C   LIG    1       -0.017   1.384   0.010  0.00  0.00    -0.040 A 
ATOM      7  C   LIG    1        1.165   2.093   0.002  0.00  0.00    +0.060 A 
ATOM      8  C   LIG    1        2.388   1.413  -0.013  0.00  0.00    -0.090 A 
ATOM      9  C   LIG    1        2.406   0.013  -0.021  0.00  0.00    +0.000 A 
ATOM     10  C   LIG    1        1.217  -0.689  -0.013  0.00  0.00    +0.100 A 
BRANCH   5  12
ATOM     11  C   LIG    1       -2.373   0.067   0.024  0.00  0.00    +0.240 C 
ATOM     12  O   LIG    1       -1.166  -0.697   0.009  0.00  0.00    -0.300 OA
ENDBRANCH   5  12
BRANCH  10  13
ATOM     13  O   LIG    1        1.231  -2.049  -0.020  0.00  0.00    -0.300 OA
ATOM     14  C   LIG    1        2.510  -2.685  -0.036  0.00  0.00    +0.240 C 
ENDBRANCH  10  13
ENDBRANCH   3   8
ENDBRANCH   1   4
BRANCH   1  15
ATOM     15  O   LIG    1        4.828   5.593  -0.013  0.00  0.00    -0.320 OA
BRANCH  15  16
ATOM     16  C   LIG    1        6.092   6.260  -0.021  0.00  0.00    +0.200 C 
BRANCH  16  17
ATOM     17  C   LIG    1        5.968   7.579   0.698  0.00  0.00    +0.520 C 
ATOM     18  N   LIG    1        7.041   8.385   0.815  0.00  0.00    -0.690 N 
ATOM     19  H   LIG    1        7.893   8.117   0.438  0.00  0.00    +0.410 HD
ATOM     20  C   LIG    1        6.931   9.565   1.458  0.00  0.00    +0.700 C 
ATOM     21  O   LIG    1        5.863   9.901   1.932  0.00  0.00    -0.530 OA
ATOM     22  N   LIG    1        8.004  10.371   1.576  0.00  0.00    -0.860 N 
ATOM     23  H   LIG    1        7.924  11.220   2.038  0.00  0.00    +0.420 HD
ATOM     24  H   LIG    1        8.856  10.103   1.198  0.00  0.00    +0.400 HD
ATOM     25  O   LIG    1        4.903   7.914   1.170  0.00  0.00    -0.440 OA
ENDBRANCH  16  17
BRANCH  16  26
ATOM     26  C   LIG    1        6.529   6.506  -1.466  0.00  0.00    -0.020 C 
ATOM     27  C   LIG    1        5.489   7.376  -2.173  0.00  0.00    +0.040 C 
ATOM     28  C   LIG    1        6.655   5.167  -2.196  0.00  0.00    +0.030 C 
ENDBRANCH  16  26
ENDBRANCH  15  16
ENDBRANCH   1  15
TORSDOF 8
