REMARK  Name = ZINCkj00000y7IoG.0
REMARK                            x       y       z     vdW  Elec       q    Type
REMARK                         _______ _______ _______ _____ _____    ______ ____
ROOT
ATOM      1  C   LIG    1        1.059   0.913   7.778  0.00  0.00    +0.080 C 
ATOM      2  C   LIG    1        2.133   1.306   6.762  0.00  0.00    +0.390 C 
ENDROOT
BRANCH   2   3
ATOM      3  C   LIG    1        3.063   2.317   7.381  0.00  0.00    +0.180 A 
ATOM      4  N   LIG    1        4.283   2.098   7.807  0.00  0.00    -0.420 NA
ATOM      5  C   LIG    1        4.722   3.281   8.275  0.00  0.00    +0.090 A 
ATOM      6  N   LIG    1        3.763   4.143   8.111  0.00  0.00    -0.310 NA
ATOM      7  O   LIG    1        2.804   3.611   7.594  0.00  0.00    +0.120 OA
BRANCH   5   8
ATOM      8  C   LIG    1        6.076   3.555   8.877  0.00  0.00    +0.580 C 
ATOM      9  F   LIG    1        6.698   2.344   9.197  0.00  0.00    -0.140 F 
ATOM     10  F   LIG    1        5.923   4.322  10.037  0.00  0.00    -0.150 F 
ATOM     11  F   LIG    1        6.862   4.255   7.955  0.00  0.00    -0.150 F 
ENDBRANCH   5   8
ENDBRANCH   2   3
BRANCH   2  12
ATOM     12  N   LIG    1        1.496   1.888   5.578  0.00  0.00    -0.720 N 
ATOM     13  H   LIG    1        1.401   2.850   5.502  0.00  0.00    +0.410 HD
ATOM     14  C   LIG    1        1.043   1.086   4.594  0.00  0.00    +0.550 C 
ATOM     15  O   LIG    1        1.162  -0.120   4.689  0.00  0.00    -0.520 OA
BRANCH  14  16
ATOM     16  C   LIG    1        0.403   1.671   3.405  0.00  0.00    +0.010 C 
ATOM     17  C   LIG    1       -0.044   0.880   2.434  0.00  0.00    +0.010 C 
BRANCH  17  18
ATOM     18  C   LIG    1       -0.699   1.479   1.216  0.00  0.00    +0.310 C 
BRANCH  18  19
ATOM     19  N   LIG    1       -0.012   1.005   0.008  0.00  0.00    -0.390 N 
ATOM     20  C   LIG    1       -0.722   1.492  -1.183  0.00  0.00    +0.330 C 
ATOM     21  C   LIG    1        1.367   1.513  -0.003  0.00  0.00    +0.320 C 
ATOM     22  H   LIG    1        0.002  -0.004   0.002  0.00  0.00    +0.430 HD
ENDBRANCH  18  19
ENDBRANCH  17  18
ENDBRANCH  14  16
ENDBRANCH   2  12
TORSDOF 6
