REMARK  Name = ZINCrH000004rMdw.0
REMARK                            x       y       z     vdW  Elec       q    Type
REMARK                         _______ _______ _______ _____ _____    ______ ____
ROOT
ATOM      1  N   LIG    1        3.250   0.290   0.034  0.00  0.00    -0.720 N 
ATOM      2  H   LIG    1        3.280  -0.586   0.451  0.00  0.00    +0.410 HD
ATOM      3  C   LIG    1        2.477   0.494  -1.051  0.00  0.00    +0.520 C 
ATOM      4  O   LIG    1        2.440   1.589  -1.571  0.00  0.00    -0.520 OA
ENDROOT
BRANCH   3   5
ATOM      5  C   LIG    1        1.659  -0.638  -1.617  0.00  0.00    +0.180 C 
ATOM      6  C   LIG    1        0.680  -1.141  -0.555  0.00  0.00    +0.030 C 
BRANCH   5   7
ATOM      7  N   LIG    1        0.910  -0.163  -2.788  0.00  0.00    -0.660 NA
ATOM      8  H   LIG    1        0.073   0.326  -2.508  0.00  0.00    +0.350 HD
BRANCH   7   9
ATOM      9  C   LIG    1        0.593  -1.273  -3.696  0.00  0.00    +0.180 C 
ATOM     10  C   LIG    1        1.776  -1.518  -4.635  0.00  0.00    +0.050 C 
BRANCH   9  11
ATOM     11  C   LIG    1       -0.628  -0.925  -4.508  0.00  0.00    -0.080 A 
ATOM     12  C   LIG    1       -0.955   0.399  -4.731  0.00  0.00    +0.040 A 
ATOM     13  C   LIG    1       -2.076   0.719  -5.476  0.00  0.00    +0.020 A 
ATOM     14  C   LIG    1       -2.869  -0.286  -5.997  0.00  0.00    +0.020 A 
ATOM     15  C   LIG    1       -2.543  -1.611  -5.774  0.00  0.00    +0.020 A 
ATOM     16  C   LIG    1       -1.418  -1.931  -5.035  0.00  0.00    -0.030 A 
ATOM     17 CL   LIG    1       -1.003  -3.594  -4.762  0.00  0.00    -0.070 Cl
ENDBRANCH   9  11
ENDBRANCH   7   9
ENDBRANCH   5   7
ENDBRANCH   3   5
BRANCH   1  18
ATOM     18  C   LIG    1        4.045   1.390   0.585  0.00  0.00    +0.300 C 
BRANCH  18  21
ATOM     19  N   LIG    1        5.619   1.748   2.459  0.00  0.00    -0.670 N 
ATOM     20  H   LIG    1        5.745   2.656   2.140  0.00  0.00    +0.410 HD
ATOM     21  C   LIG    1        4.814   0.903   1.786  0.00  0.00    +0.510 C 
ATOM     22  O   LIG    1        4.707  -0.250   2.147  0.00  0.00    -0.510 OA
BRANCH  19  30
ATOM     23  C   LIG    1        4.059   0.552   4.517  0.00  0.00    +0.080 C 
ATOM     24  C   LIG    1        5.550   0.728   4.648  0.00  0.00    -0.070 A 
ATOM     25  C   LIG    1        6.199   0.300   5.789  0.00  0.00    +0.020 A 
ATOM     26  C   LIG    1        7.566   0.466   5.912  0.00  0.00    +0.020 A 
ATOM     27  C   LIG    1        8.289   1.056   4.891  0.00  0.00    +0.020 A 
ATOM     28  C   LIG    1        7.646   1.482   3.745  0.00  0.00    -0.090 A 
ATOM     29  C   LIG    1        8.434   2.126   2.634  0.00  0.00    +0.080 C 
ATOM     30  C   LIG    1        6.273   1.317   3.619  0.00  0.00    +0.130 A 
ENDBRANCH  19  30
ENDBRANCH  18  21
ENDBRANCH   1  18
TORSDOF 7
