REMARK  Name = ZINCpk000000ozYs.0
REMARK                            x       y       z     vdW  Elec       q    Type
REMARK                         _______ _______ _______ _____ _____    ______ ____
ROOT
ATOM      1  C   LIG    1        2.924   0.814  -1.478  0.00  0.00    +0.270 C 
ENDROOT
BRANCH   1   2
ATOM      2  C   LIG    1        4.339   0.296  -1.488  0.00  0.00    +0.520 C 
ATOM      3  N   LIG    1        5.318   0.998  -0.883  0.00  0.00    -0.610 N 
ATOM      4  C   LIG    1        6.723   0.573  -0.982  0.00  0.00    +0.300 C 
ATOM      5  C   LIG    1        7.560   1.778  -1.438  0.00  0.00    +0.170 C 
ATOM      6  N   LIG    1        7.316   2.909  -0.533  0.00  0.00    -0.540 NA
ATOM      7  C   LIG    1        5.914   3.344  -0.590  0.00  0.00    +0.170 C 
ATOM      8  C   LIG    1        8.226   4.024  -0.826  0.00  0.00    +0.190 C 
ATOM      9  C   LIG    1        5.010   2.206  -0.103  0.00  0.00    +0.290 C 
ATOM     10  O   LIG    1        4.597  -0.753  -2.039  0.00  0.00    -0.530 OA
ENDBRANCH   1   2
BRANCH   1  13
ATOM     11  N   LIG    1        0.215  -0.259  -3.720  0.00  0.00    -0.630 N 
ATOM     12  C   LIG    1        0.978   0.501  -2.910  0.00  0.00    +0.710 C 
ATOM     13  N   LIG    1        2.095  -0.012  -2.358  0.00  0.00    -0.730 N 
ATOM     14  H   LIG    1        2.350  -0.930  -2.544  0.00  0.00    +0.400 HD
ATOM     15  O   LIG    1        0.659   1.651  -2.678  0.00  0.00    -0.570 OA
BRANCH  11  17
ATOM     16  C   LIG    1       -0.654   0.937  -5.668  0.00  0.00    -0.000 C 
ATOM     17  C   LIG    1       -0.999   0.299  -4.321  0.00  0.00    +0.280 C 
ENDBRANCH  11  17
BRANCH  11  18
ATOM     18  C   LIG    1        0.601  -1.645  -4.001  0.00  0.00    +0.250 C 
ATOM     19  C   LIG    1       -0.032  -2.570  -2.960  0.00  0.00    +0.020 C 
ENDBRANCH  11  18
ENDBRANCH   1  13
BRANCH   1  20
ATOM     20  C   LIG    1        2.370   0.757  -0.053  0.00  0.00    +0.070 C 
BRANCH  20  21
ATOM     21  C   LIG    1        0.977   1.333  -0.032  0.00  0.00    -0.060 A 
ATOM     22  C   LIG    1       -0.114   0.511  -0.243  0.00  0.00    +0.010 A 
ATOM     23  C   LIG    1       -1.391   1.040  -0.229  0.00  0.00    +0.000 A 
ATOM     24  C   LIG    1       -1.577   2.390   0.005  0.00  0.00    -0.010 A 
ATOM     25  C   LIG    1       -0.486   3.212   0.216  0.00  0.00    +0.010 A 
ATOM     26  C   LIG    1        0.791   2.683   0.197  0.00  0.00    +0.010 A 
ENDBRANCH  20  21
ENDBRANCH   1  20
TORSDOF 6
