REMARK  Name = ZINCnE000001TgQ3.0
REMARK                            x       y       z     vdW  Elec       q    Type
REMARK                         _______ _______ _______ _____ _____    ______ ____
ROOT
ATOM      1  O   LIG    1       -2.350   1.492   0.021  0.00  0.00    -0.540 OA
ATOM      2  C   LIG    1       -1.306   2.114   0.020  0.00  0.00    +0.570 C 
ATOM      3  N   LIG    1       -1.324   3.462   0.027  0.00  0.00    -0.700 N 
ATOM      4  H   LIG    1       -0.490   3.958   0.026  0.00  0.00    +0.400 HD
ENDROOT
BRANCH   3   5
ATOM      5  C   LIG    1       -2.602   4.177   0.037  0.00  0.00    +0.230 C 
ATOM      6  C   LIG    1       -2.735   5.375   0.980  0.00  0.00    +0.010 C 
ATOM      7  C   LIG    1       -2.621   5.598  -0.527  0.00  0.00    -0.130 C 
ATOM      8  C   LIG    1       -3.877   6.048  -1.278  0.00  0.00    +0.060 C 
ATOM      9  C   LIG    1       -3.700   5.743  -2.769  0.00  0.00    +0.000 C 
ATOM     10  C   LIG    1       -2.432   6.427  -3.282  0.00  0.00    +0.000 C 
ATOM     11  C   LIG    1       -1.208   5.857  -2.563  0.00  0.00    +0.000 C 
ATOM     12  C   LIG    1       -1.305   6.166  -1.067  0.00  0.00    +0.050 C 
ENDBRANCH   3   5
BRANCH   2  13
ATOM     13  C   LIG    1       -0.017   1.393   0.010  0.00  0.00    -0.140 A 
ATOM     14  C   LIG    1        1.184   2.108   0.002  0.00  0.00    +0.050 A 
ATOM     15  C   LIG    1        2.385   1.436  -0.013  0.00  0.00    +0.040 A 
ATOM     16  C   LIG    1        2.403   0.039  -0.020  0.00  0.00    +0.040 A 
ATOM     17  C   LIG    1        1.203  -0.676  -0.013  0.00  0.00    +0.060 A 
ATOM     18  C   LIG    1        0.002  -0.004   0.002  0.00  0.00    +0.090 A 
BRANCH  16  19
ATOM     19  C   LIG    1        3.693  -0.682  -0.036  0.00  0.00    +0.160 A 
ATOM     20  N   LIG    1        3.834  -1.977  -0.039  0.00  0.00    -0.290 NA
ATOM     21  N   LIG    1        5.209  -2.257  -0.059  0.00  0.00    -0.370 NA
ATOM     22  C   LIG    1        5.850  -1.069  -0.058  0.00  0.00    +0.350 A 
ATOM     23  S   LIG    1        7.546  -0.834  -0.073  0.00  0.00    -0.690 S 
ATOM     24  O   LIG    1        4.914  -0.104  -0.044  0.00  0.00    -0.260 OA
ENDBRANCH  16  19
ENDBRANCH   2  13
TORSDOF 3
