REMARK  Name = ZINCqH0000008k6e.0
REMARK                            x       y       z     vdW  Elec       q    Type
REMARK                         _______ _______ _______ _____ _____    ______ ____
ROOT
ATOM      1  N   LIG    1        1.384   1.592   0.024  0.00  0.00    -0.690 N 
ATOM      2  H   LIG    1        1.596   2.408   0.503  0.00  0.00    +0.420 HD
ENDROOT
BRANCH   1   3
ATOM      3  C   LIG    1        2.382   0.911  -0.666  0.00  0.00    +0.420 A 
ATOM      4  N   LIG    1        2.086  -0.193  -1.312  0.00  0.00    -0.340 NA
ATOM      5  N   LIG    1        3.073  -0.891  -2.011  0.00  0.00    -0.270 N 
ATOM      6  C   LIG    1        4.364  -0.425  -2.027  0.00  0.00    +0.110 A 
ATOM      7  C   LIG    1        4.680   0.759  -1.335  0.00  0.00    +0.190 A 
ATOM      8  N   LIG    1        5.070  -1.276  -2.756  0.00  0.00    -0.250 NA
ATOM      9  N   LIG    1        4.297  -2.216  -3.177  0.00  0.00    -0.260 NA
ATOM     10  C   LIG    1        3.074  -2.022  -2.748  0.00  0.00    +0.240 A 
ATOM     11  C   LIG    1        3.696   1.419  -0.668  0.00  0.00    -0.020 A 
BRANCH  10  12
ATOM     12  C   LIG    1        1.884  -2.903  -3.026  0.00  0.00    +0.040 C 
ATOM     13  C   LIG    1        2.144  -4.245  -3.713  0.00  0.00    +0.070 C 
ATOM     14  C   LIG    1        1.480  -3.104  -4.488  0.00  0.00    +0.050 C 
ENDBRANCH  10  12
ENDBRANCH   1   3
BRANCH   1  16
ATOM     15  C   LIG    1       -0.720   1.567  -1.223  0.00  0.00    +0.040 C 
ATOM     16  C   LIG    1        0.013   1.075   0.027  0.00  0.00    +0.290 C 
BRANCH  16  17
ATOM     17  C   LIG    1       -0.706   1.567   1.257  0.00  0.00    -0.090 A 
ATOM     18  C   LIG    1       -0.510   2.862   1.700  0.00  0.00    +0.000 A 
ATOM     19  C   LIG    1       -1.172   3.319   2.825  0.00  0.00    +0.020 A 
ATOM     20  C   LIG    1       -2.023   2.479   3.516  0.00  0.00    +0.040 A 
ATOM     21  C   LIG    1       -2.217   1.175   3.077  0.00  0.00    +0.090 A 
ATOM     22  C   LIG    1       -1.555   0.721   1.944  0.00  0.00    -0.020 A 
BRANCH  21  23
ATOM     23  N   LIG    1       -3.077   0.323   3.774  0.00  0.00    -0.480 N 
ATOM     24  C   LIG    1       -4.228  -0.081   2.927  0.00  0.00    +0.180 C 
ATOM     25  C   LIG    1       -4.743  -1.368   3.619  0.00  0.00    +0.040 C 
ATOM     26  C   LIG    1       -3.439  -2.058   4.081  0.00  0.00    +0.020 C 
ATOM     27  C   LIG    1       -2.390  -0.933   4.147  0.00  0.00    +0.170 C 
ENDBRANCH  21  23
ENDBRANCH  16  17
ENDBRANCH   1  16
TORSDOF 5
