REMARK  Name = ZINCpe00000zsuxj.0
REMARK                            x       y       z     vdW  Elec       q    Type
REMARK                         _______ _______ _______ _____ _____    ______ ____
ROOT
ATOM      1  O   LIG    1        2.634   6.063   2.492  0.00  0.00    -0.520 OA
ATOM      2  C   LIG    1        3.105   5.040   2.034  0.00  0.00    +0.570 C 
ATOM      3  N   LIG    1        2.344   4.231   1.269  0.00  0.00    -0.610 N 
ATOM      4  C   LIG    1        2.876   2.954   0.772  0.00  0.00    +0.270 C 
ATOM      5  C   LIG    1        2.735   2.926  -0.755  0.00  0.00    +0.290 C 
ATOM      6  N   LIG    1        1.359   3.305  -1.106  0.00  0.00    -0.610 N 
ATOM      7  C   LIG    1        0.829   4.584  -0.614  0.00  0.00    +0.270 C 
ATOM      8  C   LIG    1        0.599   2.496  -1.871  0.00  0.00    +0.560 C 
ATOM      9  O   LIG    1        1.079   1.495  -2.358  0.00  0.00    -0.500 OA
ATOM     10  C   LIG    1        0.969   4.610   0.917  0.00  0.00    +0.290 C 
ENDROOT
BRANCH   2  11
ATOM     11  C   LIG    1        4.508   4.684   2.314  0.00  0.00    -0.180 A 
ATOM     12  C   LIG    1        4.874   3.344   2.469  0.00  0.00    +0.100 A 
ATOM     13  C   LIG    1        6.185   3.015   2.730  0.00  0.00    -0.010 A 
ATOM     14  C   LIG    1        7.146   4.014   2.841  0.00  0.00    +0.170 A 
ATOM     15  C   LIG    1        6.790   5.348   2.688  0.00  0.00    -0.040 A 
ATOM     16  C   LIG    1        5.479   5.687   2.421  0.00  0.00    +0.180 A 
ATOM     17  F   LIG    1        5.133   6.984   2.268  0.00  0.00    -0.110 F 
BRANCH  14  18
ATOM     18  O   LIG    1        8.437   3.684   3.099  0.00  0.00    -0.490 OA
ATOM     19  H   LIG    1        8.970   3.532   2.307  0.00  0.00    +0.400 HD
ENDBRANCH  14  18
ENDBRANCH   2  11
BRANCH   8  20
ATOM     20  C   LIG    1       -0.846   2.840  -2.126  0.00  0.00    -0.160 C 
ATOM     21  C   LIG    1       -1.761   2.995  -0.909  0.00  0.00    +0.110 C 
ATOM     22  C   LIG    1       -1.893   1.769  -1.813  0.00  0.00    +0.240 C 
ATOM     23  F   LIG    1       -1.435   0.545  -1.313  0.00  0.00    -0.150 F 
ATOM     24  F   LIG    1       -3.014   1.698  -2.647  0.00  0.00    -0.150 F 
BRANCH  20  25
ATOM     25  C   LIG    1       -1.106   3.753  -3.326  0.00  0.00    +0.260 C 
BRANCH  25  26
ATOM     26  O   LIG    1       -0.527   3.175  -4.498  0.00  0.00    -0.560 OA
ATOM     27  H   LIG    1       -0.587   3.736  -5.283  0.00  0.00    +0.390 HD
ENDBRANCH  25  26
ENDBRANCH  20  25
ENDBRANCH   8  20
TORSDOF 5
