REMARK  Name = ZINCqH0000002m6i.0
REMARK                            x       y       z     vdW  Elec       q    Type
REMARK                         _______ _______ _______ _____ _____    ______ ____
ROOT
ATOM      1  N   LIG    1       -1.393  -2.000   0.256  0.00  0.00    -0.600 N 
ATOM      2  C   LIG    1       -1.067  -2.675   1.376  0.00  0.00    +0.590 C 
ATOM      3  O   LIG    1       -0.958  -3.886   1.346  0.00  0.00    -0.530 OA
ENDROOT
BRANCH   2   4
ATOM      4  C   LIG    1       -0.843  -1.947   2.636  0.00  0.00    +0.010 A 
ATOM      5  C   LIG    1       -0.428  -2.549   3.774  0.00  0.00    -0.040 A 
ATOM      6  S   LIG    1       -0.286  -1.368   5.002  0.00  0.00    +0.220 S 
ATOM      7  C   LIG    1       -0.797  -0.141   3.929  0.00  0.00    +0.040 A 
ATOM      8  N   LIG    1       -1.036  -0.631   2.763  0.00  0.00    -0.430 NA
BRANCH   7   9
ATOM      9  C   LIG    1       -0.948   1.312   4.296  0.00  0.00    +0.010 C 
ATOM     10  C   LIG    1       -0.025   2.159   3.417  0.00  0.00    +0.060 C 
ATOM     11  C   LIG    1       -0.573   1.508   5.766  0.00  0.00    +0.040 C 
ATOM     12  C   LIG    1       -2.399   1.746   4.078  0.00  0.00    +0.060 C 
ENDBRANCH   7   9
ENDBRANCH   2   4
BRANCH   1  13
ATOM     13  C   LIG    1       -1.708  -2.730  -0.974  0.00  0.00    +0.280 C 
BRANCH  13  14
ATOM     14  C   LIG    1       -0.427  -2.944  -1.783  0.00  0.00    +0.000 C 
BRANCH  14  15
ATOM     15  C   LIG    1       -0.757  -3.707  -3.068  0.00  0.00    +0.000 C 
BRANCH  15  16
ATOM     16  C   LIG    1        0.524  -3.921  -3.877  0.00  0.00    +0.000 C 
BRANCH  16  18
ATOM     17  C   LIG    1        1.476  -4.897  -5.970  0.00  0.00    +0.000 C 
ATOM     18  C   LIG    1        0.195  -4.683  -5.161  0.00  0.00    -0.010 C 
ENDBRANCH  16  18
ENDBRANCH  15  16
ENDBRANCH  14  15
ENDBRANCH  13  14
ENDBRANCH   1  13
BRANCH   1  19
ATOM     19  C   LIG    1       -1.432  -0.535   0.269  0.00  0.00    +0.300 C 
BRANCH  19  20
ATOM     20  C   LIG    1       -0.018   0.014   0.068  0.00  0.00    +0.150 C 
BRANCH  20  21
ATOM     21  N   LIG    1       -0.057   1.482   0.081  0.00  0.00    -0.520 NA
ATOM     22  C   LIG    1       -0.795   2.000  -1.081  0.00  0.00    +0.140 C 
ATOM     23  C   LIG    1       -0.863   3.527  -0.996  0.00  0.00    +0.220 C 
ATOM     24  O   LIG    1        0.464   4.055  -0.919  0.00  0.00    -0.380 OA
ATOM     25  C   LIG    1        1.211   3.572   0.201  0.00  0.00    +0.220 C 
ATOM     26  C   LIG    1        1.300   2.045   0.129  0.00  0.00    +0.140 C 
ENDBRANCH  20  21
ENDBRANCH  19  20
ENDBRANCH   1  19
TORSDOF 10
