REMARK  Name = ZINCpe000000YoPs.0
REMARK                            x       y       z     vdW  Elec       q    Type
REMARK                         _______ _______ _______ _____ _____    ______ ____
ROOT
ATOM      1  C   LIG    1       -1.254   1.379  -2.274  0.00  0.00    +0.620 C 
ATOM      2  N   LIG    1       -0.914   1.662  -1.001  0.00  0.00    -0.630 N 
ATOM      3  C   LIG    1       -0.025   1.076   0.013  0.00  0.00    +0.330 C 
ATOM      4  C   LIG    1       -0.941   1.676   1.088  0.00  0.00    -0.010 C 
ATOM      5  C   LIG    1       -2.116   0.780   1.483  0.00  0.00    +0.100 C 
ATOM      6  C   LIG    1       -1.268   2.694  -0.015  0.00  0.00    +0.340 C 
ATOM      7  O   LIG    1       -2.119   2.025  -2.830  0.00  0.00    -0.510 OA
ENDROOT
BRANCH   1  15
ATOM      8  C   LIG    1       -1.663   0.630  -5.246  0.00  0.00    +0.360 C 
ATOM      9  N   LIG    1       -0.755  -0.052  -4.320  0.00  0.00    -0.380 N 
ATOM     10  N   LIG    1        0.061  -1.142  -4.639  0.00  0.00    -0.500 N 
ATOM     11  H   LIG    1        0.122  -1.572  -5.507  0.00  0.00    +0.440 HD
ATOM     12  C   LIG    1        0.749  -1.492  -3.533  0.00  0.00    +0.530 A 
ATOM     13  C   LIG    1        0.346  -0.568  -2.467  0.00  0.00    -0.120 A 
ATOM     14  O   LIG    1        1.555  -2.399  -3.438  0.00  0.00    -0.530 OA
ATOM     15  C   LIG    1       -0.570   0.278  -2.997  0.00  0.00    +0.140 A 
ENDBRANCH   1  15
BRANCH   4  16
ATOM     16  C   LIG    1       -0.209   2.258   2.270  0.00  0.00    +0.180 A 
ATOM     17  N   LIG    1        0.665   3.224   2.236  0.00  0.00    -0.270 NA
ATOM     18  N   LIG    1        1.082   3.464   3.429  0.00  0.00    -0.270 NA
ATOM     19  C   LIG    1        0.497   2.653   4.263  0.00  0.00    +0.180 A 
ATOM     20  O   LIG    1       -0.333   1.872   3.551  0.00  0.00    -0.220 OA
BRANCH  19  21
ATOM     21  C   LIG    1        0.710   2.600   5.754  0.00  0.00    +0.110 C 
ATOM     22  C   LIG    1        0.351   3.955   6.372  0.00  0.00    +0.020 C 
ATOM     23  C   LIG    1        0.645   3.917   7.873  0.00  0.00    +0.220 C 
ATOM     24  O   LIG    1        2.022   3.593   8.079  0.00  0.00    -0.380 OA
ATOM     25  C   LIG    1        2.405   2.317   7.565  0.00  0.00    +0.220 C 
ATOM     26  C   LIG    1        2.181   2.291   6.050  0.00  0.00    +0.020 C 
ENDBRANCH  19  21
ENDBRANCH   4  16
TORSDOF 3
