REMARK  Name = ZINCrD000000fKyu.0
REMARK                            x       y       z     vdW  Elec       q    Type
REMARK                         _______ _______ _______ _____ _____    ______ ____
ROOT
ATOM      1  N   LIG    1        0.606   0.267  -0.479  0.00  0.00    -0.980 NA
ATOM      2  C   LIG    1        0.602   1.721  -0.303  0.00  0.00    +0.310 C 
ENDROOT
BRANCH   1   3
ATOM      3  S   LIG    1        0.461  -0.384  -1.995  0.00  0.00    +2.700 S 
ATOM      4  O   LIG    1       -0.182   0.599  -2.794  0.00  0.00    -0.940 OA
ATOM      5  O   LIG    1       -0.050  -1.699  -1.820  0.00  0.00    -0.950 OA
BRANCH   3   9
ATOM      6  C   LIG    1        4.646  -0.849  -3.661  0.00  0.00    +0.200 A 
ATOM      7  C   LIG    1        4.067  -1.883  -2.936  0.00  0.00    +0.010 A 
ATOM      8  C   LIG    1        2.790  -1.738  -2.429  0.00  0.00    +0.140 A 
ATOM      9  C   LIG    1        2.089  -0.565  -2.643  0.00  0.00    -0.700 A 
ATOM     10  C   LIG    1        2.661   0.464  -3.368  0.00  0.00    +0.150 A 
ATOM     11  C   LIG    1        3.939   0.327  -3.873  0.00  0.00    -0.030 A 
BRANCH   6  14
ATOM     12  C   LIG    1        7.712  -2.329  -5.268  0.00  0.00    +0.110 C 
ATOM     13  C   LIG    1        6.358  -2.196  -4.619  0.00  0.00    +0.510 C 
ATOM     14  N   LIG    1        5.939  -0.993  -4.176  0.00  0.00    -0.680 N 
ATOM     15  H   LIG    1        6.534  -0.228  -4.215  0.00  0.00    +0.420 HD
ATOM     16  O   LIG    1        5.646  -3.169  -4.495  0.00  0.00    -0.520 OA
ENDBRANCH   6  14
ENDBRANCH   3   9
ENDBRANCH   1   3
BRANCH   1  17
ATOM     17  C   LIG    1        0.737  -0.612   0.686  0.00  0.00    +0.350 C 
BRANCH  17  18
ATOM     18  C   LIG    1       -0.620  -0.834   1.303  0.00  0.00    +0.500 C 
ATOM     19  N   LIG    1       -0.744  -1.615   2.394  0.00  0.00    -0.670 N 
ATOM     20  H   LIG    1        0.028  -2.087   2.744  0.00  0.00    +0.420 HD
ATOM     21  O   LIG    1       -1.600  -0.311   0.817  0.00  0.00    -0.500 OA
BRANCH  19  22
ATOM     22  C   LIG    1       -1.988  -1.746   3.024  0.00  0.00    +0.170 A 
ATOM     23  C   LIG    1       -3.153  -1.739   2.270  0.00  0.00    +0.060 A 
ATOM     24  C   LIG    1       -4.379  -1.874   2.893  0.00  0.00    +0.090 A 
ATOM     25  C   LIG    1       -4.447  -2.004   4.269  0.00  0.00    -0.100 A 
ATOM     26  C   LIG    1       -3.287  -2.006   5.024  0.00  0.00    +0.090 A 
ATOM     27 BR   LIG    1       -6.127  -2.180   5.118  0.00  0.00    -0.030 Br
ATOM     28  C   LIG    1       -2.058  -1.877   4.406  0.00  0.00    -0.060 A 
ATOM     29 CL   LIG    1       -0.604  -1.878   5.354  0.00  0.00    -0.050 Cl
ENDBRANCH  19  22
ENDBRANCH  17  18
ENDBRANCH   1  17
TORSDOF 6
