REMARK  Name = ZINCrH00000No4J4.0
REMARK                            x       y       z     vdW  Elec       q    Type
REMARK                         _______ _______ _______ _____ _____    ______ ____
ROOT
ATOM      1  N   LIG    1       -3.006   1.338   4.904  0.00  0.00    -0.990 NA
ENDROOT
BRANCH   1   2
ATOM      2  S   LIG    1       -4.295   0.481   5.496  0.00  0.00    +2.670 S 
ATOM      3  O   LIG    1       -4.744  -0.351   4.435  0.00  0.00    -0.960 OA
ATOM      4  O   LIG    1       -5.132   1.421   6.155  0.00  0.00    -0.950 OA
BRANCH   2   6
ATOM      5  C   LIG    1       -3.841  -1.890   6.635  0.00  0.00    +0.220 C 
ATOM      6  C   LIG    1       -3.675  -0.596   6.745  0.00  0.00    -0.590 C 
ENDBRANCH   2   6
ENDBRANCH   1   2
BRANCH   1   7
ATOM      7  C   LIG    1       -2.546   2.542   5.600  0.00  0.00    +0.340 C 
BRANCH   7   8
ATOM      8  C   LIG    1       -3.180   3.757   4.975  0.00  0.00    -0.110 A 
ATOM      9  C   LIG    1       -2.549   4.407   3.930  0.00  0.00    +0.020 A 
ATOM     10  C   LIG    1       -3.133   5.519   3.354  0.00  0.00    +0.000 A 
ATOM     11  C   LIG    1       -4.344   5.988   3.828  0.00  0.00    +0.010 A 
ATOM     12  C   LIG    1       -4.973   5.342   4.877  0.00  0.00    -0.080 A 
ATOM     13  C   LIG    1       -4.391   4.227   5.450  0.00  0.00    +0.050 A 
BRANCH  12  14
ATOM     14  C   LIG    1       -6.293   5.853   5.394  0.00  0.00    +0.020 C 
ATOM     15  C   LIG    1       -7.328   5.824   4.267  0.00  0.00    +0.040 C 
ATOM     16  C   LIG    1       -6.123   7.289   5.894  0.00  0.00    +0.040 C 
ENDBRANCH  12  14
ENDBRANCH   7   8
ENDBRANCH   1   7
BRANCH   1  17
ATOM     17  C   LIG    1       -2.328   0.892   3.685  0.00  0.00    +0.280 C 
BRANCH  17  18
ATOM     18  C   LIG    1       -2.907   1.633   2.478  0.00  0.00    +0.010 C 
BRANCH  18  19
ATOM     19  C   LIG    1       -2.199   1.167   1.205  0.00  0.00    +0.000 C 
ATOM     20  C   LIG    1       -0.722   1.575   1.265  0.00  0.00    +0.020 C 
ATOM     21  C   LIG    1       -0.011   1.076   0.003  0.00  0.00    +0.270 C 
ATOM     22  N   LIG    1       -0.729   1.577  -1.177  0.00  0.00    -0.610 N 
ATOM     23  C   LIG    1       -2.171   1.319  -1.288  0.00  0.00    +0.260 C 
ATOM     24  C   LIG    1       -0.078   2.260  -2.139  0.00  0.00    +0.510 C 
ATOM     25  O   LIG    1        1.089   2.555  -1.989  0.00  0.00    -0.550 OA
ATOM     26  C   LIG    1       -0.799   2.658  -3.401  0.00  0.00    +0.090 C 
ATOM     27  C   LIG    1       -2.861   1.815  -0.013  0.00  0.00    +0.020 C 
ENDBRANCH  18  19
ENDBRANCH  17  18
ENDBRANCH   1  17
TORSDOF 8
