REMARK  Name = ZINCpk000000oEmp.0
REMARK                            x       y       z     vdW  Elec       q    Type
REMARK                         _______ _______ _______ _____ _____    ______ ____
ROOT
ATOM      1  N   LIG    1       -0.067   1.120  -2.437  0.00  0.00    -0.730 N 
ATOM      2  H   LIG    1        0.730   0.573  -2.358  0.00  0.00    +0.400 HD
ATOM      3  C   LIG    1       -0.543   1.446  -3.655  0.00  0.00    +0.530 C 
ATOM      4  O   LIG    1       -1.540   2.130  -3.753  0.00  0.00    -0.530 OA
ENDROOT
BRANCH   3   5
ATOM      5  C   LIG    1        0.162   0.960  -4.895  0.00  0.00    +0.000 C 
ATOM      6  C   LIG    1        1.607   1.506  -4.959  0.00  0.00    +0.070 C 
ATOM      7  C   LIG    1        1.833   1.784  -6.429  0.00  0.00    +0.520 C 
ATOM      8  N   LIG    1        0.658   1.813  -7.080  0.00  0.00    -0.610 N 
ATOM      9  O   LIG    1        2.918   1.956  -6.944  0.00  0.00    -0.530 OA
ATOM     10  C   LIG    1       -0.465   1.577  -6.165  0.00  0.00    +0.310 C 
BRANCH   8  11
ATOM     11  C   LIG    1        0.516   2.050  -8.519  0.00  0.00    +0.320 C 
BRANCH  11  12
ATOM     12  C   LIG    1        0.567   0.714  -9.263  0.00  0.00    +0.150 C 
BRANCH  12  13
ATOM     13  O   LIG    1       -0.564  -0.079  -8.896  0.00  0.00    -0.390 OA
ATOM     14  C   LIG    1       -0.613  -1.355  -9.539  0.00  0.00    +0.200 C 
ENDBRANCH  12  13
ENDBRANCH  11  12
ENDBRANCH   8  11
ENDBRANCH   3   5
BRANCH   1  15
ATOM     15  C   LIG    1       -0.753   1.593  -1.232  0.00  0.00    +0.240 C 
BRANCH  15  16
ATOM     16  C   LIG    1       -0.013   1.086   0.008  0.00  0.00    +0.270 C 
BRANCH  16  17
ATOM     17  N   LIG    1       -0.698   1.558   1.213  0.00  0.00    -0.620 N 
BRANCH  17  18
ATOM     18  C   LIG    1       -0.340   2.780   1.787  0.00  0.00    +0.220 A 
ATOM     19  C   LIG    1        0.665   3.549   1.216  0.00  0.00    -0.080 A 
ATOM     20  C   LIG    1        1.017   4.758   1.785  0.00  0.00    +0.050 A 
ATOM     21  C   LIG    1        0.368   5.203   2.922  0.00  0.00    -0.060 A 
ATOM     22  C   LIG    1       -0.634   4.440   3.493  0.00  0.00    -0.040 A 
ATOM     23  C   LIG    1       -1.339   4.929   4.732  0.00  0.00    +0.090 C 
ATOM     24  C   LIG    1       -0.994   3.233   2.926  0.00  0.00    -0.070 A 
ENDBRANCH  17  18
BRANCH  17  26
ATOM     25  C   LIG    1       -1.150  -0.204   2.847  0.00  0.00    +0.020 C 
ATOM     26  C   LIG    1       -1.760   0.749   1.817  0.00  0.00    +0.270 C 
ENDBRANCH  17  26
ENDBRANCH  16  17
ENDBRANCH  15  16
ENDBRANCH   1  15
TORSDOF 9
