REMARK  Name = ZINCqH0000002fcJ.0
REMARK                            x       y       z     vdW  Elec       q    Type
REMARK                         _______ _______ _______ _____ _____    ______ ____
ROOT
ATOM      1  N   LIG    1        3.409  -0.054  -4.813  0.00  0.00    -0.720 N 
ATOM      2  H   LIG    1        3.410  -0.486  -3.945  0.00  0.00    +0.410 HD
ATOM      3  C   LIG    1        4.491  -0.141  -5.612  0.00  0.00    +0.570 C 
ATOM      4  O   LIG    1        4.489   0.401  -6.700  0.00  0.00    -0.530 OA
ENDROOT
BRANCH   3   5
ATOM      5  C   LIG    1        5.681  -0.897  -5.164  0.00  0.00    -0.100 A 
ATOM      6  C   LIG    1        5.684  -1.515  -3.912  0.00  0.00    +0.030 A 
ATOM      7  C   LIG    1        6.796  -2.224  -3.502  0.00  0.00    +0.070 A 
ATOM      8  C   LIG    1        7.901  -2.310  -4.321  0.00  0.00    -0.100 A 
ATOM      9  C   LIG    1        7.919  -1.697  -5.569  0.00  0.00    +0.140 A 
ATOM     10  N   LIG    1        9.141  -1.928  -6.203  0.00  0.00    -0.660 N 
ATOM     11  H   LIG    1        9.365  -1.591  -7.084  0.00  0.00    +0.420 HD
ATOM     12  C   LIG    1        9.970  -2.672  -5.452  0.00  0.00    +0.540 C 
ATOM     13  O   LIG    1       11.092  -3.025  -5.751  0.00  0.00    -0.490 OA
ATOM     14  C   LIG    1        9.243  -2.988  -4.162  0.00  0.00    -0.060 C 
ATOM     15  C   LIG    1        9.064  -4.499  -4.001  0.00  0.00    +0.080 C 
ATOM     16  C   LIG    1        9.999  -2.409  -2.965  0.00  0.00    +0.080 C 
ATOM     17  C   LIG    1        6.799  -0.988  -5.990  0.00  0.00    +0.060 A 
ENDBRANCH   3   5
BRANCH   1  18
ATOM     18  C   LIG    1        2.230   0.695  -5.257  0.00  0.00    +0.420 C 
BRANCH  18  22
ATOM     19  C   LIG    1       -0.121   1.007  -2.468  0.00  0.00    +0.030 A 
ATOM     20  N   LIG    1       -0.497  -0.066  -3.102  0.00  0.00    -0.350 NA
ATOM     21  O   LIG    1        0.203  -0.283  -4.064  0.00  0.00    +0.110 OA
ATOM     22  C   LIG    1        1.168   0.639  -4.189  0.00  0.00    -0.060 A 
ATOM     23  C   LIG    1        1.001   1.511  -3.166  0.00  0.00    -0.030 A 
BRANCH  19  24
ATOM     24  C   LIG    1       -0.753   1.593  -1.232  0.00  0.00    +0.080 C 
BRANCH  24  26
ATOM     25  C   LIG    1       -0.729   1.579   1.267  0.00  0.00    +0.030 C 
ATOM     26  C   LIG    1       -0.013   1.086   0.008  0.00  0.00    +0.020 C 
ENDBRANCH  24  26
BRANCH  24  27
ATOM     27  C   LIG    1       -0.666   3.119  -1.289  0.00  0.00    +0.030 C 
ATOM     28  C   LIG    1       -1.509   3.635  -2.457  0.00  0.00    +0.010 C 
ENDBRANCH  24  27
ENDBRANCH  19  24
ENDBRANCH  18  22
ENDBRANCH   1  18
TORSDOF 6
