REMARK  Name = ZINCqH0000006TGP.0
REMARK                            x       y       z     vdW  Elec       q    Type
REMARK                         _______ _______ _______ _____ _____    ______ ____
ROOT
ATOM      1  O   LIG    1        1.139   2.163   0.003  0.00  0.00    -0.350 OA
ENDROOT
BRANCH   1   2
ATOM      2  C   LIG    1       -0.018   1.473   0.010  0.00  0.00    +0.520 C 
ATOM      3  O   LIG    1       -1.078   2.066   0.018  0.00  0.00    -0.490 OA
BRANCH   2   8
ATOM      4  C   LIG    1        1.233  -2.072  -0.023  0.00  0.00    +0.160 A 
ATOM      5  C   LIG    1        0.040  -2.780  -0.015  0.00  0.00    -0.120 A 
ATOM      6  C   LIG    1       -1.172  -2.105   0.002  0.00  0.00    +0.160 A 
ATOM      7  C   LIG    1       -1.196  -0.720   0.010  0.00  0.00    +0.030 A 
ATOM      8  C   LIG    1        0.002  -0.004   0.002  0.00  0.00    -0.050 A 
ATOM      9  C   LIG    1        1.219  -0.687  -0.019  0.00  0.00    +0.020 A 
BRANCH   4  11
ATOM     10  C   LIG    1        2.358  -4.167  -0.046  0.00  0.00    +0.250 C 
ATOM     11  O   LIG    1        2.417  -2.739  -0.038  0.00  0.00    -0.310 OA
ENDBRANCH   4  11
BRANCH   6  12
ATOM     12  O   LIG    1       -2.338  -2.804   0.009  0.00  0.00    -0.310 OA
ATOM     13  C   LIG    1       -2.240  -4.229  -0.000  0.00  0.00    +0.250 C 
ENDBRANCH   6  12
ENDBRANCH   2   8
ENDBRANCH   1   2
BRANCH   1  14
ATOM     14  C   LIG    1        1.044   3.611   0.011  0.00  0.00    +0.410 C 
BRANCH  14  15
ATOM     15  C   LIG    1        2.428   4.206   0.002  0.00  0.00    +0.160 A 
ATOM     16  N   LIG    1        3.125   4.516  -1.056  0.00  0.00    -0.240 NA
ATOM     17  N   LIG    1        4.261   5.001  -0.695  0.00  0.00    -0.270 NA
ATOM     18  C   LIG    1        4.328   5.017   0.615  0.00  0.00    +0.220 A 
ATOM     19  O   LIG    1        3.166   4.519   1.081  0.00  0.00    -0.210 OA
BRANCH  18  20
ATOM     20  C   LIG    1        5.465   5.498   1.429  0.00  0.00    -0.030 A 
ATOM     21  C   LIG    1        5.394   5.460   2.823  0.00  0.00    +0.070 A 
ATOM     22  C   LIG    1        6.460   5.906   3.577  0.00  0.00    +0.040 A 
ATOM     23  C   LIG    1        7.594   6.400   2.954  0.00  0.00    -0.010 A 
ATOM     24  C   LIG    1        7.668   6.445   1.572  0.00  0.00    +0.040 A 
ATOM     25 CL   LIG    1        8.928   6.966   3.910  0.00  0.00    -0.050 Cl
ATOM     26  C   LIG    1        6.610   5.997   0.807  0.00  0.00    +0.100 A 
ENDBRANCH  18  20
ENDBRANCH  14  15
ENDBRANCH   1  14
TORSDOF 7
