REMARK  Name = ZINCqH000000734n.0
REMARK                            x       y       z     vdW  Elec       q    Type
REMARK                         _______ _______ _______ _____ _____    ______ ____
ROOT
ATOM      1  C   LIG    1       -4.715  -0.851  -1.794  0.00  0.00    +0.570 C 
ATOM      2  N   LIG    1       -4.135  -0.282  -0.719  0.00  0.00    -0.610 N 
ATOM      3  C   LIG    1       -4.854  -0.187   0.559  0.00  0.00    +0.270 C 
ATOM      4  C   LIG    1       -4.844   1.273   1.023  0.00  0.00    +0.040 C 
ATOM      5  C   LIG    1       -3.400   1.777   1.076  0.00  0.00    +0.040 C 
ATOM      6  C   LIG    1       -2.784   1.712  -0.324  0.00  0.00    +0.090 C 
ATOM      7  C   LIG    1       -2.770   0.257  -0.804  0.00  0.00    +0.290 C 
ATOM      8  O   LIG    1       -4.154  -0.829  -2.872  0.00  0.00    -0.520 OA
ENDROOT
BRANCH   6   9
ATOM      9  C   LIG    1       -1.373   2.239  -0.277  0.00  0.00    +0.290 A 
ATOM     10  N   LIG    1       -1.026   3.464  -0.547  0.00  0.00    -0.480 NA
ATOM     11  C   LIG    1        0.319   3.597  -0.414  0.00  0.00    +0.050 A 
ATOM     12  C   LIG    1        1.203   4.665  -0.582  0.00  0.00    +0.070 A 
ATOM     13  C   LIG    1        2.540   4.483  -0.368  0.00  0.00    +0.000 A 
ATOM     14  C   LIG    1        3.033   3.245   0.016  0.00  0.00    +0.030 A 
ATOM     15  C   LIG    1        2.179   2.176   0.188  0.00  0.00    +0.010 A 
ATOM     16  C   LIG    1        0.818   2.342  -0.025  0.00  0.00    +0.050 A 
ATOM     17  N   LIG    1       -0.277   1.505   0.057  0.00  0.00    -0.600 N 
ATOM     18  H   LIG    1       -0.267   0.567   0.303  0.00  0.00    +0.420 HD
ENDBRANCH   6   9
BRANCH   1  22
ATOM     19  C   LIG    1       -8.510  -2.723  -1.415  0.00  0.00    +0.120 A 
ATOM     20  C   LIG    1       -8.230  -1.942  -2.529  0.00  0.00    -0.040 A 
ATOM     21  C   LIG    1       -7.001  -1.333  -2.655  0.00  0.00    +0.110 A 
ATOM     22  C   LIG    1       -6.034  -1.502  -1.661  0.00  0.00    -0.140 A 
ATOM     23  C   LIG    1       -6.315  -2.294  -0.544  0.00  0.00    +0.060 A 
ATOM     24  C   LIG    1       -7.550  -2.895  -0.422  0.00  0.00    +0.070 A 
ATOM     25  F   LIG    1       -7.826  -3.656   0.659  0.00  0.00    -0.130 F 
BRANCH  19  27
ATOM     26  C   LIG    1      -10.661  -3.104  -2.351  0.00  0.00    +0.250 C 
ATOM     27  O   LIG    1       -9.723  -3.322  -1.296  0.00  0.00    -0.300 OA
ENDBRANCH  19  27
ENDBRANCH   1  22
TORSDOF 3
