REMARK  Name = ZINCtV000002Kh2C.0
REMARK                            x       y       z     vdW  Elec       q    Type
REMARK                         _______ _______ _______ _____ _____    ______ ____
ROOT
ATOM      1  C   LIG    1        2.436  -2.815  -0.082  0.00  0.00    +0.180 C 
ATOM      2  C   LIG    1        1.252  -1.884  -0.064  0.00  0.00    +0.150 A 
ATOM      3  N   LIG    1        0.004  -2.244  -0.061  0.00  0.00    -0.250 NA
ATOM      4  N   LIG    1       -0.809  -1.107  -0.042  0.00  0.00    -0.300 N 
ATOM      5  C   LIG    1        0.003  -0.004  -0.034  0.00  0.00    +0.040 A 
ATOM      6  S   LIG    1       -0.021   1.754  -0.012  0.00  0.00    +0.200 S 
ATOM      7  C   LIG    1        1.733   1.824  -0.022  0.00  0.00    -0.280 A 
ATOM      8  C   LIG    1        2.251   0.586  -0.040  0.00  0.00    +0.200 A 
ATOM      9  C   LIG    1        1.313  -0.455  -0.047  0.00  0.00    -0.220 A 
ENDROOT
BRANCH   4  10
ATOM     10  C   LIG    1       -2.210  -1.097  -0.033  0.00  0.00    +0.150 A 
ATOM     11  C   LIG    1       -2.894  -0.120   0.677  0.00  0.00    +0.000 A 
ATOM     12  C   LIG    1       -4.275  -0.110   0.679  0.00  0.00    +0.050 A 
ATOM     13  C   LIG    1       -4.977  -1.078  -0.016  0.00  0.00    +0.010 A 
ATOM     14  C   LIG    1       -4.298  -2.056  -0.720  0.00  0.00    +0.040 A 
ATOM     15  C   LIG    1       -2.917  -2.068  -0.730  0.00  0.00    +0.030 A 
ENDBRANCH   4  10
BRANCH   7  16
ATOM     16  C   LIG    1        2.521   3.059  -0.012  0.00  0.00    +0.600 C 
ATOM     17  N   LIG    1        1.900   4.255   0.007  0.00  0.00    -0.670 N 
ATOM     18  H   LIG    1        0.932   4.300  -0.052  0.00  0.00    +0.410 HD
ATOM     19  O   LIG    1        3.737   3.006  -0.020  0.00  0.00    -0.500 OA
BRANCH  17  20
ATOM     20  C   LIG    1        2.649   5.431   0.112  0.00  0.00    +0.160 A 
ATOM     21  C   LIG    1        3.897   5.518  -0.491  0.00  0.00    +0.100 A 
ATOM     22  C   LIG    1        4.632   6.683  -0.389  0.00  0.00    -0.160 A 
ATOM     23  C   LIG    1        4.133   7.759   0.320  0.00  0.00    +0.080 A 
ATOM     24  C   LIG    1        2.892   7.675   0.927  0.00  0.00    +0.060 A 
ATOM     25  C   LIG    1        2.149   6.515   0.825  0.00  0.00    -0.040 A 
ATOM     26 CL   LIG    1        0.593   6.410   1.587  0.00  0.00    -0.050 Cl
BRANCH  22  27
ATOM     27  C   LIG    1        5.984   6.779  -1.049  0.00  0.00    +0.510 C 
ATOM     28  F   LIG    1        5.845   6.590  -2.428  0.00  0.00    -0.170 F 
ATOM     29  F   LIG    1        6.829   5.793  -0.526  0.00  0.00    -0.170 F 
ATOM     30  F   LIG    1        6.534   8.042  -0.804  0.00  0.00    -0.170 F 
ENDBRANCH  22  27
ENDBRANCH  17  20
ENDBRANCH   7  16
TORSDOF 4
