REMARK  Name = ZINCtV000002CQ6y.0
REMARK                            x       y       z     vdW  Elec       q    Type
REMARK                         _______ _______ _______ _____ _____    ______ ____
ROOT
ATOM      1  C   LIG    1        3.038  -2.943  -1.490  0.00  0.00    +0.030 C 
ATOM      2  C   LIG    1        2.609  -2.805  -0.028  0.00  0.00    +0.280 C 
ENDROOT
BRANCH   2   3
ATOM      3  C   LIG    1        2.399  -4.175   0.565  0.00  0.00    -0.090 A 
ATOM      4  C   LIG    1        1.221  -4.858   0.325  0.00  0.00    +0.030 A 
ATOM      5  C   LIG    1        1.028  -6.115   0.863  0.00  0.00    +0.020 A 
ATOM      6  C   LIG    1        2.014  -6.689   1.654  0.00  0.00    +0.090 A 
ATOM      7  C   LIG    1        3.193  -5.999   1.898  0.00  0.00    +0.000 A 
ATOM      8  C   LIG    1        3.382  -4.744   1.353  0.00  0.00    +0.040 A 
BRANCH   6   9
ATOM      9  O   LIG    1        1.825  -7.923   2.189  0.00  0.00    -0.260 OA
BRANCH   9  10
ATOM     10  C   LIG    1        1.696  -8.022   3.538  0.00  0.00    +0.120 A 
ATOM     11  C   LIG    1        1.637  -6.875   4.316  0.00  0.00    -0.060 A 
ATOM     12  C   LIG    1        1.502  -6.977   5.687  0.00  0.00    +0.050 A 
ATOM     13  C   LIG    1        1.435  -8.222   6.285  0.00  0.00    -0.020 A 
ATOM     14  C   LIG    1        1.498  -9.367   5.512  0.00  0.00    +0.050 A 
ATOM     15  C   LIG    1        1.629  -9.270   4.141  0.00  0.00    -0.010 A 
ENDBRANCH   9  10
ENDBRANCH   6   9
ENDBRANCH   2   3
BRANCH   2  16
ATOM     16  N   LIG    1        1.359  -2.045   0.044  0.00  0.00    -0.740 N 
ATOM     17  H   LIG    1        0.509  -2.511   0.080  0.00  0.00    +0.400 HD
BRANCH  16  18
ATOM     18  C   LIG    1        1.390  -0.647   0.062  0.00  0.00    +0.240 A 
ATOM     19  C   LIG    1        2.607   0.021   0.011  0.00  0.00    -0.060 A 
ATOM     20  C   LIG    1        2.639   1.401   0.028  0.00  0.00    +0.080 A 
ATOM     21  C   LIG    1        1.455   2.122   0.097  0.00  0.00    +0.090 A 
ATOM     22  C   LIG    1        0.237   1.455   0.148  0.00  0.00    +0.020 A 
ATOM     23 CL   LIG    1       -1.245   2.357   0.226  0.00  0.00    -0.060 Cl
ATOM     24  C   LIG    1        0.205   0.074   0.130  0.00  0.00    -0.040 A 
BRANCH  21  25
ATOM     25  N   LIG    1        1.487   3.524   0.114  0.00  0.00    -0.570 N 
ATOM     26  C   LIG    1        1.560   4.335   1.335  0.00  0.00    +0.260 C 
ATOM     27  C   LIG    1        2.012   5.739   0.868  0.00  0.00    +0.040 C 
ATOM     28  C   LIG    1        1.513   5.758  -0.596  0.00  0.00    +0.060 C 
ATOM     29  C   LIG    1        1.450   4.297  -0.985  0.00  0.00    +0.520 C 
ATOM     30  O   LIG    1        1.377   3.884  -2.123  0.00  0.00    -0.520 OA
ENDBRANCH  21  25
ENDBRANCH  16  18
ENDBRANCH   2  16
TORSDOF 6
