REMARK  Name = ZINCqH0000037XDu.0
REMARK                            x       y       z     vdW  Elec       q    Type
REMARK                         _______ _______ _______ _____ _____    ______ ____
ROOT
ATOM      1  C   LIG    1       -2.412  -2.802   0.547  0.00  0.00    +0.560 C 
ATOM      2  N   LIG    1       -3.566  -2.121   0.698  0.00  0.00    -0.720 N 
ATOM      3  H   LIG    1       -3.572  -1.155   0.620  0.00  0.00    +0.400 HD
ATOM      4  O   LIG    1       -2.404  -4.013   0.645  0.00  0.00    -0.530 OA
ENDROOT
BRANCH   1  11
ATOM      5  C   LIG    1       -0.002  -4.289  -0.030  0.00  0.00    +0.120 C 
ATOM      6  C   LIG    1        0.014  -2.782  -0.017  0.00  0.00    -0.020 A 
ATOM      7  C   LIG    1        1.186  -2.103  -0.283  0.00  0.00    +0.000 A 
ATOM      8  C   LIG    1        1.209  -0.722  -0.274  0.00  0.00    +0.050 A 
ATOM      9  C   LIG    1        0.046  -0.004   0.005  0.00  0.00    -0.060 A 
ATOM     10  C   LIG    1       -1.137  -0.681   0.280  0.00  0.00    +0.060 A 
ATOM     11  C   LIG    1       -1.157  -2.074   0.263  0.00  0.00    -0.140 A 
BRANCH   9  12
ATOM     12  C   LIG    1        0.073   1.480   0.015  0.00  0.00    -0.050 A 
ATOM     13  C   LIG    1       -1.089   2.199   0.288  0.00  0.00    +0.010 A 
ATOM     14  C   LIG    1       -1.056   3.578   0.301  0.00  0.00    +0.010 A 
ATOM     15  C   LIG    1        0.124   4.248   0.033  0.00  0.00    +0.000 A 
ATOM     16  C   LIG    1        1.279   3.539  -0.244  0.00  0.00    +0.010 A 
ATOM     17  C   LIG    1        1.260   2.159  -0.254  0.00  0.00    +0.020 A 
ENDBRANCH   9  12
ENDBRANCH   1  11
BRANCH   2  18
ATOM     18  C   LIG    1       -4.810  -2.842   0.980  0.00  0.00    +0.260 C 
BRANCH  18  19
ATOM     19  C   LIG    1       -5.961  -1.843   1.105  0.00  0.00    +0.150 C 
ATOM     20  C   LIG    1       -7.255  -2.581   1.514  0.00  0.00    +0.020 C 
ATOM     21  C   LIG    1       -8.336  -1.853   0.667  0.00  0.00    +0.040 C 
ATOM     22  C   LIG    1       -7.529  -1.509  -0.597  0.00  0.00    +0.080 C 
ATOM     23  C   LIG    1       -7.560  -2.672  -1.597  0.00  0.00    +0.010 C 
ATOM     24  C   LIG    1       -8.223  -2.058  -2.853  0.00  0.00    +0.200 C 
ATOM     25  O   LIG    1       -7.981  -0.638  -2.742  0.00  0.00    -0.370 OA
ATOM     26  C   LIG    1       -8.159  -0.324  -1.341  0.00  0.00    +0.230 C 
ATOM     27  O   LIG    1       -6.203  -1.218  -0.165  0.00  0.00    -0.350 OA
ENDBRANCH  18  19
ENDBRANCH   2  18
TORSDOF 4
