REMARK  Name = ZINCrH000004vGgn.0
REMARK                            x       y       z     vdW  Elec       q    Type
REMARK                         _______ _______ _______ _____ _____    ______ ____
ROOT
ATOM      1  O   LIG    1       -1.034  -0.626   0.133  0.00  0.00    -0.490 OA
ATOM      2  C   LIG    1        0.002  -0.004   0.002  0.00  0.00    +0.600 C 
ATOM      3  N   LIG    1        1.173  -0.661  -0.114  0.00  0.00    -0.600 N 
ATOM      4  C   LIG    1        2.445   0.073  -0.129  0.00  0.00    +0.290 C 
ATOM      5  C   LIG    1        3.363  -0.517   0.952  0.00  0.00    +0.030 C 
ATOM      6  C   LIG    1        3.505  -2.024   0.726  0.00  0.00    +0.030 C 
ATOM      7  C   LIG    1        2.132  -2.691   0.844  0.00  0.00    +0.260 C 
ATOM      8  C   LIG    1        1.201  -2.126  -0.233  0.00  0.00    +0.300 C 
ENDROOT
BRANCH   2   9
ATOM      9  C   LIG    1       -0.022   1.473  -0.030  0.00  0.00    +0.090 A 
ATOM     10  N   LIG    1        1.013   2.258  -0.294  0.00  0.00    -0.280 NA
ATOM     11  N   LIG    1        0.595   3.593  -0.230  0.00  0.00    -0.260 N 
ATOM     12  C   LIG    1        1.259   4.772  -0.417  0.00  0.00    +0.290 A 
ATOM     13  C   LIG    1        0.615   5.952  -0.296  0.00  0.00    +0.010 A 
ATOM     14  C   LIG    1       -0.753   5.987   0.025  0.00  0.00    +0.080 A 
ATOM     15  C   LIG    1       -1.429   4.822   0.215  0.00  0.00    +0.050 A 
ATOM     16  C   LIG    1       -0.742   3.598   0.085  0.00  0.00    +0.140 A 
ATOM     17  C   LIG    1       -1.143   2.276   0.207  0.00  0.00    -0.210 A 
ATOM     18 BR   LIG    1       -2.885   1.670   0.622  0.00  0.00    +0.020 Br
ENDBRANCH   2   9
BRANCH   7  19
ATOM     19  N   LIG    1        2.273  -4.137   0.658  0.00  0.00    -0.350 N 
ATOM     20  C   LIG    1        2.290  -4.788  -0.524  0.00  0.00    +0.250 A 
ATOM     21  C   LIG    1        2.441  -6.108  -0.266  0.00  0.00    -0.070 A 
ATOM     22  C   LIG    1        2.509  -6.270   1.122  0.00  0.00    -0.020 A 
ATOM     23  N   LIG    1        2.408  -5.089   1.677  0.00  0.00    -0.230 NA
BRANCH  22  24
ATOM     24  C   LIG    1        2.669  -7.578   1.852  0.00  0.00    +0.560 C 
ATOM     25  F   LIG    1        3.917  -8.133   1.547  0.00  0.00    -0.170 F 
ATOM     26  F   LIG    1        1.657  -8.460   1.457  0.00  0.00    -0.170 F 
ATOM     27  F   LIG    1        2.582  -7.357   3.231  0.00  0.00    -0.170 F 
ENDBRANCH  22  24
ENDBRANCH   7  19
TORSDOF 3
