REMARK  Name = ZINCrg000009DFmj.0
REMARK                            x       y       z     vdW  Elec       q    Type
REMARK                         _______ _______ _______ _____ _____    ______ ____
ROOT
ATOM      1  C   LIG    1       -1.887   4.753  -0.076  0.00  0.00    +0.600 C 
ATOM      2  N   LIG    1       -1.698   6.084  -0.168  0.00  0.00    -0.600 N 
ATOM      3  C   LIG    1       -0.411   6.785  -0.137  0.00  0.00    +0.390 C 
ATOM      4  C   LIG    1       -0.686   8.261  -0.275  0.00  0.00    +0.060 A 
ATOM      5  N   LIG    1       -0.108   9.435  -0.330  0.00  0.00    -0.250 NA
ATOM      6  N   LIG    1       -1.107  10.408  -0.466  0.00  0.00    -0.460 N 
ATOM      7  H   LIG    1       -0.966  11.365  -0.532  0.00  0.00    +0.450 HD
ATOM      8  C   LIG    1       -2.300   9.778  -0.490  0.00  0.00    +0.300 A 
ATOM      9  C   LIG    1       -2.067   8.449  -0.373  0.00  0.00    -0.280 A 
ATOM     10  C   LIG    1       -2.743   7.103  -0.310  0.00  0.00    +0.320 C 
ATOM     11  O   LIG    1       -3.014   4.301  -0.015  0.00  0.00    -0.510 OA
ENDROOT
BRANCH   1  19
ATOM     12  C   LIG    1        3.804   1.786  -0.176  0.00  0.00    +0.550 C 
ATOM     13  N   LIG    1        2.567   1.288   0.015  0.00  0.00    -0.550 N 
ATOM     14  C   LIG    1        2.368  -0.149   0.247  0.00  0.00    +0.280 C 
ATOM     15  C   LIG    1        1.187  -0.605  -0.619  0.00  0.00    +0.020 C 
ATOM     16  C   LIG    1       -0.075   0.123  -0.155  0.00  0.00    +0.090 C 
ATOM     17  C   LIG    1        0.168   1.608  -0.089  0.00  0.00    -0.130 A 
ATOM     18  C   LIG    1       -0.917   2.461  -0.108  0.00  0.00    +0.110 A 
ATOM     19  C   LIG    1       -0.725   3.843  -0.050  0.00  0.00    -0.150 A 
ATOM     20  C   LIG    1        0.569   4.362   0.037  0.00  0.00    +0.060 A 
ATOM     21  C   LIG    1        1.648   3.508   0.060  0.00  0.00    +0.010 A 
ATOM     22  C   LIG    1        1.453   2.130  -0.005  0.00  0.00    +0.180 A 
ATOM     23  O   LIG    1        3.950   2.954  -0.481  0.00  0.00    -0.510 OA
BRANCH  12  25
ATOM     24  C   LIG    1        6.204   1.429  -0.109  0.00  0.00    +0.160 C 
ATOM     25  C   LIG    1        4.979   0.916  -0.017  0.00  0.00    -0.100 C 
ENDBRANCH  12  25
ENDBRANCH   1  19
BRANCH  10  26
ATOM     26  C   LIG    1       -3.671   7.052   0.876  0.00  0.00    +0.510 C 
ATOM     27  O   LIG    1       -3.482   6.242   1.760  0.00  0.00    -0.510 OA
ATOM     28  N   LIG    1       -4.711   7.905   0.956  0.00  0.00    -0.850 N 
ATOM     29  H   LIG    1       -5.308   7.872   1.719  0.00  0.00    +0.400 HD
ATOM     30  H   LIG    1       -4.862   8.553   0.249  0.00  0.00    +0.400 HD
ENDBRANCH  10  26
TORSDOF 3
