REMARK  Name = ZINCpk00000xI2Ef.1
REMARK                            x       y       z     vdW  Elec       q    Type
REMARK                         _______ _______ _______ _____ _____    ______ ____
ROOT
ATOM      1  N   LIG    1       -1.486   1.569  -3.548  0.00  0.00    -0.590 N 
ATOM      2  C   LIG    1       -0.848   2.284  -4.495  0.00  0.00    +0.590 C 
ATOM      3  O   LIG    1        0.330   2.555  -4.363  0.00  0.00    -0.520 OA
ATOM      4  C   LIG    1       -2.925   1.318  -3.664  0.00  0.00    +0.300 C 
ENDROOT
BRANCH   2   5
ATOM      5  C   LIG    1       -1.579   2.739  -5.691  0.00  0.00    +0.030 A 
ATOM      6  C   LIG    1       -1.040   3.372  -6.773  0.00  0.00    -0.050 A 
ATOM      7  N   LIG    1       -2.056   3.607  -7.637  0.00  0.00    -0.540 N 
ATOM      8  H   LIG    1       -1.983   4.044  -8.500  0.00  0.00    +0.440 HD
ATOM      9  C   LIG    1       -3.196   3.128  -7.075  0.00  0.00    +0.460 A 
ATOM     10  N   LIG    1       -2.912   2.610  -5.915  0.00  0.00    -0.460 NA
BRANCH   6  11
ATOM     11  C   LIG    1        0.409   3.737  -6.970  0.00  0.00    +0.550 C 
ATOM     12  F   LIG    1        1.190   2.576  -6.943  0.00  0.00    -0.150 F 
ATOM     13  F   LIG    1        0.817   4.598  -5.946  0.00  0.00    -0.150 F 
ATOM     14  F   LIG    1        0.565   4.375  -8.205  0.00  0.00    -0.180 F 
ENDBRANCH   6  11
ENDBRANCH   2   5
BRANCH   1  15
ATOM     15  C   LIG    1       -0.741   1.042  -2.402  0.00  0.00    +0.320 C 
BRANCH  15  20
ATOM     16  C   LIG    1        0.133   1.591  -0.098  0.00  0.00    +0.100 C 
ATOM     17  C   LIG    1       -0.628   2.054   1.165  0.00  0.00    +0.020 C 
ATOM     18  C   LIG    1       -1.885   2.759   0.609  0.00  0.00    +0.210 C 
ATOM     19  O   LIG    1       -2.079   2.187  -0.703  0.00  0.00    -0.360 OA
ATOM     20  C   LIG    1       -0.752   2.071  -1.270  0.00  0.00    +0.160 C 
BRANCH  16  25
ATOM     21  C   LIG    1       -0.717  -3.348   0.542  0.00  0.00    +0.200 C 
ATOM     22  C   LIG    1       -0.101  -2.026   0.160  0.00  0.00    +0.180 A 
ATOM     23  N   LIG    1        1.033  -1.852  -0.463  0.00  0.00    -0.290 NA
ATOM     24  N   LIG    1        1.249  -0.595  -0.626  0.00  0.00    -0.280 NA
ATOM     25  C   LIG    1        0.263   0.090  -0.115  0.00  0.00    +0.190 A 
ATOM     26  N   LIG    1       -0.620  -0.798   0.403  0.00  0.00    -0.580 N 
ATOM     27  H   LIG    1       -1.454  -0.597   0.854  0.00  0.00    +0.430 HD
ENDBRANCH  16  25
ENDBRANCH  15  20
ENDBRANCH   1  15
TORSDOF 5
