REMARK  Name = ZINCpk00000xI2Ef.0
REMARK                            x       y       z     vdW  Elec       q    Type
REMARK                         _______ _______ _______ _____ _____    ______ ____
ROOT
ATOM      1  N   LIG    1        1.557   3.215  -3.845  0.00  0.00    -0.610 N 
ATOM      2  C   LIG    1        0.448   3.625  -4.492  0.00  0.00    +0.580 C 
ATOM      3  O   LIG    1       -0.581   3.821  -3.872  0.00  0.00    -0.470 OA
ATOM      4  C   LIG    1        2.830   3.114  -4.563  0.00  0.00    +0.270 C 
ENDROOT
BRANCH   2   5
ATOM      5  C   LIG    1        0.482   3.836  -5.944  0.00  0.00    -0.020 A 
ATOM      6  C   LIG    1       -0.511   4.367  -6.718  0.00  0.00    -0.010 A 
ATOM      7  N   LIG    1       -0.080   4.383  -7.979  0.00  0.00    -0.460 NA
ATOM      8  C   LIG    1        1.132   3.892  -8.037  0.00  0.00    +0.460 A 
ATOM      9  N   LIG    1        1.526   3.543  -6.799  0.00  0.00    -0.550 N 
ATOM     10  H   LIG    1        2.382   3.158  -6.554  0.00  0.00    +0.430 HD
BRANCH   6  11
ATOM     11  C   LIG    1       -1.855   4.847  -6.233  0.00  0.00    +0.550 C 
ATOM     12  F   LIG    1       -2.235   4.110  -5.106  0.00  0.00    -0.140 F 
ATOM     13  F   LIG    1       -2.805   4.676  -7.245  0.00  0.00    -0.170 F 
ATOM     14  F   LIG    1       -1.771   6.203  -5.896  0.00  0.00    -0.170 F 
ENDBRANCH   6  11
ENDBRANCH   2   5
BRANCH   1  15
ATOM     15  C   LIG    1        1.490   2.871  -2.422  0.00  0.00    +0.310 C 
BRANCH  15  20
ATOM     16  C   LIG    1        1.826   3.742  -0.088  0.00  0.00    +0.090 C 
ATOM     17  C   LIG    1        0.727   4.616   0.564  0.00  0.00    +0.020 C 
ATOM     18  C   LIG    1        0.551   5.749  -0.479  0.00  0.00    +0.220 C 
ATOM     19  O   LIG    1        0.706   5.070  -1.743  0.00  0.00    -0.350 OA
ATOM     20  C   LIG    1        1.771   4.118  -1.582  0.00  0.00    +0.150 C 
BRANCH  16  25
ATOM     21  C   LIG    1       -0.583  -0.657   0.520  0.00  0.00    +0.200 C 
ATOM     22  C   LIG    1        0.485   0.394   0.359  0.00  0.00    +0.180 A 
ATOM     23  N   LIG    1        1.775   0.191   0.345  0.00  0.00    -0.290 NA
ATOM     24  N   LIG    1        2.388   1.310   0.191  0.00  0.00    -0.280 NA
ATOM     25  C   LIG    1        1.518   2.279   0.099  0.00  0.00    +0.180 A 
ATOM     26  N   LIG    1        0.285   1.725   0.203  0.00  0.00    -0.580 N 
ATOM     27  H   LIG    1       -0.567   2.187   0.169  0.00  0.00    +0.430 HD
ENDBRANCH  16  25
ENDBRANCH  15  20
ENDBRANCH   1  15
TORSDOF 5
