REMARK  Name = ZINCrH000004m8mO.0
REMARK                            x       y       z     vdW  Elec       q    Type
REMARK                         _______ _______ _______ _____ _____    ______ ____
ROOT
ATOM      1  N   LIG    1       -1.603  10.021   2.678  0.00  0.00    -0.660 N 
ATOM      2  H   LIG    1       -1.624   9.531   3.514  0.00  0.00    +0.420 HD
ATOM      3  C   LIG    1       -1.568   9.355   1.507  0.00  0.00    +0.520 C 
ATOM      4  O   LIG    1       -1.623   9.966   0.460  0.00  0.00    -0.520 OA
ENDROOT
BRANCH   1  12
ATOM      5  C   LIG    1       -0.956  12.117   3.706  0.00  0.00    +0.110 A 
ATOM      6  C   LIG    1       -0.960  13.502   3.708  0.00  0.00    -0.040 A 
ATOM      7  C   LIG    1       -1.617  14.193   2.706  0.00  0.00    -0.010 A 
ATOM      8  C   LIG    1       -2.268  13.505   1.697  0.00  0.00    -0.090 A 
ATOM      9  C   LIG    1       -2.264  12.123   1.686  0.00  0.00    +0.090 A 
ATOM     10  C   LIG    1       -2.982  14.264   0.609  0.00  0.00    +0.100 C 
ATOM     11 CL   LIG    1       -1.626  15.929   2.714  0.00  0.00    -0.060 Cl
ATOM     12  C   LIG    1       -1.607  11.423   2.687  0.00  0.00    +0.120 A 
BRANCH   5  14
ATOM     13  C   LIG    1        0.330  12.212   5.703  0.00  0.00    +0.250 C 
ATOM     14  O   LIG    1       -0.315  11.435   4.692  0.00  0.00    -0.310 OA
ENDBRANCH   5  14
ENDBRANCH   1  12
BRANCH   3  15
ATOM     15  C   LIG    1       -1.462   7.852   1.497  0.00  0.00    +0.060 C 
BRANCH  15  16
ATOM     16  C   LIG    1       -1.442   7.351   0.052  0.00  0.00    +0.330 C 
BRANCH  16  17
ATOM     17  N   LIG    1       -1.339   5.890   0.043  0.00  0.00    -0.550 N 
ATOM     18  C   LIG    1       -2.469   5.135   0.051  0.00  0.00    +0.570 A 
ATOM     19  N   LIG    1       -2.461   3.837   0.045  0.00  0.00    -0.520 NA
ATOM     20  C   LIG    1       -1.301   3.133   0.029  0.00  0.00    +0.150 A 
ATOM     21  C   LIG    1       -1.291   1.737   0.015  0.00  0.00    -0.070 A 
ATOM     22  C   LIG    1       -0.090   1.064   0.003  0.00  0.00    +0.060 A 
ATOM     23  C   LIG    1        1.113   1.756  -0.006  0.00  0.00    +0.000 A 
ATOM     24  C   LIG    1        1.129   3.134   0.001  0.00  0.00    +0.090 A 
ATOM     25  C   LIG    1       -2.589   0.971   0.018  0.00  0.00    +0.110 C 
ATOM     26  C   LIG    1       -0.074   3.834   0.018  0.00  0.00    -0.190 A 
ATOM     27  C   LIG    1       -0.119   5.304   0.026  0.00  0.00    +0.550 A 
ATOM     28  O   LIG    1        0.901   5.968   0.019  0.00  0.00    -0.510 OA
ENDBRANCH  16  17
ENDBRANCH  15  16
ENDBRANCH   3  15
TORSDOF 5
