REMARK  Name = ZINCtV00000L6jOZ.0
REMARK                            x       y       z     vdW  Elec       q    Type
REMARK                         _______ _______ _______ _____ _____    ______ ____
ROOT
ATOM      1  C   LIG    1       -3.189   3.043   1.237  0.00  0.00    +0.280 A 
ATOM      2  N   LIG    1       -2.249   2.191   1.528  0.00  0.00    -0.460 NA
ATOM      3  C   LIG    1       -1.067   2.624   1.017  0.00  0.00    +0.040 A 
ATOM      4  C   LIG    1        0.233   2.112   1.030  0.00  0.00    +0.070 A 
ATOM      5  C   LIG    1        1.238   2.794   0.405  0.00  0.00    +0.000 A 
ATOM      6  C   LIG    1        0.985   3.996  -0.240  0.00  0.00    +0.030 A 
ATOM      7  C   LIG    1       -0.289   4.522  -0.261  0.00  0.00    +0.010 A 
ATOM      8  C   LIG    1       -1.324   3.843   0.367  0.00  0.00    +0.060 A 
ATOM      9  N   LIG    1       -2.674   4.084   0.529  0.00  0.00    -0.470 N 
ENDROOT
BRANCH   9  10
ATOM     10  C   LIG    1       -3.417   5.240   0.021  0.00  0.00    +0.290 C 
ATOM     11  C   LIG    1       -2.600   6.513   0.252  0.00  0.00    +0.060 C 
BRANCH  10  12
ATOM     12  C   LIG    1       -3.668   5.066  -1.455  0.00  0.00    -0.110 A 
ATOM     13  C   LIG    1       -2.671   4.569  -2.272  0.00  0.00    +0.020 A 
ATOM     14  C   LIG    1       -2.903   4.404  -3.625  0.00  0.00    +0.010 A 
ATOM     15  C   LIG    1       -4.130   4.746  -4.162  0.00  0.00    +0.020 A 
ATOM     16  C   LIG    1       -5.126   5.248  -3.345  0.00  0.00    +0.010 A 
ATOM     17  C   LIG    1       -4.895   5.408  -1.992  0.00  0.00    +0.010 A 
ENDBRANCH  10  12
ENDBRANCH   9  10
BRANCH   1  18
ATOM     18  C   LIG    1       -4.635   2.901   1.635  0.00  0.00    +0.320 C 
BRANCH  18  19
ATOM     19  O   LIG    1       -4.830   3.471   2.931  0.00  0.00    -0.300 OA
BRANCH  19  25
ATOM     20  C   LIG    1       -9.493   2.099   2.482  0.00  0.00    +0.090 C 
ATOM     21  C   LIG    1       -8.392   2.795   3.239  0.00  0.00    -0.050 A 
ATOM     22  C   LIG    1       -8.669   3.418   4.442  0.00  0.00    -0.030 A 
ATOM     23  C   LIG    1       -7.661   4.058   5.140  0.00  0.00    +0.060 A 
ATOM     24  C   LIG    1       -6.375   4.078   4.636  0.00  0.00    -0.110 A 
ATOM     25  C   LIG    1       -6.095   3.453   3.429  0.00  0.00    +0.130 A 
ATOM     26  C   LIG    1       -7.108   2.816   2.729  0.00  0.00    -0.080 A 
BRANCH  24  27
ATOM     27  C   LIG    1       -5.278   4.777   5.396  0.00  0.00    +0.030 C 
ATOM     28  C   LIG    1       -5.083   4.096   6.753  0.00  0.00    +0.040 C 
ATOM     29  C   LIG    1       -5.660   6.242   5.612  0.00  0.00    +0.030 C 
ENDBRANCH  24  27
ENDBRANCH  19  25
ENDBRANCH  18  19
ENDBRANCH   1  18
TORSDOF 6
