REMARK  Name = ZINCqH0000050hWo.0
REMARK                            x       y       z     vdW  Elec       q    Type
REMARK                         _______ _______ _______ _____ _____    ______ ____
ROOT
ATOM      1  C   LIG    1       -2.273   4.430   0.037  0.00  0.00    +0.280 C 
ENDROOT
BRANCH   1   2
ATOM      2  N   LIG    1       -1.082   3.576   0.027  0.00  0.00    -0.730 N 
ATOM      3  H   LIG    1       -0.199   3.977   0.025  0.00  0.00    +0.400 HD
ATOM      4  C   LIG    1       -1.215   2.235   0.020  0.00  0.00    +0.600 C 
ATOM      5  O   LIG    1       -2.323   1.734   0.023  0.00  0.00    -0.550 OA
BRANCH   4   6
ATOM      6  C   LIG    1       -0.017   1.376   0.010  0.00  0.00    -0.300 A 
ATOM      7  C   LIG    1        0.002  -0.004   0.002  0.00  0.00    +0.160 A 
ATOM      8  N   LIG    1        1.288  -0.389  -0.012  0.00  0.00    -0.350 N 
ATOM      9  N   LIG    1        2.094   0.756  -0.014  0.00  0.00    -0.290 NA
ATOM     10  C   LIG    1       -1.200  -0.912   0.009  0.00  0.00    +0.170 C 
ATOM     11  C   LIG    1        1.327   1.812  -0.001  0.00  0.00    +0.270 A 
BRANCH   8  12
ATOM     12  C   LIG    1        1.768  -1.773  -0.024  0.00  0.00    +0.260 C 
ATOM     13  C   LIG    1        2.629  -2.025   1.216  0.00  0.00    +0.050 C 
ATOM     14  C   LIG    1        2.604  -2.012  -1.282  0.00  0.00    +0.050 C 
ENDBRANCH   8  12
ENDBRANCH   4   6
ENDBRANCH   1   2
BRANCH   1  15
ATOM     15  C   LIG    1       -1.847   5.899   0.043  0.00  0.00    +0.130 C 
BRANCH  15  18
ATOM     16  C   LIG    1       -4.965   7.649  -0.499  0.00  0.00    +0.240 A 
ATOM     17  N   LIG    1       -4.078   6.741  -0.833  0.00  0.00    -0.470 NA
ATOM     18  C   LIG    1       -3.072   6.777   0.054  0.00  0.00    -0.010 A 
ATOM     19  C   LIG    1       -3.348   7.741   0.951  0.00  0.00    +0.150 A 
ATOM     20  O   LIG    1       -4.531   8.284   0.604  0.00  0.00    -0.190 OA
BRANCH  16  25
ATOM     21  C   LIG    1       -9.871   8.744  -3.299  0.00  0.00    +0.100 C 
ATOM     22  C   LIG    1       -8.586   8.457  -2.566  0.00  0.00    -0.060 A 
ATOM     23  C   LIG    1       -8.259   9.188  -1.438  0.00  0.00    +0.010 A 
ATOM     24  C   LIG    1       -7.084   8.931  -0.761  0.00  0.00    +0.050 A 
ATOM     25  C   LIG    1       -6.225   7.930  -1.218  0.00  0.00    -0.030 A 
ATOM     26  C   LIG    1       -6.559   7.200  -2.360  0.00  0.00    +0.080 A 
ATOM     27  C   LIG    1       -7.739   7.464  -3.024  0.00  0.00    +0.010 A 
ENDBRANCH  16  25
ENDBRANCH  15  18
ENDBRANCH   1  15
TORSDOF 6
