REMARK  Name = ZINCqH0000007Lwh.0
REMARK                            x       y       z     vdW  Elec       q    Type
REMARK                         _______ _______ _______ _____ _____    ______ ____
ROOT
ATOM      1  N   LIG    1       -0.760   1.590  -1.147  0.00  0.00    -0.730 N 
ATOM      2  H   LIG    1       -0.488   2.415  -1.578  0.00  0.00    +0.400 HD
ATOM      3  C   LIG    1       -1.826   0.906  -1.610  0.00  0.00    +0.710 C 
ATOM      4  N   LIG    1       -2.514   1.370  -2.672  0.00  0.00    -0.740 N 
ATOM      5  H   LIG    1       -2.242   2.195  -3.103  0.00  0.00    +0.400 HD
ATOM      6  O   LIG    1       -2.167  -0.128  -1.069  0.00  0.00    -0.580 OA
ENDROOT
BRANCH   1  12
ATOM      7  C   LIG    1       -0.248   3.272   2.968  0.00  0.00    +0.130 A 
ATOM      8  C   LIG    1       -1.377   2.847   3.651  0.00  0.00    -0.070 A 
ATOM      9  C   LIG    1       -2.127   1.798   3.156  0.00  0.00    +0.040 A 
ATOM     10  C   LIG    1       -1.752   1.175   1.982  0.00  0.00    +0.010 A 
ATOM     11  C   LIG    1       -0.624   1.596   1.296  0.00  0.00    -0.080 A 
ATOM     12  C   LIG    1       -0.013   1.086   0.008  0.00  0.00    +0.300 C 
ATOM     13  C   LIG    1        1.427   1.641  -0.003  0.00  0.00    +0.050 C 
ATOM     14  C   LIG    1        1.299   2.911   0.865  0.00  0.00    +0.090 C 
ATOM     15  C   LIG    1        0.129   2.644   1.787  0.00  0.00    -0.120 A 
BRANCH   7  17
ATOM     16  C   LIG    1        0.046   4.903   4.673  0.00  0.00    +0.240 C 
ATOM     17  O   LIG    1        0.491   4.303   3.454  0.00  0.00    -0.320 OA
ENDBRANCH   7  17
ENDBRANCH   1  12
BRANCH   4  18
ATOM     18  C   LIG    1       -3.672   0.627  -3.175  0.00  0.00    +0.340 C 
BRANCH  18  19
ATOM     19  C   LIG    1       -4.258   1.353  -4.359  0.00  0.00    -0.110 A 
ATOM     20  C   LIG    1       -3.812   1.064  -5.612  0.00  0.00    +0.060 A 
ATOM     21  C   LIG    1       -4.357   1.739  -6.716  0.00  0.00    -0.110 A 
ATOM     22  C   LIG    1       -3.924   1.469  -8.028  0.00  0.00    +0.090 A 
ATOM     23  C   LIG    1       -4.500   2.164  -9.053  0.00  0.00    -0.040 A 
ATOM     24  C   LIG    1       -5.487   3.109  -8.784  0.00  0.00    +0.300 A 
ATOM     25  N   LIG    1       -5.889   3.357  -7.561  0.00  0.00    -0.480 NA
ATOM     26  C   LIG    1       -5.366   2.713  -6.513  0.00  0.00    +0.130 A 
ATOM     27  C   LIG    1       -5.801   2.984  -5.204  0.00  0.00    +0.050 A 
ATOM     28  C   LIG    1       -5.254   2.307  -4.157  0.00  0.00    +0.050 A 
ENDBRANCH  18  19
ENDBRANCH   4  18
TORSDOF 4
