REMARK  Name = ZINCpe000000Sv2K.0
REMARK                            x       y       z     vdW  Elec       q    Type
REMARK                         _______ _______ _______ _____ _____    ______ ____
ROOT
ATOM      1  C   LIG    1       -4.216   3.431  -3.169  0.00  0.00    +0.100 A 
ATOM      2  N   LIG    1       -3.556   4.556  -3.321  0.00  0.00    -0.280 NA
ATOM      3  N   LIG    1       -2.918   4.837  -2.240  0.00  0.00    -0.270 NA
ATOM      4  C   LIG    1       -3.125   3.912  -1.346  0.00  0.00    +0.230 A 
ATOM      5  N   LIG    1       -3.962   2.985  -1.904  0.00  0.00    -0.300 N 
ENDROOT
BRANCH   5   6
ATOM      6  N   LIG    1       -4.443   1.850  -1.317  0.00  0.00    -0.580 N 
ATOM      7  H   LIG    1       -4.546   1.109  -1.994  0.00  0.00    +0.380 HD
ATOM      8  H   LIG    1       -5.315   2.030  -0.842  0.00  0.00    +0.370 HD
ENDBRANCH   5   6
BRANCH   1   9
ATOM      9  S   LIG    1       -5.237   2.646  -4.371  0.00  0.00    +0.080 S 
BRANCH   9  10
ATOM     10  C   LIG    1       -5.069   3.817  -5.740  0.00  0.00    +0.140 C 
BRANCH  10  16
ATOM     11  N   LIG    1       -6.660   4.343 -10.246  0.00  0.00    -0.730 N 
ATOM     12  H   LIG    1       -6.155   5.169 -10.311  0.00  0.00    +0.400 HD
ATOM     13  C   LIG    1       -6.634   3.626  -9.106  0.00  0.00    +0.690 C 
ATOM     14  N   LIG    1       -5.907   4.055  -8.055  0.00  0.00    -0.680 N 
ATOM     15  H   LIG    1       -5.402   4.881  -8.120  0.00  0.00    +0.410 HD
ATOM     16  C   LIG    1       -5.882   3.337  -6.915  0.00  0.00    +0.540 C 
ATOM     17  O   LIG    1       -6.512   2.305  -6.834  0.00  0.00    -0.450 OA
ATOM     18  O   LIG    1       -7.266   2.591  -9.025  0.00  0.00    -0.530 OA
BRANCH  11  19
ATOM     19  C   LIG    1       -7.450   3.877 -11.388  0.00  0.00    +0.320 C 
BRANCH  19  21
ATOM     20  C   LIG    1       -6.907   4.433 -13.703  0.00  0.00    +0.050 C 
ATOM     21  C   LIG    1       -7.309   4.852 -12.528  0.00  0.00    -0.060 C 
ENDBRANCH  19  21
ENDBRANCH  11  19
ENDBRANCH  10  16
ENDBRANCH   9  10
ENDBRANCH   1   9
BRANCH   4  22
ATOM     22  C   LIG    1       -2.552   3.874   0.048  0.00  0.00    +0.220 C 
BRANCH  22  23
ATOM     23  C   LIG    1       -1.238   3.137   0.031  0.00  0.00    -0.130 A 
ATOM     24  C   LIG    1       -0.050   3.842   0.023  0.00  0.00    +0.070 A 
ATOM     25  C   LIG    1        1.156   3.166   0.007  0.00  0.00    +0.000 A 
ATOM     26  C   LIG    1        1.175   1.783   0.000  0.00  0.00    +0.040 A 
ATOM     27  C   LIG    1       -0.013   1.076   0.008  0.00  0.00    -0.020 A 
ATOM     28  C   LIG    1       -1.221   1.752   0.017  0.00  0.00    +0.110 A 
ATOM     29  F   LIG    1       -2.382   1.061   0.019  0.00  0.00    -0.120 F 
ENDBRANCH  22  23
ENDBRANCH   4  22
TORSDOF 8
