REMARK  Name = ZINCnE000001F792.0
REMARK                            x       y       z     vdW  Elec       q    Type
REMARK                         _______ _______ _______ _____ _____    ______ ____
ROOT
ATOM      1  N   LIG    1        3.478   1.654  -0.022  0.00  0.00    -0.640 NA
ATOM      2  C   LIG    1        3.708   2.982  -0.017  0.00  0.00    +0.510 C 
ATOM      3  O   LIG    1        2.774   3.760  -0.004  0.00  0.00    -0.560 OA
ENDROOT
BRANCH   2   4
ATOM      4  C   LIG    1        5.098   3.494  -0.027  0.00  0.00    +0.110 A 
ATOM      5  N   LIG    1        6.110   2.644  -0.041  0.00  0.00    -0.370 NA
ATOM      6  C   LIG    1        7.361   3.106  -0.050  0.00  0.00    +0.070 A 
ATOM      7  C   LIG    1        8.459   2.225  -0.065  0.00  0.00    +0.070 A 
ATOM      8  C   LIG    1        9.724   2.726  -0.075  0.00  0.00    +0.020 A 
ATOM      9  C   LIG    1        9.952   4.101  -0.069  0.00  0.00    +0.030 A 
ATOM     10  C   LIG    1        8.915   4.984  -0.054  0.00  0.00    +0.050 A 
ATOM     11  C   LIG    1        7.594   4.507  -0.045  0.00  0.00    +0.070 A 
ATOM     12  N   LIG    1        6.556   5.352  -0.030  0.00  0.00    -0.440 NA
ATOM     13  C   LIG    1        5.331   4.881  -0.028  0.00  0.00    +0.300 A 
ENDBRANCH   2   4
BRANCH   1  17
ATOM     14  C   LIG    1        0.002  -0.004   0.002  0.00  0.00    -0.060 A 
ATOM     15  N   LIG    1       -0.015   1.290   0.009  0.00  0.00    -0.240 NA
ATOM     16  N   LIG    1        1.090   1.896   0.002  0.00  0.00    -0.360 NA
ATOM     17  C   LIG    1        2.174   1.175  -0.012  0.00  0.00    +0.320 A 
ATOM     18  S   LIG    1        1.689  -0.522  -0.017  0.00  0.00    -0.050 S 
BRANCH  14  19
ATOM     19  C   LIG    1       -1.204  -0.908   0.009  0.00  0.00    +0.140 C 
BRANCH  19  20
ATOM     20  C   LIG    1       -1.626  -1.206  -1.431  0.00  0.00    +0.020 C 
BRANCH  20  21
ATOM     21  C   LIG    1       -2.850  -2.124  -1.424  0.00  0.00    +0.000 C 
BRANCH  21  23
ATOM     22  C   LIG    1       -4.496  -3.340  -2.857  0.00  0.00    +0.000 C 
ATOM     23  C   LIG    1       -3.272  -2.423  -2.864  0.00  0.00    -0.010 C 
ENDBRANCH  21  23
ENDBRANCH  20  21
ENDBRANCH  19  20
ENDBRANCH  14  19
ENDBRANCH   1  17
TORSDOF 6
