REMARK  Name = ZINCrm00001RJwCJ.0
REMARK                            x       y       z     vdW  Elec       q    Type
REMARK                         _______ _______ _______ _____ _____    ______ ____
ROOT
ATOM      1  N   LIG    1       -0.107  -0.124   2.376  0.00  0.00    -0.370 N 
ATOM      2  C   LIG    1       -0.219   1.339   2.426  0.00  0.00    +0.260 C 
ATOM      3  C   LIG    1       -1.167   1.744   3.556  0.00  0.00    +0.070 C 
ATOM      4  C   LIG    1       -0.615   1.227   4.888  0.00  0.00    +0.040 C 
ATOM      5  C   LIG    1       -0.433  -0.291   4.799  0.00  0.00    +0.240 C 
ATOM      6  C   LIG    1        0.488  -0.621   3.623  0.00  0.00    +0.260 C 
ATOM      7  H   LIG    1       -1.025  -0.527   2.261  0.00  0.00    +0.430 HD
ENDROOT
BRANCH   5   8
ATOM      8  N   LIG    1        0.165  -0.785   6.042  0.00  0.00    -0.730 N 
ATOM      9  H   LIG    1        1.125  -0.907   6.103  0.00  0.00    +0.410 HD
ATOM     10  C   LIG    1       -0.619  -1.072   7.100  0.00  0.00    +0.530 C 
ATOM     11  O   LIG    1       -1.820  -0.920   7.023  0.00  0.00    -0.490 OA
BRANCH  10  12
ATOM     12  C   LIG    1       -0.004  -1.581   8.378  0.00  0.00    +0.000 C 
ATOM     13  C   LIG    1       -1.106  -1.826   9.413  0.00  0.00    +0.070 C 
ATOM     14  C   LIG    1       -0.480  -2.416  10.680  0.00  0.00    +0.060 C 
ATOM     15  C   LIG    1        0.274  -3.698  10.321  0.00  0.00    +0.260 C 
ATOM     16  N   LIG    1        1.330  -3.393   9.348  0.00  0.00    -0.500 N 
ATOM     17  H   LIG    1        1.859  -4.229   9.154  0.00  0.00    +0.440 HD
ATOM     18  H   LIG    1        1.944  -2.689   9.730  0.00  0.00    +0.430 HD
ATOM     19  C   LIG    1        0.732  -2.894   8.104  0.00  0.00    +0.270 C 
ENDBRANCH  10  12
ENDBRANCH   5   8
BRANCH   1  20
ATOM     20  C   LIG    1        0.742  -0.511   1.242  0.00  0.00    +0.230 C 
BRANCH  20  21
ATOM     21  C   LIG    1        0.737  -2.034   1.097  0.00  0.00    +0.210 C 
BRANCH  21  22
ATOM     22  O   LIG    1       -0.597  -2.485   0.855  0.00  0.00    -0.550 OA
ATOM     23  H   LIG    1       -0.996  -2.121   0.053  0.00  0.00    +0.390 HD
ENDBRANCH  21  22
BRANCH  21  24
ATOM     24  C   LIG    1        1.632  -2.438  -0.077  0.00  0.00    +0.090 C 
BRANCH  24  28
ATOM     25  C   LIG    1       -0.100  -6.814  -1.775  0.00  0.00    +0.110 C 
ATOM     26  C   LIG    1        0.896  -6.034  -0.957  0.00  0.00    -0.110 A 
ATOM     27  C   LIG    1        0.812  -4.656  -0.895  0.00  0.00    +0.060 A 
ATOM     28  C   LIG    1        1.726  -3.940  -0.144  0.00  0.00    -0.110 A 
ATOM     29  C   LIG    1        2.728  -4.601   0.541  0.00  0.00    +0.030 A 
ATOM     30  C   LIG    1        2.812  -5.980   0.484  0.00  0.00    -0.010 A 
ATOM     31  C   LIG    1        1.897  -6.698  -0.267  0.00  0.00    +0.110 A 
ATOM     32  F   LIG    1        1.981  -8.045  -0.328  0.00  0.00    -0.130 F 
ENDBRANCH  24  28
ENDBRANCH  21  24
ENDBRANCH  20  21
ENDBRANCH   1  20
TORSDOF 7
