REMARK  Name = ZINCrm00001RJwCJ.1
REMARK                            x       y       z     vdW  Elec       q    Type
REMARK                         _______ _______ _______ _____ _____    ______ ____
ROOT
ATOM      1  N   LIG    1       -3.394   3.539   2.865  0.00  0.00    -0.380 N 
ATOM      2  C   LIG    1       -2.346   4.387   3.446  0.00  0.00    +0.260 C 
ATOM      3  C   LIG    1       -2.669   4.668   4.915  0.00  0.00    +0.060 C 
ATOM      4  C   LIG    1       -4.018   5.387   5.007  0.00  0.00    +0.050 C 
ATOM      5  C   LIG    1       -5.090   4.527   4.332  0.00  0.00    +0.270 C 
ATOM      6  C   LIG    1       -4.677   4.252   2.884  0.00  0.00    +0.270 C 
ATOM      7  H   LIG    1       -3.474   2.689   3.403  0.00  0.00    +0.420 HD
ENDROOT
BRANCH   5   8
ATOM      8  N   LIG    1       -5.225   3.259   5.053  0.00  0.00    -0.740 N 
ATOM      9  H   LIG    1       -4.738   2.476   4.752  0.00  0.00    +0.390 HD
ATOM     10  C   LIG    1       -6.027   3.180   6.133  0.00  0.00    +0.530 C 
ATOM     11  O   LIG    1       -6.637   4.159   6.509  0.00  0.00    -0.500 OA
BRANCH  10  12
ATOM     12  C   LIG    1       -6.167   1.875   6.875  0.00  0.00    +0.000 C 
ATOM     13  C   LIG    1       -4.797   1.439   7.403  0.00  0.00    +0.050 C 
ATOM     14  C   LIG    1       -4.962   0.154   8.221  0.00  0.00    +0.060 C 
ATOM     15  C   LIG    1       -5.968   0.400   9.348  0.00  0.00    +0.260 C 
ATOM     16  N   LIG    1       -7.263   0.788   8.777  0.00  0.00    -0.500 N 
ATOM     17  H   LIG    1       -7.577   0.070   8.141  0.00  0.00    +0.430 HD
ATOM     18  H   LIG    1       -7.938   0.896   9.519  0.00  0.00    +0.440 HD
ATOM     19  C   LIG    1       -7.128   2.057   8.051  0.00  0.00    +0.290 C 
ENDBRANCH  10  12
ENDBRANCH   5   8
BRANCH   1  20
ATOM     20  C   LIG    1       -3.040   3.208   1.478  0.00  0.00    +0.240 C 
BRANCH  20  21
ATOM     21  C   LIG    1       -1.770   2.354   1.466  0.00  0.00    +0.220 C 
BRANCH  21  22
ATOM     22  O   LIG    1       -2.033   1.100   2.099  0.00  0.00    -0.550 OA
ATOM     23  H   LIG    1       -2.729   0.582   1.672  0.00  0.00    +0.390 HD
ENDBRANCH  21  22
BRANCH  21  24
ATOM     24  C   LIG    1       -1.332   2.113   0.020  0.00  0.00    +0.090 C 
BRANCH  24  28
ATOM     25  C   LIG    1        3.671   2.186  -0.021  0.00  0.00    +0.110 C 
ATOM     26  C   LIG    1        2.377   1.414  -0.013  0.00  0.00    -0.110 A 
ATOM     27  C   LIG    1        1.171   2.087   0.002  0.00  0.00    +0.040 A 
ATOM     28  C   LIG    1       -0.017   1.378   0.010  0.00  0.00    -0.110 A 
ATOM     29  C   LIG    1        0.002  -0.004   0.002  0.00  0.00    +0.050 A 
ATOM     30  C   LIG    1        1.208  -0.679  -0.014  0.00  0.00    -0.010 A 
ATOM     31  C   LIG    1        2.397   0.029  -0.021  0.00  0.00    +0.110 A 
ATOM     32  F   LIG    1        3.577  -0.630  -0.037  0.00  0.00    -0.130 F 
ENDBRANCH  24  28
ENDBRANCH  21  24
ENDBRANCH  20  21
ENDBRANCH   1  20
TORSDOF 7
