REMARK  Name = ZINCrg000000qSDx.0
REMARK                            x       y       z     vdW  Elec       q    Type
REMARK                         _______ _______ _______ _____ _____    ______ ____
ROOT
ATOM      1  C   LIG    1       -1.235   2.107   0.018  0.00  0.00    +0.190 C 
ATOM      2  N   LIG    1       -0.664   3.465   0.026  0.00  0.00    -0.710 N 
ATOM      3  H   LIG    1       -1.157   4.301   0.035  0.00  0.00    +0.450 HD
ATOM      4  C   LIG    1        0.673   3.321   0.013  0.00  0.00    +0.710 C 
ATOM      5  N   LIG    1        1.048   2.037   0.003  0.00  0.00    -0.370 N 
ATOM      6  O   LIG    1        1.453   4.253   0.010  0.00  0.00    -0.520 OA
ATOM      7  C   LIG    1       -2.079   1.882  -1.237  0.00  0.00    +0.110 C 
ATOM      8  C   LIG    1       -0.014   1.208   0.009  0.00  0.00    +0.540 C 
ATOM      9  O   LIG    1        0.002  -0.004   0.002  0.00  0.00    -0.440 OA
ENDROOT
BRANCH   1  13
ATOM     10  C   LIG    1       -3.563   1.443   3.540  0.00  0.00    +0.140 A 
ATOM     11  C   LIG    1       -3.552   2.694   2.940  0.00  0.00    -0.010 A 
ATOM     12  C   LIG    1       -2.798   2.906   1.802  0.00  0.00    +0.080 A 
ATOM     13  C   LIG    1       -2.056   1.873   1.260  0.00  0.00    -0.140 A 
ATOM     14  C   LIG    1       -2.070   0.624   1.853  0.00  0.00    +0.070 A 
ATOM     15  C   LIG    1       -2.817   0.409   2.995  0.00  0.00    -0.070 A 
BRANCH  10  17
ATOM     16  C   LIG    1       -4.268  -0.080   5.223  0.00  0.00    +0.240 C 
ATOM     17  O   LIG    1       -4.304   1.232   4.659  0.00  0.00    -0.310 OA
ENDBRANCH  10  17
ENDBRANCH   1  13
BRANCH   5  18
ATOM     18  N   LIG    1        2.382   1.606  -0.012  0.00  0.00    -0.500 N 
ATOM     19  H   LIG    1        2.784   1.246   0.794  0.00  0.00    +0.430 HD
ATOM     20  C   LIG    1        3.105   1.693  -1.146  0.00  0.00    +0.540 C 
ATOM     21  O   LIG    1        2.602   2.143  -2.153  0.00  0.00    -0.490 OA
BRANCH  20  22
ATOM     22  C   LIG    1        4.539   1.230  -1.162  0.00  0.00    +0.130 C 
BRANCH  22  23
ATOM     23  S   LIG    1        5.233   1.474  -2.816  0.00  0.00    +0.110 S 
BRANCH  23  24
ATOM     24  C   LIG    1        6.867   0.868  -2.555  0.00  0.00    +0.280 A 
ATOM     25  N   LIG    1        7.207   0.421  -1.354  0.00  0.00    -0.530 NA
ATOM     26  C   LIG    1        8.423  -0.045  -1.126  0.00  0.00    +0.330 A 
ATOM     27  C   LIG    1        9.349  -0.053  -2.158  0.00  0.00    -0.090 A 
ATOM     28  C   LIG    1        8.962   0.425  -3.399  0.00  0.00    +0.350 A 
ATOM     29  N   LIG    1        7.728   0.873  -3.562  0.00  0.00    -0.500 NA
ENDBRANCH  23  24
ENDBRANCH  22  23
ENDBRANCH  20  22
ENDBRANCH   5  18
TORSDOF 6
