REMARK  Name = ZINCqH0000005siN.0
REMARK                            x       y       z     vdW  Elec       q    Type
REMARK                         _______ _______ _______ _____ _____    ______ ____
ROOT
ATOM      1  N   LIG    1       -0.691   2.002   1.207  0.00  0.00    -0.720 N 
ATOM      2  H   LIG    1       -0.170   2.220   1.996  0.00  0.00    +0.410 HD
ENDROOT
BRANCH   1   6
ATOM      3  C   LIG    1       -4.827   2.469   1.250  0.00  0.00    -0.190 A 
ATOM      4  C   LIG    1       -4.074   2.783   2.385  0.00  0.00    +0.100 A 
ATOM      5  C   LIG    1       -2.707   2.628   2.367  0.00  0.00    -0.060 A 
ATOM      6  C   LIG    1       -2.073   2.158   1.220  0.00  0.00    +0.250 A 
ATOM      7  C   LIG    1       -2.817   1.850   0.086  0.00  0.00    -0.060 A 
ATOM      8  C   LIG    1       -4.187   1.998   0.098  0.00  0.00    +0.070 A 
ATOM      9 CL   LIG    1       -5.116   1.607  -1.315  0.00  0.00    -0.030 Cl
BRANCH   3  13
ATOM     10  C   LIG    1       -8.363   3.251   2.392  0.00  0.00    +0.290 C 
ATOM     11  N   LIG    1       -6.907   3.088   2.376  0.00  0.00    -0.740 N 
ATOM     12  H   LIG    1       -6.386   3.305   3.165  0.00  0.00    +0.400 HD
ATOM     13  C   LIG    1       -6.292   2.634   1.266  0.00  0.00    +0.560 C 
ATOM     14  O   LIG    1       -6.946   2.361   0.277  0.00  0.00    -0.520 OA
ENDBRANCH   3  13
ENDBRANCH   1   6
BRANCH   1  15
ATOM     15  C   LIG    1       -0.021   1.508   0.001  0.00  0.00    +0.250 C 
ATOM     16  C   LIG    1        1.473   1.907   0.010  0.00  0.00    +0.080 C 
ATOM     17  C   LIG    1        2.133   0.667  -0.633  0.00  0.00    +0.280 C 
ATOM     18  N   LIG    1        1.217  -0.448  -0.365  0.00  0.00    -0.560 N 
ATOM     19  C   LIG    1       -0.002  -0.004  -0.013  0.00  0.00    +0.500 C 
ATOM     20  O   LIG    1       -0.949  -0.713   0.257  0.00  0.00    -0.480 OA
BRANCH  18  21
ATOM     21  C   LIG    1        1.567  -1.800  -0.465  0.00  0.00    +0.170 A 
ATOM     22  C   LIG    1        2.816  -2.160  -0.952  0.00  0.00    +0.020 A 
ATOM     23  C   LIG    1        3.160  -3.495  -1.050  0.00  0.00    +0.040 A 
ATOM     24  C   LIG    1        2.261  -4.473  -0.661  0.00  0.00    +0.090 A 
ATOM     25  C   LIG    1        1.014  -4.116  -0.174  0.00  0.00    -0.040 A 
ATOM     26 CL   LIG    1       -0.112  -5.345   0.313  0.00  0.00    -0.040 Cl
ATOM     27  F   LIG    1        2.600  -5.777  -0.757  0.00  0.00    -0.130 F 
ATOM     28  C   LIG    1        0.667  -2.782  -0.070  0.00  0.00    +0.050 A 
ENDBRANCH  18  21
ENDBRANCH   1  15
TORSDOF 4
