REMARK  Name = ZINCpe00000VVGNS.0
REMARK                            x       y       z     vdW  Elec       q    Type
REMARK                         _______ _______ _______ _____ _____    ______ ____
ROOT
ATOM      1  N   LIG    1       -0.011   0.966   0.002  0.00  0.00    -0.490 N 
ATOM      2  H   LIG    1        0.002  -0.004  -0.004  0.00  0.00    +0.440 HD
ENDROOT
BRANCH   1   6
ATOM      3  C   LIG    1       -3.482   3.029   0.046  0.00  0.00    -0.010 A 
ATOM      4  N   LIG    1       -2.315   3.622   0.137  0.00  0.00    -0.140 NA
ATOM      5  N   LIG    1       -1.220   2.951   0.121  0.00  0.00    -0.380 NA
ATOM      6  C   LIG    1       -1.205   1.634   0.014  0.00  0.00    +0.550 A 
ATOM      7  N   LIG    1       -2.370   0.937  -0.090  0.00  0.00    -0.370 N 
ATOM      8  C   LIG    1       -3.537   1.622  -0.071  0.00  0.00    +0.520 A 
ATOM      9  O   LIG    1       -4.606   1.042  -0.158  0.00  0.00    -0.480 OA
BRANCH   3  11
ATOM     10  C   LIG    1       -4.406   5.324   0.201  0.00  0.00    +0.050 C 
ATOM     11  C   LIG    1       -4.752   3.840   0.067  0.00  0.00    +0.010 C 
ATOM     12  C   LIG    1       -5.614   3.408   1.255  0.00  0.00    +0.040 C 
ATOM     13  C   LIG    1       -5.524   3.612  -1.234  0.00  0.00    +0.040 C 
ENDBRANCH   3  11
BRANCH   7  14
ATOM     14  N   LIG    1       -2.362  -0.423  -0.207  0.00  0.00    -0.590 N 
ATOM     15  H   LIG    1       -2.981  -0.848   0.467  0.00  0.00    +0.380 HD
ATOM     16  H   LIG    1       -1.425  -0.788  -0.118  0.00  0.00    +0.360 HD
ENDBRANCH   7  14
ENDBRANCH   1   6
BRANCH   1  17
ATOM     17  N   LIG    1        1.193   1.683  -0.007  0.00  0.00    -0.500 N 
ATOM     18  H   LIG    1        1.179   2.653   0.000  0.00  0.00    +0.440 HD
ATOM     19  C   LIG    1        2.369   1.026  -0.024  0.00  0.00    +0.600 C 
ATOM     20  O   LIG    1        2.386  -0.191  -0.032  0.00  0.00    -0.540 OA
BRANCH  19  21
ATOM     21  C   LIG    1        3.631   1.778  -0.033  0.00  0.00    -0.230 A 
ATOM     22  C   LIG    1        3.773   3.134  -0.025  0.00  0.00    +0.310 A 
ATOM     23  N   LIG    1        5.088   3.457  -0.037  0.00  0.00    -0.570 N 
ATOM     24  H   LIG    1        5.436   4.363  -0.034  0.00  0.00    +0.430 HD
ATOM     25  C   LIG    1        5.864   2.317  -0.054  0.00  0.00    +0.080 A 
ATOM     26  C   LIG    1        7.238   2.100  -0.070  0.00  0.00    +0.010 A 
ATOM     27  C   LIG    1        7.731   0.813  -0.084  0.00  0.00    +0.030 A 
ATOM     28  C   LIG    1        6.870  -0.274  -0.082  0.00  0.00    +0.000 A 
ATOM     29  C   LIG    1        5.505  -0.080  -0.066  0.00  0.00    +0.060 A 
ATOM     30  C   LIG    1        4.994   1.215  -0.046  0.00  0.00    -0.060 A 
ENDBRANCH  19  21
ENDBRANCH   1  17
TORSDOF 5
