REMARK  Name = ZINCqH00000361DH.0
REMARK                            x       y       z     vdW  Elec       q    Type
REMARK                         _______ _______ _______ _____ _____    ______ ____
ROOT
ATOM      1  C   LIG    1        1.903  -0.074  -0.058  0.00  0.00    +0.190 C 
ATOM      2  C   LIG    1        2.831  -1.272  -0.272  0.00  0.00    +0.050 C 
ENDROOT
BRANCH   1   6
ATOM      3  N   LIG    1        4.190   2.005   1.931  0.00  0.00    -0.680 N 
ATOM      4  H   LIG    1        3.714   2.058   2.775  0.00  0.00    +0.410 HD
ATOM      5  C   LIG    1        3.663   1.309   0.904  0.00  0.00    +0.710 C 
ATOM      6  N   LIG    1        2.433   0.769   1.016  0.00  0.00    -0.740 N 
ATOM      7  H   LIG    1        1.900   0.938   1.808  0.00  0.00    +0.400 HD
ATOM      8  O   LIG    1        4.297   1.168  -0.124  0.00  0.00    -0.560 OA
BRANCH   3  12
ATOM      9  C   LIG    1        7.863   3.927   1.482  0.00  0.00    +0.110 A 
ATOM     10  C   LIG    1        6.881   4.487   2.286  0.00  0.00    +0.000 A 
ATOM     11  C   LIG    1        5.665   3.851   2.436  0.00  0.00    +0.020 A 
ATOM     12  C   LIG    1        5.424   2.651   1.780  0.00  0.00    +0.120 A 
ATOM     13  C   LIG    1        6.409   2.089   0.979  0.00  0.00    +0.070 A 
ATOM     14  C   LIG    1        7.623   2.728   0.827  0.00  0.00    -0.060 A 
BRANCH   9  16
ATOM     15  C   LIG    1       10.026   3.920   0.493  0.00  0.00    +0.250 C 
ATOM     16  O   LIG    1        9.061   4.553   1.336  0.00  0.00    -0.320 OA
ENDBRANCH   9  16
ENDBRANCH   3  12
ENDBRANCH   1   6
BRANCH   1  17
ATOM     17  C   LIG    1        1.815   0.741  -1.350  0.00  0.00    -0.010 C 
ATOM     18  C   LIG    1        0.882   1.934  -1.138  0.00  0.00    +0.020 C 
ATOM     19  C   LIG    1        1.267  -0.142  -2.473  0.00  0.00    +0.030 C 
ENDBRANCH   1  17
BRANCH   1  20
ATOM     20  C   LIG    1        0.508  -0.572   0.327  0.00  0.00    +0.310 C 
BRANCH  20  21
ATOM     21  N   LIG    1       -0.335   0.569   0.692  0.00  0.00    -0.710 N 
ATOM     22  H   LIG    1        0.054   1.454   0.768  0.00  0.00    +0.410 HD
ATOM     23  C   LIG    1       -1.651   0.390   0.918  0.00  0.00    +0.650 C 
ATOM     24  O   LIG    1       -2.139  -0.718   0.819  0.00  0.00    -0.560 OA
BRANCH  23  25
ATOM     25  O   LIG    1       -2.425   1.439   1.255  0.00  0.00    -0.360 OA
BRANCH  25  26
ATOM     26  C   LIG    1       -3.834   1.172   1.483  0.00  0.00    +0.140 C 
ATOM     27  C   LIG    1       -4.456   0.593   0.211  0.00  0.00    +0.040 C 
ATOM     28  C   LIG    1       -4.547   2.474   1.852  0.00  0.00    +0.080 C 
ATOM     29  C   LIG    1       -3.983   0.167   2.627  0.00  0.00    +0.040 C 
ENDBRANCH  25  26
ENDBRANCH  23  25
ENDBRANCH  20  21
ENDBRANCH   1  20
TORSDOF 8
