REMARK  Name = ZINCrH000004qdWn.0
REMARK                            x       y       z     vdW  Elec       q    Type
REMARK                         _______ _______ _______ _____ _____    ______ ____
ROOT
ATOM      1  C   LIG    1        3.692   3.322   0.838  0.00  0.00    +0.170 C 
ATOM      2  C   LIG    1        3.555   1.882   0.416  0.00  0.00    +0.180 A 
ATOM      3  C   LIG    1        2.478   1.338  -0.193  0.00  0.00    -0.080 A 
ATOM      4  C   LIG    1        2.777  -0.076  -0.423  0.00  0.00    +0.540 A 
ATOM      5  N   LIG    1        4.014  -0.300   0.066  0.00  0.00    -0.370 N 
ATOM      6  O   LIG    1        2.048  -0.895  -0.954  0.00  0.00    -0.510 OA
ATOM      7  N   LIG    1        4.499   0.905   0.589  0.00  0.00    -0.390 N 
ATOM      8  C   LIG    1        5.810   1.092   1.215  0.00  0.00    +0.350 C 
ENDROOT
BRANCH   5   9
ATOM      9  C   LIG    1        4.694  -1.522   0.054  0.00  0.00    +0.150 A 
ATOM     10  C   LIG    1        6.003  -1.586  -0.405  0.00  0.00    +0.000 A 
ATOM     11  C   LIG    1        6.672  -2.794  -0.411  0.00  0.00    +0.030 A 
ATOM     12  C   LIG    1        6.037  -3.941   0.030  0.00  0.00    +0.010 A 
ATOM     13  C   LIG    1        4.732  -3.881   0.483  0.00  0.00    +0.030 A 
ATOM     14  C   LIG    1        4.058  -2.675   0.496  0.00  0.00    +0.030 A 
ENDBRANCH   5   9
BRANCH   3  15
ATOM     15  N   LIG    1        1.290   2.009  -0.547  0.00  0.00    -0.640 N 
ATOM     16  H   LIG    1        1.332   2.830  -1.061  0.00  0.00    +0.410 HD
ATOM     17  C   LIG    1        0.096   1.509  -0.171  0.00  0.00    +0.520 C 
ATOM     18  O   LIG    1        0.037   0.435   0.389  0.00  0.00    -0.510 OA
BRANCH  17  19
ATOM     19  C   LIG    1       -1.167   2.283  -0.451  0.00  0.00    +0.090 C 
BRANCH  19  20
ATOM     20  C   LIG    1       -2.372   1.497   0.068  0.00  0.00    +0.110 C 
BRANCH  20  21
ATOM     21  S   LIG    1       -3.892   2.428  -0.269  0.00  0.00    -0.250 S 
BRANCH  21  22
ATOM     22  C   LIG    1       -5.187   1.353   0.407  0.00  0.00    +0.140 C 
BRANCH  22  23
ATOM     23  C   LIG    1       -6.534   1.998   0.201  0.00  0.00    -0.080 A 
ATOM     24  C   LIG    1       -7.054   2.837   1.169  0.00  0.00    +0.020 A 
ATOM     25  C   LIG    1       -8.286   3.432   0.978  0.00  0.00    +0.000 A 
ATOM     26  C   LIG    1       -9.004   3.182  -0.176  0.00  0.00    +0.010 A 
ATOM     27  C   LIG    1       -8.486   2.339  -1.143  0.00  0.00    +0.000 A 
ATOM     28  C   LIG    1       -7.251   1.748  -0.954  0.00  0.00    +0.020 A 
ENDBRANCH  22  23
ENDBRANCH  21  22
ENDBRANCH  20  21
ENDBRANCH  19  20
ENDBRANCH  17  19
ENDBRANCH   3  15
TORSDOF 7
