REMARK  Name = ZINCvU00000007Eg.0
REMARK                            x       y       z     vdW  Elec       q    Type
REMARK                         _______ _______ _______ _____ _____    ______ ____
ROOT
ATOM      1  C   LIG    1        2.862   6.728   0.010  0.00  0.00    +0.030 C 
ATOM      2  C   LIG    1        3.425   6.870   1.425  0.00  0.00    +0.100 C 
ENDROOT
BRANCH   1   3
ATOM      3  C   LIG    1        1.732   5.732   0.016  0.00  0.00    +0.540 C 
ATOM      4  N   LIG    1        1.998   4.411   0.006  0.00  0.00    -0.610 N 
ATOM      5  H   LIG    1        2.917   4.101  -0.005  0.00  0.00    +0.430 HD
ATOM      6  O   LIG    1        0.582   6.119   0.030  0.00  0.00    -0.490 OA
BRANCH   4   7
ATOM      7  C   LIG    1        0.955   3.492   0.012  0.00  0.00    +0.270 A 
ATOM      8  N   LIG    1        1.093   2.203   0.004  0.00  0.00    -0.490 NA
ATOM      9  C   LIG    1       -0.018   1.479   0.010  0.00  0.00    +0.130 A 
ATOM     10  C   LIG    1       -1.165   2.182   0.019  0.00  0.00    -0.110 A 
ATOM     11  S   LIG    1       -0.758   3.897   0.030  0.00  0.00    +0.210 S 
BRANCH   9  12
ATOM     12  C   LIG    1        0.002  -0.004   0.002  0.00  0.00    -0.020 A 
ATOM     13  C   LIG    1       -1.194  -0.720   0.015  0.00  0.00    +0.020 A 
ATOM     14  C   LIG    1       -1.169  -2.100   0.003  0.00  0.00    +0.010 A 
ATOM     15  C   LIG    1        0.040  -2.772  -0.012  0.00  0.00    +0.010 A 
ATOM     16  C   LIG    1        1.230  -2.067  -0.020  0.00  0.00    +0.010 A 
ATOM     17  C   LIG    1        1.217  -0.687  -0.013  0.00  0.00    +0.040 A 
ENDBRANCH   9  12
ENDBRANCH   4   7
ENDBRANCH   1   3
BRANCH   1  18
ATOM     18  S   LIG    1        2.249   8.333  -0.559  0.00  0.00    +0.080 S 
BRANCH  18  29
ATOM     19  N   LIG    1        3.725  10.541  -1.016  0.00  0.00    -0.520 N 
ATOM     20  C   LIG    1        4.860  11.276  -1.068  0.00  0.00    +0.560 A 
ATOM     21  C   LIG    1        6.116  10.614  -0.690  0.00  0.00    -0.200 A 
ATOM     22  C   LIG    1        7.338  11.284  -0.717  0.00  0.00    +0.100 A 
ATOM     23  C   LIG    1        8.487  10.618  -0.353  0.00  0.00    -0.010 A 
ATOM     24  C   LIG    1        8.438   9.287   0.040  0.00  0.00    +0.070 A 
ATOM     25  C   LIG    1        7.243   8.605   0.073  0.00  0.00    +0.030 A 
ATOM     26  C   LIG    1        6.063   9.258  -0.291  0.00  0.00    +0.160 A 
ATOM     27  N   LIG    1        4.867   8.624  -0.272  0.00  0.00    -0.530 NA
ATOM     28  O   LIG    1        4.842  12.441  -1.420  0.00  0.00    -0.500 OA
ATOM     29  C   LIG    1        3.760   9.237  -0.614  0.00  0.00    +0.360 A 
BRANCH  19  31
ATOM     30  C   LIG    1        2.167  12.347  -0.473  0.00  0.00    +0.050 C 
ATOM     31  C   LIG    1        2.446  11.153  -1.387  0.00  0.00    +0.220 C 
ATOM     32  C   LIG    1        2.512  11.627  -2.841  0.00  0.00    +0.050 C 
ENDBRANCH  19  31
ENDBRANCH  18  29
ENDBRANCH   1  18
TORSDOF 6
