REMARK  Name = ZINCrg00001Jdv4l.0
REMARK                            x       y       z     vdW  Elec       q    Type
REMARK                         _______ _______ _______ _____ _____    ______ ____
ROOT
ATOM      1  C   LIG    1       -2.728  -2.792  -2.536  0.00  0.00    +0.610 C 
ATOM      2  N   LIG    1       -3.096  -3.417  -3.672  0.00  0.00    -0.660 N 
ATOM      3  H   LIG    1       -3.059  -2.946  -4.519  0.00  0.00    +0.420 HD
ATOM      4  O   LIG    1       -2.853  -3.355  -1.465  0.00  0.00    -0.510 OA
ENDROOT
BRANCH   2   5
ATOM      5  C   LIG    1       -3.530  -4.748  -3.631  0.00  0.00    +0.170 A 
ATOM      6  C   LIG    1       -3.234  -5.609  -4.679  0.00  0.00    +0.030 A 
ATOM      7  C   LIG    1       -3.658  -6.922  -4.635  0.00  0.00    +0.050 A 
ATOM      8  C   LIG    1       -4.390  -7.379  -3.548  0.00  0.00    +0.030 A 
ATOM      9  C   LIG    1       -4.691  -6.518  -2.503  0.00  0.00    +0.090 A 
ATOM     10  C   LIG    1       -4.263  -5.206  -2.543  0.00  0.00    +0.060 A 
BRANCH   8  11
ATOM     11  O   LIG    1       -4.813  -8.671  -3.508  0.00  0.00    -0.660 OA
BRANCH  11  12
ATOM     12  S   LIG    1       -6.184  -8.893  -4.130  0.00  0.00    +2.740 S 
ATOM     13  F   LIG    1       -5.973  -8.996  -5.723  0.00  0.00    -0.480 F 
ATOM     14  O   LIG    1       -6.927  -7.704  -3.899  0.00  0.00    -0.940 OA
ATOM     15  O   LIG    1       -6.617 -10.176  -3.698  0.00  0.00    -0.920 OA
ENDBRANCH  11  12
ENDBRANCH   8  11
ENDBRANCH   2   5
BRANCH   1  18
ATOM     16  N   LIG    1       -1.330   0.494  -2.003  0.00  0.00    -0.350 N 
ATOM     17  C   LIG    1       -1.761  -0.688  -1.520  0.00  0.00    +0.310 A 
ATOM     18  C   LIG    1       -2.175  -1.426  -2.592  0.00  0.00    -0.110 A 
ATOM     19  N   LIG    1       -1.987  -0.700  -3.707  0.00  0.00    -0.200 NA
ATOM     20  N   LIG    1       -1.487   0.445  -3.395  0.00  0.00    -0.040 NA
BRANCH  16  25
ATOM     21  C   LIG    1       -1.946   2.452  -0.618  0.00  0.00    +0.140 C 
ATOM     22  C   LIG    1       -1.407   2.770   0.800  0.00  0.00    +0.230 C 
ATOM     23  O   LIG    1       -0.709   1.561   1.176  0.00  0.00    -0.360 OA
ATOM     24  C   LIG    1       -0.021   1.094   0.004  0.00  0.00    +0.240 C 
ATOM     25  C   LIG    1       -0.795   1.613  -1.223  0.00  0.00    +0.260 C 
BRANCH  21  26
ATOM     26  O   LIG    1       -2.151   3.652  -1.367  0.00  0.00    -0.360 OA
BRANCH  26  28
ATOM     27  C   LIG    1       -3.603   5.404  -2.183  0.00  0.00    +0.070 C 
ATOM     28  C   LIG    1       -3.501   4.122  -1.355  0.00  0.00    +0.160 C 
ENDBRANCH  26  28
ENDBRANCH  21  26
ENDBRANCH  16  25
ENDBRANCH   1  18
TORSDOF 7
