REMARK  Name = ZINCrD00000749VH.0
REMARK                            x       y       z     vdW  Elec       q    Type
REMARK                         _______ _______ _______ _____ _____    ______ ____
ROOT
ATOM      1  N   LIG    1        1.140   2.169   0.003  0.00  0.00    -0.710 N 
ATOM      2  H   LIG    1        1.986   1.695  -0.008  0.00  0.00    +0.410 HD
ATOM      3  C   LIG    1       -0.018   1.479   0.010  0.00  0.00    +0.600 C 
ATOM      4  O   LIG    1       -1.078   2.072   0.018  0.00  0.00    -0.510 OA
ENDROOT
BRANCH   3   5
ATOM      5  C   LIG    1        0.002  -0.004   0.002  0.00  0.00    -0.020 A 
ATOM      6  N   LIG    1        1.062  -0.776  -0.012  0.00  0.00    -0.330 NA
ATOM      7  O   LIG    1        0.763  -1.947  -0.015  0.00  0.00    +0.130 OA
ATOM      8  C   LIG    1       -0.570  -2.121  -0.004  0.00  0.00    +0.020 A 
ATOM      9  C   LIG    1       -1.122  -0.871   0.014  0.00  0.00    +0.030 A 
BRANCH   8  10
ATOM     10  C   LIG    1       -1.296  -3.410  -0.004  0.00  0.00    -0.080 A 
ATOM     11  C   LIG    1       -0.594  -4.621  -0.018  0.00  0.00    +0.100 A 
ATOM     12  C   LIG    1       -1.321  -5.799  -0.018  0.00  0.00    -0.020 A 
ATOM     13  C   LIG    1       -2.702  -5.743  -0.004  0.00  0.00    +0.280 A 
ATOM     14  N   LIG    1       -3.337  -4.586   0.008  0.00  0.00    -0.480 NA
ATOM     15  C   LIG    1       -2.691  -3.438   0.014  0.00  0.00    +0.300 A 
ENDBRANCH   8  10
ENDBRANCH   3   5
BRANCH   1  17
ATOM     16  C   LIG    1        1.001   4.134   1.452  0.00  0.00    +0.040 C 
ATOM     17  C   LIG    1        1.120   3.634   0.011  0.00  0.00    +0.290 C 
BRANCH  17  18
ATOM     18  C   LIG    1        2.395   4.157  -0.599  0.00  0.00    -0.090 A 
ATOM     19  C   LIG    1        3.598   3.539  -0.315  0.00  0.00    +0.020 A 
ATOM     20  C   LIG    1        4.772   4.010  -0.876  0.00  0.00    +0.030 A 
ATOM     21  C   LIG    1        4.739   5.111  -1.715  0.00  0.00    +0.070 A 
ATOM     22  O   LIG    1        5.890   5.589  -2.270  0.00  0.00    -0.320 OA
ATOM     23  C   LIG    1        6.014   5.429  -3.685  0.00  0.00    +0.230 C 
ATOM     24  C   LIG    1        5.319   6.565  -4.420  0.00  0.00    -0.010 C 
ATOM     25  C   LIG    1        3.816   6.566  -4.195  0.00  0.00    +0.230 C 
ATOM     26  O   LIG    1        3.509   6.820  -2.822  0.00  0.00    -0.320 OA
ATOM     27  C   LIG    1        3.531   5.735  -1.995  0.00  0.00    +0.070 A 
ATOM     28  C   LIG    1        2.358   5.257  -1.437  0.00  0.00    +0.040 A 
ENDBRANCH  17  18
ENDBRANCH   1  17
TORSDOF 4
