REMARK  Name = ZINCqH0000002JW1.0
REMARK                            x       y       z     vdW  Elec       q    Type
REMARK                         _______ _______ _______ _____ _____    ______ ____
ROOT
ATOM      1  C   LIG    1        5.651   3.438  -2.971  0.00  0.00    +0.010 C 
ATOM      2  C   LIG    1        4.705   4.549  -3.435  0.00  0.00    +0.030 C 
ATOM      3  C   LIG    1        3.257   4.088  -3.248  0.00  0.00    +0.030 C 
ATOM      4  C   LIG    1        3.027   3.729  -1.778  0.00  0.00    +0.170 C 
ATOM      5  N   LIG    1        3.955   2.662  -1.382  0.00  0.00    -0.530 NA
ATOM      6  C   LIG    1        5.352   3.098  -1.509  0.00  0.00    +0.200 C 
ENDROOT
BRANCH   1   9
ATOM      7  N   LIG    1        7.564   4.267  -4.301  0.00  0.00    -0.720 N 
ATOM      8  H   LIG    1        6.997   4.224  -5.087  0.00  0.00    +0.400 HD
ATOM      9  C   LIG    1        7.077   3.907  -3.097  0.00  0.00    +0.520 C 
ATOM     10  O   LIG    1        7.787   3.960  -2.115  0.00  0.00    -0.540 OA
BRANCH   7  11
ATOM     11  C   LIG    1        8.951   4.722  -4.424  0.00  0.00    +0.230 C 
ATOM     12  C   LIG    1        9.027   6.218  -4.110  0.00  0.00    +0.030 C 
BRANCH  11  13
ATOM     13  C   LIG    1        9.445   4.475  -5.851  0.00  0.00    +0.020 C 
BRANCH  13  15
ATOM     14  C   LIG    1        9.982   2.723  -7.549  0.00  0.00    +0.000 C 
ATOM     15  C   LIG    1        9.488   2.970  -6.122  0.00  0.00    +0.000 C 
ENDBRANCH  13  15
ENDBRANCH  11  13
ENDBRANCH   7  11
ENDBRANCH   1   9
BRANCH   5  16
ATOM     16  C   LIG    1        3.671   2.195  -0.019  0.00  0.00    +0.230 C 
BRANCH  16  17
ATOM     17  C   LIG    1        2.442   1.323  -0.032  0.00  0.00    -0.050 A 
ATOM     18  C   LIG    1        1.245   1.811   0.458  0.00  0.00    +0.040 A 
ATOM     19  C   LIG    1        0.113   1.011   0.447  0.00  0.00    +0.070 A 
ATOM     20  C   LIG    1        0.184  -0.282  -0.058  0.00  0.00    +0.060 A 
ATOM     21  O   LIG    1       -0.917  -1.082  -0.083  0.00  0.00    -0.300 OA
ATOM     22  C   LIG    1       -2.013  -0.695   0.754  0.00  0.00    +0.230 C 
ATOM     23  C   LIG    1       -2.254   0.809   0.566  0.00  0.00    +0.230 C 
ATOM     24  C   LIG    1        1.388  -0.766  -0.547  0.00  0.00    +0.050 A 
ATOM     25  O   LIG    1       -1.058   1.504   0.936  0.00  0.00    -0.300 OA
ATOM     26  C   LIG    1        2.514   0.036  -0.533  0.00  0.00    -0.060 A 
ATOM     27 BR   LIG    1        4.154  -0.627  -1.199  0.00  0.00    -0.030 Br
ENDBRANCH  16  17
ENDBRANCH   5  16
TORSDOF 6
