REMARK  Name = ZINCrH00000auq3E.0
REMARK                            x       y       z     vdW  Elec       q    Type
REMARK                         _______ _______ _______ _____ _____    ______ ____
ROOT
ATOM      1  C   LIG    1       -8.542   3.083   0.822  0.00  0.00    +0.040 C 
ATOM      2  C   LIG    1       -7.854   2.754  -0.504  0.00  0.00    +0.230 C 
ENDROOT
BRANCH   2   3
ATOM      3  N   LIG    1       -6.408   2.652  -0.293  0.00  0.00    -0.730 N 
ATOM      4  H   LIG    1       -6.001   1.786  -0.133  0.00  0.00    +0.400 HD
ATOM      5  C   LIG    1       -5.643   3.761  -0.320  0.00  0.00    +0.590 C 
ATOM      6  O   LIG    1       -6.154   4.848  -0.520  0.00  0.00    -0.510 OA
BRANCH   5   7
ATOM      7  C   LIG    1       -4.198   3.660  -0.108  0.00  0.00    -0.000 A 
ATOM      8  C   LIG    1       -3.310   4.709  -0.100  0.00  0.00    +0.100 A 
ATOM      9  C   LIG    1       -2.028   4.179   0.133  0.00  0.00    -0.220 A 
ATOM     10  C   LIG    1       -2.151   2.809   0.275  0.00  0.00    +0.080 A 
ATOM     11  C   LIG    1       -0.929   2.174   0.519  0.00  0.00    +0.020 A 
ATOM     12  C   LIG    1        0.134   2.969   0.564  0.00  0.00    +0.000 A 
ATOM     13  S   LIG    1       -0.338   4.640   0.301  0.00  0.00    +0.140 S 
ATOM     14  N   LIG    1       -3.497   2.495   0.128  0.00  0.00    -0.540 N 
ATOM     15  H   LIG    1       -3.880   1.606   0.181  0.00  0.00    +0.420 HD
ENDBRANCH   5   7
ENDBRANCH   2   3
BRANCH   2  16
ATOM     16  C   LIG    1       -8.387   1.423  -1.039  0.00  0.00    +0.280 C 
BRANCH  16  17
ATOM     17  N   LIG    1       -7.644   1.049  -2.245  0.00  0.00    -0.730 N 
ATOM     18  H   LIG    1       -6.938   1.625  -2.578  0.00  0.00    +0.400 HD
ATOM     19  C   LIG    1       -7.943  -0.094  -2.893  0.00  0.00    +0.560 C 
ATOM     20  O   LIG    1       -8.828  -0.816  -2.476  0.00  0.00    -0.520 OA
BRANCH  19  21
ATOM     21  C   LIG    1       -7.195  -0.471  -4.110  0.00  0.00    -0.150 A 
ATOM     22  C   LIG    1       -6.268   0.414  -4.664  0.00  0.00    +0.080 A 
ATOM     23  C   LIG    1       -5.572   0.057  -5.800  0.00  0.00    -0.030 A 
ATOM     24  C   LIG    1       -5.790  -1.178  -6.390  0.00  0.00    +0.140 A 
ATOM     25  C   LIG    1       -6.710  -2.061  -5.843  0.00  0.00    -0.020 A 
ATOM     26  F   LIG    1       -5.106  -1.523  -7.502  0.00  0.00    -0.130 F 
ATOM     27  C   LIG    1       -7.408  -1.716  -4.706  0.00  0.00    +0.040 A 
BRANCH  27  28
ATOM     28  C   LIG    1       -8.402  -2.679  -4.110  0.00  0.00    +0.020 C 
ATOM     29  C   LIG    1       -8.557  -4.043  -4.785  0.00  0.00    +0.020 C 
ATOM     30  C   LIG    1       -9.660  -2.990  -4.924  0.00  0.00    +0.040 C 
ENDBRANCH  27  28
ENDBRANCH  19  21
ENDBRANCH  16  17
ENDBRANCH   2  16
TORSDOF 6
