REMARK  Name = ZINCrH00000No58A.0
REMARK                            x       y       z     vdW  Elec       q    Type
REMARK                         _______ _______ _______ _____ _____    ______ ____
ROOT
ATOM      1  C   LIG    1       -0.370   1.365  -2.450  0.00  0.00    +0.670 C 
ATOM      2  N   LIG    1       -0.734   1.577  -1.169  0.00  0.00    -0.600 N 
ATOM      3  C   LIG    1       -1.912   2.337  -0.737  0.00  0.00    +0.260 C 
ATOM      4  C   LIG    1       -1.694   2.699   0.740  0.00  0.00    +0.020 C 
ATOM      5  C   LIG    1       -0.850   3.991   0.836  0.00  0.00    +0.030 C 
ATOM      6  C   LIG    1       -0.077   3.794   2.163  0.00  0.00    +0.020 C 
ATOM      7  C   LIG    1        0.273   2.293   2.180  0.00  0.00    +0.030 C 
ATOM      8  C   LIG    1       -0.746   1.588   1.264  0.00  0.00    -0.080 C 
ATOM      9  C   LIG    1       -0.013   1.086   0.008  0.00  0.00    +0.290 C 
ATOM     10  O   LIG    1        0.628   0.719  -2.699  0.00  0.00    -0.560 OA
ENDROOT
BRANCH   1  11
ATOM     11  O   LIG    1       -1.114   1.868  -3.453  0.00  0.00    -0.360 OA
BRANCH  11  13
ATOM     12  C   LIG    1       -0.625   0.088  -5.041  0.00  0.00    +0.040 C 
ATOM     13  C   LIG    1       -0.663   1.600  -4.807  0.00  0.00    +0.140 C 
ATOM     14  C   LIG    1        0.738   2.182  -5.002  0.00  0.00    +0.040 C 
ATOM     15  C   LIG    1       -1.628   2.246  -5.803  0.00  0.00    +0.080 C 
ENDBRANCH  11  13
ENDBRANCH   1  11
BRANCH   8  16
ATOM     16  C   LIG    1       -1.507   0.466   1.972  0.00  0.00    +0.290 C 
BRANCH  16  17
ATOM     17  N   LIG    1       -0.563  -0.568   2.402  0.00  0.00    -0.730 N 
ATOM     18  H   LIG    1        0.384  -0.468   2.219  0.00  0.00    +0.410 HD
BRANCH  17  19
ATOM     19  C   LIG    1       -1.028  -1.701   3.076  0.00  0.00    +0.200 A 
ATOM     20  C   LIG    1       -0.140  -2.693   3.485  0.00  0.00    -0.030 A 
ATOM     21  C   LIG    1       -0.648  -3.795   4.154  0.00  0.00    +0.080 A 
ATOM     22  C   LIG    1       -2.009  -3.878   4.383  0.00  0.00    -0.560 A 
ATOM     23  N   LIG    1       -2.824  -2.923   3.979  0.00  0.00    -0.390 NA
ATOM     24  C   LIG    1       -2.382  -1.856   3.344  0.00  0.00    +0.170 A 
BRANCH  22  25
ATOM     25  P   LIG    1       -2.683  -5.320   5.252  0.00  0.00    +2.580 P 
ATOM     26  O   LIG    1       -2.080  -5.410   6.601  0.00  0.00    -1.000 OA
ATOM     27  C   LIG    1       -2.295  -6.833   4.312  0.00  0.00    -0.500 C 
ATOM     28  C   LIG    1       -4.491  -5.147   5.405  0.00  0.00    -0.500 C 
ENDBRANCH  22  25
ENDBRANCH  17  19
ENDBRANCH  16  17
ENDBRANCH   8  16
TORSDOF 6
