REMARK  Name = ZINCrD00000hQ5eA.0
REMARK                            x       y       z     vdW  Elec       q    Type
REMARK                         _______ _______ _______ _____ _____    ______ ____
ROOT
ATOM      1  C   LIG    1        3.558   6.040  -0.027  0.00  0.00    +0.280 C 
ENDROOT
BRANCH   1   2
ATOM      2  C   LIG    1        2.215   5.358  -0.086  0.00  0.00    -0.100 A 
ATOM      3  C   LIG    1        2.156   4.005  -0.212  0.00  0.00    +0.050 A 
ATOM      4  C   LIG    1        0.906   3.365  -0.267  0.00  0.00    -0.050 A 
ATOM      5  C   LIG    1        0.805   1.970  -0.397  0.00  0.00    +0.030 A 
ATOM      6  C   LIG    1       -0.424   1.385  -0.447  0.00  0.00    +0.000 A 
ATOM      7  C   LIG    1       -1.586   2.151  -0.377  0.00  0.00    +0.010 A 
ATOM      8  C   LIG    1       -1.527   3.504  -0.245  0.00  0.00    +0.020 A 
ATOM      9  C   LIG    1       -0.277   4.143  -0.190  0.00  0.00    -0.050 A 
ATOM     10  C   LIG    1       -0.175   5.539  -0.060  0.00  0.00    +0.020 A 
ATOM     11  C   LIG    1        1.053   6.123  -0.010  0.00  0.00    +0.020 A 
ENDBRANCH   1   2
BRANCH   1  12
ATOM     12  N   LIG    1        3.515   7.117   0.965  0.00  0.00    -0.730 N 
ATOM     13  H   LIG    1        3.378   8.034   0.680  0.00  0.00    +0.400 HD
ATOM     14  C   LIG    1        3.667   6.834   2.274  0.00  0.00    +0.520 C 
ATOM     15  O   LIG    1        3.926   5.702   2.624  0.00  0.00    -0.510 OA
BRANCH  14  16
ATOM     16  C   LIG    1        3.513   7.924   3.304  0.00  0.00    +0.070 C 
BRANCH  16  17
ATOM     17  C   LIG    1        3.734   7.341   4.701  0.00  0.00    +0.180 C 
ATOM     18  C   LIG    1        3.456   8.417   5.753  0.00  0.00    -0.010 C 
ATOM     19  C   LIG    1        3.737   7.844   7.146  0.00  0.00    +0.010 C 
ATOM     20  C   LIG    1        5.183   7.340   7.196  0.00  0.00    -0.020 C 
ATOM     21  C   LIG    1        5.393   6.305   6.088  0.00  0.00    +0.200 C 
ATOM     22  O   LIG    1        5.086   6.894   4.823  0.00  0.00    -0.370 OA
ENDBRANCH  16  17
ENDBRANCH  14  16
ENDBRANCH   1  12
BRANCH   1  23
ATOM     23  C   LIG    1        3.893   6.625  -1.400  0.00  0.00    +0.290 C 
BRANCH  23  26
ATOM     24  O   LIG    1        5.149   7.746  -3.506  0.00  0.00    -0.510 OA
ATOM     25  C   LIG    1        5.699   7.894  -2.434  0.00  0.00    +0.500 C 
ATOM     26  N   LIG    1        5.151   7.371  -1.319  0.00  0.00    -0.730 N 
ATOM     27  H   LIG    1        5.591   7.490  -0.462  0.00  0.00    +0.400 HD
BRANCH  25  28
ATOM     28  C   LIG    1        6.993   8.661  -2.351  0.00  0.00    +0.170 C 
ATOM     29 CL   LIG    1        7.463   9.228  -3.997  0.00  0.00    -0.130 Cl
ENDBRANCH  25  28
ENDBRANCH  23  26
ENDBRANCH   1  23
TORSDOF 7
