REMARK  Name = ZINCkj000005iIP9.0
REMARK                            x       y       z     vdW  Elec       q    Type
REMARK                         _______ _______ _______ _____ _____    ______ ____
ROOT
ATOM      1  C   LIG    1        2.854   5.008  -1.130  0.00  0.00    +0.310 C 
ENDROOT
BRANCH   1   2
ATOM      2  N   LIG    1        2.763   3.570  -0.866  0.00  0.00    -0.700 N 
ATOM      3  H   LIG    1        3.564   3.062  -0.663  0.00  0.00    +0.410 HD
ATOM      4  C   LIG    1        1.565   2.953  -0.904  0.00  0.00    +0.510 C 
ATOM      5  O   LIG    1        0.563   3.587  -1.157  0.00  0.00    -0.530 OA
BRANCH   4   6
ATOM      6  C   LIG    1        1.471   1.473  -0.632  0.00  0.00    +0.180 C 
ATOM      7  C   LIG    1        2.186   0.666  -1.745  0.00  0.00    +0.100 C 
ATOM      8  C   LIG    1        1.488  -0.711  -1.675  0.00  0.00    +0.080 C 
ATOM      9  C   LIG    1        0.133  -0.442  -0.995  0.00  0.00    +0.270 C 
ATOM     10  N   LIG    1        0.063   1.011  -0.727  0.00  0.00    -0.500 N 
ATOM     11  H   LIG    1       -0.419   1.182   0.142  0.00  0.00    +0.440 HD
ATOM     12  H   LIG    1       -0.407   1.482  -1.486  0.00  0.00    +0.440 HD
ENDBRANCH   4   6
ENDBRANCH   1   2
BRANCH   1  13
ATOM     13  C   LIG    1        4.314   5.455  -1.025  0.00  0.00    +0.150 C 
ATOM     14  C   LIG    1        4.394   6.975  -1.177  0.00  0.00    +0.060 C 
BRANCH  13  15
ATOM     15  O   LIG    1        5.078   4.831  -2.058  0.00  0.00    -0.310 OA
BRANCH  15  19
ATOM     16  C   LIG    1        9.120   4.353  -1.371  0.00  0.00    +0.100 A 
ATOM     17  C   LIG    1        8.543   3.816  -2.512  0.00  0.00    +0.030 A 
ATOM     18  C   LIG    1        7.190   3.976  -2.742  0.00  0.00    +0.030 A 
ATOM     19  C   LIG    1        6.410   4.673  -1.832  0.00  0.00    +0.080 A 
ATOM     20  C   LIG    1        6.988   5.214  -0.693  0.00  0.00    -0.040 A 
ATOM     21  C   LIG    1        8.340   5.050  -0.461  0.00  0.00    -0.040 A 
BRANCH  16  23
ATOM     22  C   LIG    1       10.979   4.773   0.052  0.00  0.00    +0.250 C 
ATOM     23  O   LIG    1       10.452   4.194  -1.144  0.00  0.00    -0.320 OA
ENDBRANCH  16  23
ENDBRANCH  15  19
ENDBRANCH  13  15
ENDBRANCH   1  13
TORSDOF 6
