REMARK  Name = ZINCrD00000755hW.0
REMARK                            x       y       z     vdW  Elec       q    Type
REMARK                         _______ _______ _______ _____ _____    ______ ____
ROOT
ATOM      1  C   LIG    1        3.550   0.735  -0.028  0.00  0.00    +0.560 C 
ATOM      2  O   LIG    1        4.147   0.743  -1.086  0.00  0.00    -0.490 OA
ENDROOT
BRANCH   1   9
ATOM      3  C   LIG    1        1.702  -1.845  -0.024  0.00  0.00    +0.180 C 
ATOM      4  C   LIG    1        1.242  -0.411  -0.012  0.00  0.00    +0.130 A 
ATOM      5  N   LIG    1        0.002  -0.004   0.002  0.00  0.00    -0.280 NA
ATOM      6  N   LIG    1       -0.017   1.395   0.010  0.00  0.00    -0.310 N 
ATOM      7  C   LIG    1        1.253   1.839   0.000  0.00  0.00    +0.150 A 
ATOM      8  C   LIG    1        1.695   3.279   0.004  0.00  0.00    +0.170 C 
ATOM      9  C   LIG    1        2.077   0.730  -0.014  0.00  0.00    -0.270 A 
BRANCH   6  10
ATOM     10  C   LIG    1       -1.165   2.199   0.020  0.00  0.00    +0.140 A 
ATOM     11  C   LIG    1       -1.169   3.398   0.720  0.00  0.00    +0.000 A 
ATOM     12  C   LIG    1       -2.301   4.190   0.724  0.00  0.00    +0.040 A 
ATOM     13  C   LIG    1       -3.432   3.784   0.040  0.00  0.00    +0.020 A 
ATOM     14  C   LIG    1       -3.433   2.588  -0.654  0.00  0.00    +0.040 A 
ATOM     15  C   LIG    1       -2.303   1.794  -0.666  0.00  0.00    +0.040 A 
ENDBRANCH   6  10
ENDBRANCH   1   9
BRANCH   1  16
ATOM     16  O   LIG    1        4.234   0.732   1.133  0.00  0.00    -0.320 OA
BRANCH  16  17
ATOM     17  C   LIG    1        5.684   0.738   1.043  0.00  0.00    +0.250 C 
BRANCH  17  18
ATOM     18  C   LIG    1        6.273   0.733   2.430  0.00  0.00    +0.520 C 
ATOM     19  N   LIG    1        7.611   0.737   2.594  0.00  0.00    -0.610 N 
ATOM     20  C   LIG    1        8.492   0.746   1.423  0.00  0.00    +0.280 C 
ATOM     21  O   LIG    1        5.543   0.725   3.399  0.00  0.00    -0.510 OA
BRANCH  19  22
ATOM     22  C   LIG    1        8.184   0.732   3.942  0.00  0.00    +0.370 C 
BRANCH  22  23
ATOM     23  C   LIG    1        8.385  -0.690   4.397  0.00  0.00    -0.140 A 
ATOM     24  C   LIG    1        7.448  -1.371   5.059  0.00  0.00    -0.010 A 
ATOM     25  S   LIG    1        8.038  -2.989   5.418  0.00  0.00    +0.100 S 
ATOM     26  C   LIG    1        9.573  -2.636   4.635  0.00  0.00    -0.060 A 
ATOM     27  C   LIG    1        9.559  -1.387   4.166  0.00  0.00    +0.010 A 
ENDBRANCH  22  23
ENDBRANCH  19  22
ENDBRANCH  17  18
ENDBRANCH  16  17
ENDBRANCH   1  16
TORSDOF 7
