REMARK  Name = ZINCrH000004uNTd.0
REMARK                            x       y       z     vdW  Elec       q    Type
REMARK                         _______ _______ _______ _____ _____    ______ ____
ROOT
ATOM      1  O   LIG    1        1.097   2.906   0.297  0.00  0.00    -0.530 OA
ATOM      2  C   LIG    1        1.139   1.693   0.211  0.00  0.00    +0.580 C 
ATOM      3  N   LIG    1       -0.000   0.987   0.072  0.00  0.00    -0.710 N 
ATOM      4  H   LIG    1        0.033   0.020   0.004  0.00  0.00    +0.420 HD
ENDROOT
BRANCH   2   5
ATOM      5  C   LIG    1        2.436   0.996   0.261  0.00  0.00    -0.280 A 
ATOM      6  C   LIG    1        3.627   1.696   0.398  0.00  0.00    +0.250 A 
ATOM      7  C   LIG    1        4.836   0.952   0.410  0.00  0.00    -0.170 A 
ATOM      8  C   LIG    1        6.045   1.565   0.767  0.00  0.00    +0.110 A 
ATOM      9  C   LIG    1        7.189   0.822   0.832  0.00  0.00    +0.000 A 
ATOM     10  C   LIG    1        7.167  -0.534   0.538  0.00  0.00    +0.090 A 
ATOM     11  C   LIG    1        5.993  -1.152   0.161  0.00  0.00    +0.010 A 
ATOM     12  C   LIG    1        4.819  -0.416   0.079  0.00  0.00    +0.150 A 
ATOM     13  O   LIG    1        3.667  -1.008  -0.318  0.00  0.00    -0.270 OA
ATOM     14  C   LIG    1        2.522  -0.472   0.160  0.00  0.00    +0.520 A 
ATOM     15  O   LIG    1        1.591  -1.179   0.497  0.00  0.00    -0.440 OA
ENDBRANCH   2   5
BRANCH   3  16
ATOM     16  C   LIG    1       -1.290   1.681   0.017  0.00  0.00    +0.350 C 
BRANCH  16  17
ATOM     17  C   LIG    1       -2.377   0.758   0.503  0.00  0.00    +0.120 A 
ATOM     18  C   LIG    1       -3.095   1.087   1.638  0.00  0.00    -0.010 A 
ATOM     19  C   LIG    1       -4.094   0.231   2.077  0.00  0.00    +0.070 A 
ATOM     20  C   LIG    1       -4.335  -0.928   1.355  0.00  0.00    -0.030 A 
ATOM     21  C   LIG    1       -3.576  -1.190   0.229  0.00  0.00    +0.260 A 
ATOM     22  N   LIG    1       -2.638  -0.350  -0.162  0.00  0.00    -0.470 NA
ENDBRANCH  16  17
BRANCH  16  23
ATOM     23  C   LIG    1       -1.578   2.093  -1.403  0.00  0.00    -0.100 A 
ATOM     24  C   LIG    1       -1.267   1.242  -2.447  0.00  0.00    +0.040 A 
ATOM     25  C   LIG    1       -1.536   1.618  -3.749  0.00  0.00    -0.010 A 
ATOM     26  C   LIG    1       -2.107   2.850  -4.009  0.00  0.00    +0.000 A 
ATOM     27  C   LIG    1       -2.413   3.704  -2.966  0.00  0.00    +0.000 A 
ATOM     28  C   LIG    1       -2.148   3.325  -1.663  0.00  0.00    +0.020 A 
ENDBRANCH  16  23
ENDBRANCH   3  16
TORSDOF 4
