REMARK  Name = ZINCqH0000006HNL.0
REMARK                            x       y       z     vdW  Elec       q    Type
REMARK                         _______ _______ _______ _____ _____    ______ ____
ROOT
ATOM      1  C   LIG    1       -5.162   0.411  -0.015  0.00  0.00    +0.560 C 
ATOM      2  N   LIG    1       -4.636   1.158   0.976  0.00  0.00    -0.630 N 
ATOM      3  H   LIG    1       -5.192   1.437   1.720  0.00  0.00    +0.420 HD
ATOM      4  O   LIG    1       -4.464   0.061  -0.948  0.00  0.00    -0.420 OA
ENDROOT
BRANCH   2   5
ATOM      5  C   LIG    1       -3.303   1.527   0.932  0.00  0.00    +0.330 A 
ATOM      6  N   LIG    1       -2.482   1.208  -0.008  0.00  0.00    -0.460 NA
ATOM      7  C   LIG    1       -1.212   1.647   0.087  0.00  0.00    +0.100 A 
ATOM      8  C   LIG    1       -0.134   1.431  -0.797  0.00  0.00    +0.080 A 
ATOM      9  C   LIG    1        1.104   1.959  -0.526  0.00  0.00    +0.040 A 
ATOM     10  C   LIG    1        1.317   2.707   0.622  0.00  0.00    -0.070 A 
ATOM     11  C   LIG    1        0.280   2.927   1.503  0.00  0.00    +0.060 A 
ATOM     12  C   LIG    1        2.681   3.280   0.906  0.00  0.00    +0.110 C 
ATOM     13  C   LIG    1       -0.982   2.399   1.244  0.00  0.00    -0.170 A 
ATOM     14  S   LIG    1       -2.489   2.496   2.152  0.00  0.00    +0.060 S 
ENDBRANCH   2   5
BRANCH   1  17
ATOM     15  C   LIG    1       -8.905   0.621   0.196  0.00  0.00    +0.150 A 
ATOM     16  C   LIG    1       -7.576   0.994   0.157  0.00  0.00    +0.020 A 
ATOM     17  C   LIG    1       -6.583   0.018   0.031  0.00  0.00    -0.060 A 
ATOM     18  C   LIG    1       -6.939  -1.331  -0.044  0.00  0.00    +0.000 A 
ATOM     19  C   LIG    1       -8.267  -1.697  -0.000  0.00  0.00    +0.050 A 
ATOM     20  C   LIG    1       -9.254  -0.727   0.119  0.00  0.00    +0.130 A 
BRANCH  18  21
ATOM     21  N   LIG    1       -5.890  -2.367  -0.173  0.00  0.00    +0.020 N 
ATOM     22  O   LIG    1       -4.715  -2.058  -0.092  0.00  0.00    -0.120 OA
ATOM     23  O   LIG    1       -6.202  -3.530  -0.359  0.00  0.00    -0.160 OA
ENDBRANCH  18  21
BRANCH  15  25
ATOM     24  C   LIG    1       -9.445   2.929   0.386  0.00  0.00    +0.240 C 
ATOM     25  O   LIG    1       -9.874   1.568   0.313  0.00  0.00    -0.290 OA
ENDBRANCH  15  25
BRANCH  20  26
ATOM     26  O   LIG    1      -10.561  -1.093   0.162  0.00  0.00    -0.290 OA
ATOM     27  C   LIG    1      -10.847  -2.490   0.079  0.00  0.00    +0.250 C 
ENDBRANCH  20  26
ENDBRANCH   1  17
TORSDOF 5
