REMARK  Name = ZINCrD00000F5LEc.0
REMARK                            x       y       z     vdW  Elec       q    Type
REMARK                         _______ _______ _______ _____ _____    ______ ____
ROOT
ATOM      1  C   LIG    1       -1.203   2.245  -0.318  0.00  0.00    +0.190 C 
ATOM      2  C   LIG    1       -0.001   1.354  -0.136  0.00  0.00    +0.130 A 
ATOM      3  C   LIG    1        1.280   1.755   0.118  0.00  0.00    -0.100 A 
ATOM      4  N   LIG    1        2.058   0.663   0.207  0.00  0.00    -0.200 NA
ATOM      5  N   LIG    1        1.344  -0.392   0.026  0.00  0.00    -0.020 NA
ATOM      6  N   LIG    1        0.018   0.005  -0.197  0.00  0.00    -0.310 N 
ENDROOT
BRANCH   3   7
ATOM      7  C   LIG    1        1.733   3.151   0.267  0.00  0.00    +0.620 C 
ATOM      8  N   LIG    1        3.030   3.416   0.517  0.00  0.00    -0.610 N 
ATOM      9  C   LIG    1        4.112   2.406   0.673  0.00  0.00    +0.280 C 
ATOM     10  C   LIG    1        5.375   3.188   0.283  0.00  0.00    -0.020 C 
ATOM     11  C   LIG    1        6.694   2.667   0.804  0.00  0.00    +0.030 C 
ATOM     12  C   LIG    1        7.789   3.673   0.414  0.00  0.00    +0.000 C 
ATOM     13  C   LIG    1        7.488   5.069   0.952  0.00  0.00    +0.000 C 
ATOM     14  C   LIG    1        6.091   5.551   0.526  0.00  0.00    +0.040 C 
ATOM     15  C   LIG    1        5.094   4.527   1.029  0.00  0.00    -0.030 C 
ATOM     16  C   LIG    1        3.626   4.764   0.690  0.00  0.00    +0.260 C 
ATOM     17  O   LIG    1        0.935   4.063   0.165  0.00  0.00    -0.540 OA
ENDBRANCH   3   7
BRANCH   6  18
ATOM     18  C   LIG    1       -1.076  -0.835  -0.438  0.00  0.00    +0.140 A 
ATOM     19  C   LIG    1       -2.255  -0.653   0.249  0.00  0.00    +0.060 A 
ATOM     20  C   LIG    1       -3.351  -1.481   0.018  0.00  0.00    +0.030 A 
ATOM     21  C   LIG    1       -3.286  -2.492  -0.891  0.00  0.00    +0.070 A 
ATOM     22  C   LIG    1       -2.101  -2.710  -1.612  0.00  0.00    -0.100 A 
ATOM     23  C   LIG    1       -2.001  -3.746  -2.560  0.00  0.00    +0.100 A 
ATOM     24  C   LIG    1       -0.818  -3.900  -3.225  0.00  0.00    -0.030 A 
ATOM     25  C   LIG    1        0.247  -3.044  -2.955  0.00  0.00    +0.300 A 
ATOM     26  N   LIG    1        0.150  -2.080  -2.072  0.00  0.00    -0.460 NA
ATOM     27  C   LIG    1       -0.980  -1.872  -1.392  0.00  0.00    +0.140 A 
ENDBRANCH   6  18
TORSDOF 2
