REMARK  Name = ZINCb800000011iR.0
REMARK                            x       y       z     vdW  Elec       q    Type
REMARK                         _______ _______ _______ _____ _____    ______ ____
ROOT
ATOM      1  N   LIG    1       -4.450  -0.201   2.919  0.00  0.00    -0.870 N 
ATOM      2  H   LIG    1       -5.269  -0.690   3.098  0.00  0.00    +0.420 HD
ATOM      3  H   LIG    1       -3.905   0.117   3.656  0.00  0.00    +0.400 HD
ATOM      4  C   LIG    1       -4.070   0.036   1.648  0.00  0.00    +0.710 C 
ATOM      5  N   LIG    1       -2.932   0.715   1.401  0.00  0.00    -0.740 N 
ATOM      6  H   LIG    1       -2.387   1.033   2.137  0.00  0.00    +0.400 HD
ATOM      7  O   LIG    1       -4.753  -0.363   0.725  0.00  0.00    -0.590 OA
ENDROOT
BRANCH   5   8
ATOM      8  C   LIG    1       -2.519   0.972   0.019  0.00  0.00    +0.340 C 
BRANCH   8   9
ATOM      9  C   LIG    1       -1.223   1.743   0.017  0.00  0.00    -0.160 A 
ATOM     10  C   LIG    1       -1.231   3.129   0.031  0.00  0.00    +0.080 A 
ATOM     11  C   LIG    1       -0.015   3.796   0.023  0.00  0.00    -0.030 A 
ATOM     12  C   LIG    1        1.155   3.062   0.007  0.00  0.00    +0.270 A 
ATOM     13  N   LIG    1        1.125   1.743   0.001  0.00  0.00    -0.490 NA
ATOM     14  C   LIG    1       -0.013   1.076   0.008  0.00  0.00    +0.280 A 
ENDBRANCH   8   9
ENDBRANCH   5   8
TORSDOF 2
