REMARK  Name = ZINCrH000004jdsA.0
REMARK                            x       y       z     vdW  Elec       q    Type
REMARK                         _______ _______ _______ _____ _____    ______ ____
ROOT
ATOM      1  N   LIG    1        1.989   3.910  -0.645  0.00  0.00    -0.570 N 
ATOM      2  C   LIG    1        2.544   4.554  -1.841  0.00  0.00    +0.310 C 
ATOM      3  C   LIG    1        3.590   5.565  -1.315  0.00  0.00    +0.000 C 
ATOM      4  C   LIG    1        3.986   4.930   0.039  0.00  0.00    +0.090 C 
ATOM      5  C   LIG    1        2.783   4.098   0.424  0.00  0.00    +0.520 C 
ATOM      6  O   LIG    1        2.566   3.663   1.535  0.00  0.00    -0.510 OA
ENDROOT
BRANCH   1  12
ATOM      7  C   LIG    1        0.794   1.824  -0.878  0.00  0.00    -0.070 A 
ATOM      8  C   LIG    1       -0.391   1.115  -0.854  0.00  0.00    +0.020 A 
ATOM      9  C   LIG    1       -1.581   1.764  -0.580  0.00  0.00    +0.020 A 
ATOM     10  C   LIG    1       -1.588   3.121  -0.319  0.00  0.00    +0.010 A 
ATOM     11  C   LIG    1       -0.406   3.836  -0.341  0.00  0.00    +0.030 A 
ATOM     12  C   LIG    1        0.790   3.189  -0.621  0.00  0.00    +0.140 A 
BRANCH   7  14
ATOM     13  C   LIG    1        2.776   0.724   0.129  0.00  0.00    +0.030 C 
ATOM     14  C   LIG    1        2.090   1.117  -1.181  0.00  0.00    +0.060 C 
ENDBRANCH   7  14
ENDBRANCH   1  12
BRANCH   3  15
ATOM     15  C   LIG    1        2.977   6.927  -1.113  0.00  0.00    +0.530 C 
ATOM     16  N   LIG    1        3.716   7.928  -0.594  0.00  0.00    -0.600 N 
ATOM     17  O   LIG    1        1.820   7.123  -1.419  0.00  0.00    -0.510 OA
BRANCH  16  18
ATOM     18  C   LIG    1        3.093   9.221  -0.300  0.00  0.00    +0.270 C 
ATOM     19  C   LIG    1        3.810  10.322  -1.084  0.00  0.00    +0.040 C 
BRANCH  18  20
ATOM     20  C   LIG    1        3.200   9.509   1.199  0.00  0.00    -0.060 C 
ATOM     21  C   LIG    1        1.905   9.496   2.015  0.00  0.00    +0.030 C 
ATOM     22  C   LIG    1        2.604  10.823   1.710  0.00  0.00    +0.030 C 
ENDBRANCH  18  20
ENDBRANCH  16  18
BRANCH  16  23
ATOM     23  C   LIG    1        5.141   7.723  -0.323  0.00  0.00    +0.320 C 
BRANCH  23  24
ATOM     24  C   LIG    1        5.945   7.989  -1.597  0.00  0.00    +0.430 C 
ATOM     25  F   LIG    1        5.435   7.210  -2.642  0.00  0.00    -0.180 F 
ATOM     26  F   LIG    1        7.287   7.656  -1.380  0.00  0.00    -0.180 F 
ATOM     27  F   LIG    1        5.850   9.343  -1.935  0.00  0.00    -0.170 F 
ENDBRANCH  23  24
ENDBRANCH  16  23
ENDBRANCH   3  15
TORSDOF 7
