REMARK  Name = ZINCrH000004pSnK.0
REMARK                            x       y       z     vdW  Elec       q    Type
REMARK                         _______ _______ _______ _____ _____    ______ ____
ROOT
ATOM      1  C   LIG    1        6.335   6.272   4.325  0.00  0.00    +0.030 C 
ATOM      2  C   LIG    1        5.124   5.372   4.061  0.00  0.00    -0.010 C 
ATOM      3  C   LIG    1        4.846   4.520   5.298  0.00  0.00    +0.020 C 
ATOM      4  C   LIG    1        3.661   3.594   5.063  0.00  0.00    -0.010 C 
ATOM      5  C   LIG    1        2.435   4.311   4.534  0.00  0.00    +0.050 C 
ATOM      6  C   LIG    1        2.696   5.360   3.471  0.00  0.00    +0.140 C 
ATOM      7  N   LIG    1        1.496   6.218   3.351  0.00  0.00    -0.720 N 
ATOM      8  H   LIG    1        1.144   6.800   4.040  0.00  0.00    +0.440 HD
ATOM      9  C   LIG    1        1.008   6.027   2.114  0.00  0.00    +0.700 C 
ATOM     10  N   LIG    1        1.759   5.186   1.395  0.00  0.00    -0.580 N 
ATOM     11  O   LIG    1       -0.003   6.556   1.695  0.00  0.00    -0.520 OA
ATOM     12  C   LIG    1        2.827   4.750   2.097  0.00  0.00    +0.530 C 
ATOM     13  O   LIG    1        3.709   4.030   1.678  0.00  0.00    -0.440 OA
ATOM     14  C   LIG    1        4.059   2.430   4.155  0.00  0.00    +0.020 C 
ATOM     15  C   LIG    1        3.897   6.242   3.784  0.00  0.00    +0.060 C 
ENDROOT
BRANCH  10  16
ATOM     16  C   LIG    1        1.467   4.793   0.014  0.00  0.00    +0.490 C 
BRANCH  16  17
ATOM     17  C   LIG    1        0.605   3.556   0.015  0.00  0.00    +0.160 A 
ATOM     18  N   LIG    1       -0.698   3.542   0.028  0.00  0.00    -0.440 NA
ATOM     19  C   LIG    1       -1.119   2.268   0.019  0.00  0.00    +0.170 A 
ATOM     20  C   LIG    1       -0.018   1.474   0.010  0.00  0.00    +0.010 A 
ATOM     21  O   LIG    1        1.056   2.294   0.004  0.00  0.00    -0.190 OA
BRANCH  20  22
ATOM     22  C   LIG    1        0.002  -0.004   0.002  0.00  0.00    -0.030 A 
ATOM     23  C   LIG    1       -1.196  -0.721   0.015  0.00  0.00    +0.080 A 
ATOM     24  C   LIG    1       -1.171  -2.100   0.003  0.00  0.00    +0.000 A 
ATOM     25  C   LIG    1        0.040  -2.774  -0.012  0.00  0.00    +0.110 A 
ATOM     26  C   LIG    1        1.232  -2.067  -0.020  0.00  0.00    -0.010 A 
ATOM     27  F   LIG    1        0.058  -4.125  -0.018  0.00  0.00    -0.130 F 
ATOM     28  C   LIG    1        1.219  -0.688  -0.013  0.00  0.00    +0.070 A 
ENDBRANCH  20  22
ENDBRANCH  16  17
ENDBRANCH  10  16
TORSDOF 3
