REMARK  Name = ZINCrH000004jyqM.0
REMARK                            x       y       z     vdW  Elec       q    Type
REMARK                         _______ _______ _______ _____ _____    ______ ____
ROOT
ATOM      1  C   LIG    1        7.165  -0.306   0.094  0.00  0.00    +0.290 C 
ATOM      2  N   LIG    1        6.371  -0.981   1.123  0.00  0.00    -0.600 N 
ATOM      3  C   LIG    1        5.167  -0.489   1.476  0.00  0.00    +0.530 C 
ATOM      4  O   LIG    1        4.546  -0.999   2.385  0.00  0.00    -0.520 OA
ENDROOT
BRANCH   2   5
ATOM      5  C   LIG    1        6.884  -2.192   1.768  0.00  0.00    +0.290 C 
ATOM      6  C   LIG    1        8.196  -1.867   2.479  0.00  0.00    +0.010 C 
ATOM      7  C   LIG    1        8.824  -3.180   2.961  0.00  0.00    +0.020 C 
ATOM      8  C   LIG    1        9.307  -3.958   1.738  0.00  0.00    +0.080 C 
ATOM      9  C   LIG    1        8.208  -4.074   0.715  0.00  0.00    -0.070 A 
ATOM     10  C   LIG    1        8.341  -5.042  -0.271  0.00  0.00    +0.000 A 
ATOM     11  C   LIG    1        7.374  -5.190  -1.244  0.00  0.00    +0.010 A 
ATOM     12  C   LIG    1        6.263  -4.368  -1.238  0.00  0.00    +0.000 A 
ATOM     13  C   LIG    1        6.127  -3.407  -0.257  0.00  0.00    +0.020 A 
ATOM     14  C   LIG    1        7.098  -3.258   0.725  0.00  0.00    -0.100 A 
ENDBRANCH   2   5
BRANCH   3  15
ATOM     15  C   LIG    1        4.593   0.696   0.743  0.00  0.00    +0.000 C 
ATOM     16  C   LIG    1        3.693   0.239  -0.429  0.00  0.00    +0.090 C 
ATOM     17  C   LIG    1        2.557   1.239  -0.438  0.00  0.00    +0.530 C 
ATOM     18  N   LIG    1        2.529   1.917   0.722  0.00  0.00    -0.580 N 
ATOM     19  O   LIG    1        1.786   1.406  -1.359  0.00  0.00    -0.510 OA
ATOM     20  C   LIG    1        3.588   1.463   1.631  0.00  0.00    +0.310 C 
BRANCH  18  21
ATOM     21  C   LIG    1        1.604   2.923   1.027  0.00  0.00    +0.110 A 
ATOM     22  C   LIG    1        1.890   4.246   0.722  0.00  0.00    +0.060 A 
ATOM     23  C   LIG    1        0.975   5.237   1.024  0.00  0.00    +0.020 A 
ATOM     24  C   LIG    1       -0.224   4.913   1.631  0.00  0.00    +0.060 A 
ATOM     25  C   LIG    1       -0.516   3.595   1.932  0.00  0.00    -0.010 A 
ATOM     26  C   LIG    1        0.397   2.599   1.637  0.00  0.00    +0.110 A 
ATOM     27  F   LIG    1        0.114   1.312   1.936  0.00  0.00    -0.130 F 
ENDBRANCH  18  21
ENDBRANCH   3  15
TORSDOF 3
