REMARK  Name = ZINCqH0000038PeV.0
REMARK                            x       y       z     vdW  Elec       q    Type
REMARK                         _______ _______ _______ _____ _____    ______ ____
ROOT
ATOM      1  C   LIG    1        1.539   2.107   3.461  0.00  0.00    +0.180 C 
ATOM      2  C   LIG    1        0.125   2.255   2.961  0.00  0.00    +0.020 A 
ATOM      3  C   LIG    1       -0.253   2.144   1.679  0.00  0.00    -0.140 A 
ATOM      4  C   LIG    1       -1.700   2.368   1.662  0.00  0.00    -0.290 A 
ATOM      5  C   LIG    1       -2.697   2.382   0.677  0.00  0.00    +0.500 A 
ATOM      6  N   LIG    1       -3.951   2.621   1.053  0.00  0.00    -0.570 NA
ATOM      7  C   LIG    1       -4.250   2.833   2.321  0.00  0.00    +0.400 A 
ATOM      8  N   LIG    1       -3.346   2.821   3.278  0.00  0.00    -0.540 NA
ATOM      9  C   LIG    1       -2.065   2.592   3.000  0.00  0.00    +0.330 A 
ATOM     10  C   LIG    1        0.633   1.855   0.495  0.00  0.00    +0.140 C 
ATOM     11  O   LIG    1       -0.944   2.518   3.736  0.00  0.00    -0.170 OA
ENDROOT
BRANCH   5  12
ATOM     12  N   LIG    1       -2.385   2.161  -0.652  0.00  0.00    -0.820 N 
ATOM     13  H   LIG    1       -1.467   1.988  -0.912  0.00  0.00    +0.410 HD
ATOM     14  H   LIG    1       -3.084   2.179  -1.324  0.00  0.00    +0.410 HD
ENDBRANCH   5  12
BRANCH   7  15
ATOM     15  C   LIG    1       -5.687   3.098   2.690  0.00  0.00    +0.300 C 
BRANCH  15  16
ATOM     16  N   LIG    1       -5.949   4.543   2.631  0.00  0.00    -0.510 NA
ATOM     17  C   LIG    1       -5.239   5.254   3.715  0.00  0.00    +0.190 C 
ATOM     18  C   LIG    1       -6.174   6.428   4.097  0.00  0.00    +0.020 C 
ATOM     19  C   LIG    1       -7.573   5.774   3.953  0.00  0.00    +0.150 C 
ATOM     20  C   LIG    1       -7.391   4.824   2.751  0.00  0.00    +0.220 C 
BRANCH  19  21
ATOM     21  O   LIG    1       -8.567   6.761   3.671  0.00  0.00    -0.290 OA
BRANCH  21  22
ATOM     22  C   LIG    1       -9.189   7.333   4.735  0.00  0.00    +0.150 A 
ATOM     23  C   LIG    1      -10.241   8.214   4.534  0.00  0.00    -0.010 A 
ATOM     24  C   LIG    1      -10.873   8.794   5.617  0.00  0.00    +0.070 A 
ATOM     25  C   LIG    1      -10.458   8.496   6.902  0.00  0.00    -0.010 A 
ATOM     26  C   LIG    1       -9.408   7.617   7.106  0.00  0.00    +0.000 A 
ATOM     27 CL   LIG    1       -8.890   7.245   8.720  0.00  0.00    -0.060 Cl
ATOM     28  C   LIG    1       -8.777   7.031   6.025  0.00  0.00    -0.060 A 
ENDBRANCH  21  22
ENDBRANCH  19  21
ENDBRANCH  15  16
ENDBRANCH   7  15
TORSDOF 5
