REMARK  Name = ZINCrH000004uTVs.0
REMARK                            x       y       z     vdW  Elec       q    Type
REMARK                         _______ _______ _______ _____ _____    ______ ____
ROOT
ATOM      1  C   LIG    1        1.281  -0.719  -0.014  0.00  0.00    +0.290 C 
ENDROOT
BRANCH   1   2
ATOM      2  C   LIG    1        1.096  -2.091   0.581  0.00  0.00    -0.100 A 
ATOM      3  C   LIG    1       -0.045  -2.819   0.299  0.00  0.00    +0.050 A 
ATOM      4  C   LIG    1       -0.212  -4.080   0.841  0.00  0.00    +0.030 A 
ATOM      5  C   LIG    1        0.757  -4.609   1.673  0.00  0.00    +0.080 A 
ATOM      6  C   LIG    1        1.896  -3.879   1.958  0.00  0.00    -0.180 A 
ATOM      7  C   LIG    1        2.066  -2.620   1.413  0.00  0.00    +0.090 A 
BRANCH   6   8
ATOM      8  C   LIG    1        2.953  -4.455   2.865  0.00  0.00    +0.510 C 
ATOM      9  F   LIG    1        4.206  -3.952   2.500  0.00  0.00    -0.170 F 
ATOM     10  F   LIG    1        2.958  -5.849   2.748  0.00  0.00    -0.170 F 
ATOM     11  F   LIG    1        2.675  -4.099   4.190  0.00  0.00    -0.170 F 
ENDBRANCH   6   8
ENDBRANCH   1   2
BRANCH   1  14
ATOM     12  O   LIG    1        1.029   1.966   0.003  0.00  0.00    -0.510 OA
ATOM     13  C   LIG    1       -0.016   1.344   0.009  0.00  0.00    +0.600 C 
ATOM     14  N   LIG    1        0.002  -0.004   0.002  0.00  0.00    -0.720 N 
ATOM     15  H   LIG    1       -0.831  -0.500   0.007  0.00  0.00    +0.390 HD
BRANCH  13  16
ATOM     16  C   LIG    1       -1.296   2.060   0.019  0.00  0.00    -0.040 A 
ATOM     17  C   LIG    1       -1.464   3.428   0.028  0.00  0.00    +0.070 A 
ATOM     18  C   LIG    1       -2.841   3.673   0.035  0.00  0.00    -0.130 A 
ATOM     19  C   LIG    1       -3.477   2.476   0.032  0.00  0.00    +0.230 A 
ATOM     20 CL   LIG    1       -3.602   5.234   0.048  0.00  0.00    -0.040 Cl
ATOM     21  N   LIG    1       -2.548   1.488   0.016  0.00  0.00    -0.530 N 
ATOM     22  H   LIG    1       -2.735   0.536   0.007  0.00  0.00    +0.420 HD
ENDBRANCH  13  16
ENDBRANCH   1  14
BRANCH   1  23
ATOM     23  C   LIG    1        1.773  -0.851  -1.456  0.00  0.00    +0.300 C 
BRANCH  23  24
ATOM     24  N   LIG    1        1.839   0.477  -2.073  0.00  0.00    -0.610 N 
ATOM     25  C   LIG    1        3.020   1.347  -2.042  0.00  0.00    +0.260 C 
ATOM     26  C   LIG    1        2.503   2.756  -2.409  0.00  0.00    +0.040 C 
ATOM     27  C   LIG    1        1.238   2.423  -3.232  0.00  0.00    +0.050 C 
ATOM     28  C   LIG    1        0.826   1.051  -2.745  0.00  0.00    +0.520 C 
ATOM     29  O   LIG    1       -0.260   0.545  -2.932  0.00  0.00    -0.540 OA
ENDBRANCH  23  24
ENDBRANCH   1  23
TORSDOF 6
