REMARK  Name = ZINCqH00000512lt.0
REMARK                            x       y       z     vdW  Elec       q    Type
REMARK                         _______ _______ _______ _____ _____    ______ ____
ROOT
ATOM      1  N   LIG    1        3.643  -0.620  -0.036  0.00  0.00    -0.490 N 
ATOM      2  C   LIG    1        3.461  -2.061   0.176  0.00  0.00    +0.190 C 
ATOM      3  C   LIG    1        4.828  -2.738   0.298  0.00  0.00    +0.040 C 
ATOM      4  C   LIG    1        5.631  -2.490  -0.982  0.00  0.00    -0.020 C 
ATOM      5  C   LIG    1        5.765  -0.981  -1.206  0.00  0.00    +0.050 C 
ATOM      6  C   LIG    1        4.370  -0.355  -1.285  0.00  0.00    +0.190 C 
ENDROOT
BRANCH   1  12
ATOM      7  C   LIG    1        2.383   1.447   0.026  0.00  0.00    -0.050 A 
ATOM      8  C   LIG    1        1.149   2.102   0.042  0.00  0.00    +0.090 A 
ATOM      9  C   LIG    1       -0.019   1.370   0.011  0.00  0.00    -0.010 A 
ATOM     10  C   LIG    1        0.024  -0.013  -0.035  0.00  0.00    +0.070 A 
ATOM     11  C   LIG    1        1.235  -0.675  -0.051  0.00  0.00    -0.030 A 
ATOM     12  C   LIG    1        2.422   0.045  -0.021  0.00  0.00    +0.160 A 
BRANCH   7  14
ATOM     13  N   LIG    1        4.565   2.800   0.084  0.00  0.00    -0.410 NA
ATOM     14  C   LIG    1        3.599   2.202   0.058  0.00  0.00    +0.260 C 
ENDBRANCH   7  14
ENDBRANCH   1  12
BRANCH   4  15
ATOM     15  C   LIG    1        7.021  -3.111  -0.842  0.00  0.00    +0.270 C 
BRANCH  15  16
ATOM     16  N   LIG    1        6.898  -4.568  -0.747  0.00  0.00    -0.730 N 
ATOM     17  H   LIG    1        6.022  -4.983  -0.777  0.00  0.00    +0.400 HD
ATOM     18  C   LIG    1        8.001  -5.331  -0.617  0.00  0.00    +0.510 C 
ATOM     19  O   LIG    1        9.097  -4.812  -0.579  0.00  0.00    -0.530 OA
BRANCH  18  20
ATOM     20  C   LIG    1        7.874  -6.829  -0.519  0.00  0.00    +0.120 C 
BRANCH  20  21
ATOM     21  C   LIG    1        9.244  -7.442  -0.381  0.00  0.00    -0.070 A 
ATOM     22  C   LIG    1        9.951  -7.813  -1.509  0.00  0.00    +0.040 A 
ATOM     23  C   LIG    1       11.210  -8.370  -1.384  0.00  0.00    +0.020 A 
ATOM     24  C   LIG    1       11.757  -8.567  -0.128  0.00  0.00    -0.030 A 
ATOM     25  C   LIG    1       11.046  -8.201   1.000  0.00  0.00    +0.020 A 
ATOM     26 CL   LIG    1       13.335  -9.274   0.030  0.00  0.00    -0.070 Cl
ATOM     27  C   LIG    1        9.790  -7.638   0.874  0.00  0.00    +0.040 A 
ENDBRANCH  20  21
ENDBRANCH  18  20
ENDBRANCH  15  16
ENDBRANCH   4  15
TORSDOF 6
