REMARK  Name = ZINCpk00000k0rwg.1
REMARK                            x       y       z     vdW  Elec       q    Type
REMARK                         _______ _______ _______ _____ _____    ______ ____
ROOT
ATOM      1  N   LIG    1       -0.696   1.557   1.215  0.00  0.00    -0.720 N 
ATOM      2  H   LIG    1       -0.399   2.369   1.655  0.00  0.00    +0.400 HD
ATOM      3  C   LIG    1       -1.737   0.862   1.715  0.00  0.00    +0.590 C 
ATOM      4  O   LIG    1       -2.110  -0.157   1.163  0.00  0.00    -0.490 OA
ENDROOT
BRANCH   1   8
ATOM      5  C   LIG    1       -1.357   3.332  -2.780  0.00  0.00    +0.310 C 
ATOM      6  N   LIG    1       -0.538   2.825  -1.676  0.00  0.00    -0.550 N 
ATOM      7  C   LIG    1       -0.749   1.583  -1.208  0.00  0.00    +0.500 C 
ATOM      8  C   LIG    1       -0.013   1.086   0.008  0.00  0.00    +0.270 C 
ATOM      9  C   LIG    1        1.422   1.614  -0.003  0.00  0.00    +0.110 C 
ATOM     10  C   LIG    1        1.416   3.095  -0.283  0.00  0.00    -0.140 A 
ATOM     11  C   LIG    1        2.370   3.909   0.294  0.00  0.00    +0.050 A 
ATOM     12  C   LIG    1        2.373   5.267   0.029  0.00  0.00    -0.010 A 
ATOM     13  C   LIG    1        1.423   5.811  -0.815  0.00  0.00    +0.050 A 
ATOM     14  C   LIG    1        0.464   5.002  -1.391  0.00  0.00    -0.030 A 
ATOM     15  O   LIG    1       -1.539   0.855  -1.771  0.00  0.00    -0.490 OA
ATOM     16  C   LIG    1        0.453   3.639  -1.121  0.00  0.00    +0.170 A 
ENDBRANCH   1   8
BRANCH   3  17
ATOM     17  C   LIG    1       -2.420   1.333   2.922  0.00  0.00    -0.030 A 
ATOM     18  C   LIG    1       -3.510   0.728   3.561  0.00  0.00    -0.120 A 
ATOM     19  C   LIG    1       -4.298  -0.412   3.357  0.00  0.00    +0.120 A 
ATOM     20  C   LIG    1       -5.311  -0.692   4.219  0.00  0.00    -0.030 A 
ATOM     21  C   LIG    1       -5.589   0.137   5.315  0.00  0.00    +0.240 A 
ATOM     22  C   LIG    1       -4.857   1.260   5.567  0.00  0.00    -0.060 A 
ATOM     23  C   LIG    1       -3.794   1.603   4.709  0.00  0.00    +0.100 A 
ATOM     24  N   LIG    1       -2.908   2.583   4.653  0.00  0.00    -0.280 NA
ATOM     25  N   LIG    1       -2.118   2.443   3.651  0.00  0.00    -0.330 N 
ATOM     26  H   LIG    1       -1.396   3.055   3.437  0.00  0.00    +0.440 HD
BRANCH  21  27
ATOM     27  N   LIG    1       -6.642  -0.197   6.170  0.00  0.00    -0.870 N 
ATOM     28  H   LIG    1       -7.170  -0.993   6.003  0.00  0.00    +0.400 HD
ATOM     29  H   LIG    1       -6.844   0.368   6.933  0.00  0.00    +0.400 HD
ENDBRANCH  21  27
ENDBRANCH   3  17
TORSDOF 3
