REMARK  Name = ZINCpk00000k0rwg.0
REMARK                            x       y       z     vdW  Elec       q    Type
REMARK                         _______ _______ _______ _____ _____    ______ ____
ROOT
ATOM      1  N   LIG    1        0.273  -2.534   2.144  0.00  0.00    -0.710 N 
ATOM      2  H   LIG    1        0.848  -1.814   2.447  0.00  0.00    +0.410 HD
ATOM      3  C   LIG    1       -0.325  -3.343   3.041  0.00  0.00    +0.610 C 
ATOM      4  O   LIG    1       -1.046  -4.245   2.660  0.00  0.00    -0.510 OA
ENDROOT
BRANCH   1   8
ATOM      5  C   LIG    1       -2.457  -0.032  -0.275  0.00  0.00    +0.300 C 
ATOM      6  N   LIG    1       -1.197  -0.721   0.014  0.00  0.00    -0.550 N 
ATOM      7  C   LIG    1       -1.208  -2.037   0.288  0.00  0.00    +0.500 C 
ATOM      8  C   LIG    1        0.054  -2.742   0.710  0.00  0.00    +0.270 C 
ATOM      9  C   LIG    1        1.244  -2.184  -0.072  0.00  0.00    +0.110 C 
ATOM     10  C   LIG    1        1.216  -0.678  -0.032  0.00  0.00    -0.130 A 
ATOM     11  C   LIG    1        2.400   0.034  -0.036  0.00  0.00    +0.050 A 
ATOM     12  C   LIG    1        2.377   1.417  -0.018  0.00  0.00    -0.010 A 
ATOM     13  C   LIG    1        1.170   2.091   0.002  0.00  0.00    +0.050 A 
ATOM     14  C   LIG    1       -0.017   1.384   0.010  0.00  0.00    -0.030 A 
ATOM     15  O   LIG    1       -2.243  -2.663   0.195  0.00  0.00    -0.490 OA
ATOM     16  C   LIG    1        0.002  -0.004   0.002  0.00  0.00    +0.170 A 
ENDBRANCH   1   8
BRANCH   3  17
ATOM     17  C   LIG    1       -0.105  -3.133   4.483  0.00  0.00    +0.010 A 
ATOM     18  N   LIG    1        0.647  -2.209   5.040  0.00  0.00    -0.220 NA
ATOM     19  N   LIG    1        0.632  -2.284   6.321  0.00  0.00    -0.420 N 
ATOM     20  H   LIG    1        1.121  -1.689   6.911  0.00  0.00    +0.450 HD
ATOM     21  C   LIG    1       -0.161  -3.318   6.749  0.00  0.00    +0.120 A 
ATOM     22  C   LIG    1       -0.513  -3.828   7.993  0.00  0.00    -0.090 A 
ATOM     23  C   LIG    1       -1.364  -4.917   8.069  0.00  0.00    +0.250 A 
ATOM     24  C   LIG    1       -1.870  -5.505   6.910  0.00  0.00    -0.070 A 
ATOM     25  C   LIG    1       -1.533  -5.014   5.681  0.00  0.00    +0.140 A 
ATOM     26  C   LIG    1       -0.678  -3.920   5.585  0.00  0.00    -0.160 A 
BRANCH  23  27
ATOM     27  N   LIG    1       -1.719  -5.432   9.318  0.00  0.00    -0.870 N 
ATOM     28  H   LIG    1       -2.315  -6.195   9.377  0.00  0.00    +0.400 HD
ATOM     29  H   LIG    1       -1.369  -5.026  10.127  0.00  0.00    +0.400 HD
ENDBRANCH  23  27
ENDBRANCH   3  17
TORSDOF 3
