REMARK  Name = ZINCvU00000007sa.0
REMARK                            x       y       z     vdW  Elec       q    Type
REMARK                         _______ _______ _______ _____ _____    ______ ____
ROOT
ATOM      1  N   LIG    1        7.545   4.925   0.297  0.00  0.00    -0.510 NA
ATOM      2  C   LIG    1        6.758   3.897   0.105  0.00  0.00    +0.350 A 
ATOM      3  S   LIG    1        7.223   2.188   0.017  0.00  0.00    +0.130 S 
ATOM      4  C   LIG    1        5.571   1.601  -0.246  0.00  0.00    -0.020 A 
ATOM      5  C   LIG    1        4.792   2.694  -0.259  0.00  0.00    +0.170 A 
ATOM      6  N   LIG    1        5.399   3.910  -0.073  0.00  0.00    -0.420 N 
ENDROOT
BRANCH   5   7
ATOM      7  C   LIG    1        3.338   2.591  -0.459  0.00  0.00    +0.060 A 
ATOM      8  C   LIG    1        2.656   1.432  -0.650  0.00  0.00    +0.020 A 
ATOM      9  C   LIG    1        1.249   1.810  -0.801  0.00  0.00    -0.130 A 
ATOM     10  C   LIG    1        0.069   1.097  -1.018  0.00  0.00    +0.070 A 
ATOM     11  C   LIG    1       -1.126   1.775  -1.121  0.00  0.00    +0.000 A 
ATOM     12  C   LIG    1       -1.159   3.157  -1.000  0.00  0.00    +0.060 A 
ATOM     13  C   LIG    1        0.001   3.873  -0.785  0.00  0.00    +0.020 A 
ATOM     14  C   LIG    1        1.216   3.211  -0.683  0.00  0.00    +0.060 A 
ATOM     15  O   LIG    1        2.482   3.632  -0.480  0.00  0.00    -0.190 OA
ENDBRANCH   5   7
BRANCH   6  16
ATOM     16  N   LIG    1        4.667   5.104  -0.065  0.00  0.00    -0.250 NA
ATOM     17  C   LIG    1        3.841   5.353   0.905  0.00  0.00    +0.310 C 
BRANCH  17  18
ATOM     18  C   LIG    1        2.992   6.558   0.860  0.00  0.00    -0.070 A 
ATOM     19  C   LIG    1        3.079   7.437  -0.222  0.00  0.00    +0.100 A 
ATOM     20  C   LIG    1        2.277   8.559  -0.260  0.00  0.00    +0.020 A 
ATOM     21  C   LIG    1        1.398   8.821   0.776  0.00  0.00    +0.100 A 
ATOM     22  C   LIG    1        1.311   7.957   1.854  0.00  0.00    -0.190 A 
ATOM     23  C   LIG    1        2.102   6.828   1.902  0.00  0.00    +0.110 A 
BRANCH  22  24
ATOM     24  C   LIG    1        0.350   8.251   2.977  0.00  0.00    +0.510 C 
ATOM     25  F   LIG    1       -0.080   7.048   3.548  0.00  0.00    -0.170 F 
ATOM     26  F   LIG    1       -0.753   8.950   2.476  0.00  0.00    -0.170 F 
ATOM     27  F   LIG    1        0.992   9.026   3.949  0.00  0.00    -0.170 F 
ENDBRANCH  22  24
ENDBRANCH  17  18
ENDBRANCH   6  16
BRANCH   1  28
ATOM     28  C   LIG    1        6.973   6.263   0.465  0.00  0.00    +0.210 C 
BRANCH  28  29
ATOM     29  C   LIG    1        8.090   7.259   0.784  0.00  0.00    +0.180 C 
BRANCH  29  31
ATOM     30  C   LIG    1       10.055   8.272  -0.142  0.00  0.00    +0.200 C 
ATOM     31  O   LIG    1        8.970   7.362  -0.337  0.00  0.00    -0.380 OA
ENDBRANCH  29  31
ENDBRANCH  28  29
ENDBRANCH   1  28
TORSDOF 7
