REMARK  Name = ZINCrD000000BQzH.0
REMARK                            x       y       z     vdW  Elec       q    Type
REMARK                         _______ _______ _______ _____ _____    ______ ____
ROOT
ATOM      1  O   LIG    1       -2.365   1.773   0.038  0.00  0.00    -0.510 OA
ATOM      2  C   LIG    1       -1.252   2.259   0.027  0.00  0.00    +0.610 C 
ATOM      3  N   LIG    1       -1.101   3.599   0.027  0.00  0.00    -0.710 N 
ATOM      4  H   LIG    1       -0.212   3.987   0.018  0.00  0.00    +0.410 HD
ENDROOT
BRANCH   3   5
ATOM      5  C   LIG    1       -2.280   4.468   0.040  0.00  0.00    +0.260 C 
ATOM      6  C   LIG    1       -1.919   5.861   0.608  0.00  0.00    +0.070 C 
ATOM      7  C   LIG    1       -2.795   6.791  -0.265  0.00  0.00    +0.290 C 
ATOM      8  N   LIG    1       -3.023   6.057  -1.515  0.00  0.00    -0.560 N 
ATOM      9  C   LIG    1       -2.747   4.749  -1.371  0.00  0.00    +0.500 C 
ATOM     10  O   LIG    1       -2.856   3.916  -2.245  0.00  0.00    -0.480 OA
BRANCH   8  11
ATOM     11  C   LIG    1       -3.470   6.643  -2.705  0.00  0.00    +0.200 A 
ATOM     12  C   LIG    1       -3.843   7.981  -2.723  0.00  0.00    -0.020 A 
ATOM     13  C   LIG    1       -4.283   8.559  -3.898  0.00  0.00    +0.100 A 
ATOM     14  C   LIG    1       -4.353   7.807  -5.057  0.00  0.00    -0.100 A 
ATOM     15  C   LIG    1       -3.982   6.471  -5.042  0.00  0.00    +0.140 A 
ATOM     16  F   LIG    1       -4.052   5.738  -6.175  0.00  0.00    -0.120 F 
ATOM     17 CL   LIG    1       -4.907   8.536  -6.531  0.00  0.00    -0.050 Cl
ATOM     18  C   LIG    1       -3.535   5.890  -3.869  0.00  0.00    -0.020 A 
ENDBRANCH   8  11
ENDBRANCH   3   5
BRANCH   2  19
ATOM     19  C   LIG    1       -0.063   1.383   0.013  0.00  0.00    -0.020 A 
ATOM     20  N   LIG    1        1.197   1.770  -0.006  0.00  0.00    -0.260 NA
ATOM     21  N   LIG    1        1.973   0.746  -0.019  0.00  0.00    -0.270 N 
ATOM     22  C   LIG    1        1.245  -0.392  -0.009  0.00  0.00    +0.160 A 
ATOM     23  C   LIG    1       -0.060  -0.032   0.011  0.00  0.00    -0.010 A 
BRANCH  21  24
ATOM     24  C   LIG    1        3.436   0.803  -0.041  0.00  0.00    +0.250 C 
ATOM     25  C   LIG    1        4.000  -0.391  -0.839  0.00  0.00    +0.020 C 
ATOM     26  C   LIG    1        5.284  -0.789  -0.068  0.00  0.00    +0.040 C 
ATOM     27  C   LIG    1        4.872  -0.587   1.412  0.00  0.00    +0.020 C 
ATOM     28  C   LIG    1        3.991   0.679   1.389  0.00  0.00    +0.020 C 
ENDBRANCH  21  24
ENDBRANCH   2  19
TORSDOF 4
