REMARK  Name = ZINCtj00001yywqy.1
REMARK                            x       y       z     vdW  Elec       q    Type
REMARK                         _______ _______ _______ _____ _____    ______ ____
ROOT
ATOM      1  N   LIG    1       -4.745  -5.608   0.209  0.00  0.00    -0.750 N 
ATOM      2  H   LIG    1       -5.671  -5.404   0.413  0.00  0.00    +0.400 HD
ATOM      3  C   LIG    1       -3.843  -4.612   0.107  0.00  0.00    +0.510 C 
ATOM      4  O   LIG    1       -2.685  -4.866  -0.147  0.00  0.00    -0.480 OA
ENDROOT
BRANCH   1   5
ATOM      5  C   LIG    1       -4.327  -6.998   0.013  0.00  0.00    +0.320 C 
BRANCH   5   6
ATOM      6  C   LIG    1       -5.560  -7.904  -0.008  0.00  0.00    +0.160 C 
BRANCH   6   7
ATOM      7  N   LIG    1       -6.312  -7.677  -1.249  0.00  0.00    -0.380 N 
ATOM      8  C   LIG    1       -5.422  -7.862  -2.403  0.00  0.00    +0.230 C 
ATOM      9  C   LIG    1       -6.209  -7.625  -3.695  0.00  0.00    +0.260 C 
ATOM     10  O   LIG    1       -6.770  -6.310  -3.670  0.00  0.00    -0.350 OA
ATOM     11  C   LIG    1       -7.627  -6.073  -2.550  0.00  0.00    +0.260 C 
ATOM     12  C   LIG    1       -6.843  -6.307  -1.256  0.00  0.00    +0.210 C 
ATOM     13  H   LIG    1       -7.076  -8.334  -1.304  0.00  0.00    +0.420 HD
ENDBRANCH   6   7
BRANCH   6  14
ATOM     14  C   LIG    1       -5.119  -9.367   0.061  0.00  0.00    +0.080 C 
BRANCH  14  16
ATOM     15  C   LIG    1       -5.921 -11.733   0.089  0.00  0.00    +0.050 C 
ATOM     16  C   LIG    1       -6.352 -10.267   0.166  0.00  0.00    -0.040 C 
ATOM     17  C   LIG    1       -7.057 -10.012   1.500  0.00  0.00    +0.030 C 
ENDBRANCH  14  16
ENDBRANCH   6  14
ENDBRANCH   5   6
ENDBRANCH   1   5
BRANCH   3  18
ATOM     18  C   LIG    1       -4.273  -3.182   0.308  0.00  0.00    +0.220 C 
BRANCH  18  19
ATOM     19  O   LIG    1       -3.146  -2.318   0.150  0.00  0.00    -0.330 OA
BRANCH  19  20
ATOM     20  C   LIG    1       -3.447  -0.932   0.322  0.00  0.00    +0.290 C 
BRANCH  20  21
ATOM     21  C   LIG    1       -2.192  -0.118   0.134  0.00  0.00    +0.380 A 
ATOM     22  N   LIG    1       -1.088  -0.744  -0.139  0.00  0.00    -0.480 NA
ATOM     23  C   LIG    1        0.080  -0.078  -0.321  0.00  0.00    +0.140 A 
ATOM     24  C   LIG    1        1.268  -0.750  -0.614  0.00  0.00    +0.040 A 
ATOM     25  C   LIG    1        2.431  -0.034  -0.791  0.00  0.00    +0.070 A 
ATOM     26  C   LIG    1        2.437   1.351  -0.681  0.00  0.00    +0.010 A 
ATOM     27  C   LIG    1        1.277   2.036  -0.394  0.00  0.00    +0.100 A 
ATOM     28  C   LIG    1        0.090   1.330  -0.210  0.00  0.00    -0.200 A 
ATOM     29  C   LIG    1       -1.177   2.007   0.106  0.00  0.00    +0.550 A 
ATOM     30  O   LIG    1       -1.236   3.218   0.215  0.00  0.00    -0.500 OA
ATOM     31  N   LIG    1       -2.275   1.232   0.259  0.00  0.00    -0.650 N 
ATOM     32  H   LIG    1       -3.129   1.644   0.465  0.00  0.00    +0.420 HD
ENDBRANCH  20  21
ENDBRANCH  19  20
ENDBRANCH  18  19
ENDBRANCH   3  18
TORSDOF 9
