REMARK  Name = ZINCrH000004om63.0
REMARK                            x       y       z     vdW  Elec       q    Type
REMARK                         _______ _______ _______ _____ _____    ______ ____
ROOT
ATOM      1  N   LIG    1        2.396   5.283   0.006  0.00  0.00    -0.730 N 
ATOM      2  H   LIG    1        1.548   5.754   0.017  0.00  0.00    +0.400 HD
ATOM      3  C   LIG    1        2.417   3.935  -0.001  0.00  0.00    +0.570 C 
ATOM      4  O   LIG    1        3.480   3.344  -0.014  0.00  0.00    -0.530 OA
ENDROOT
BRANCH   3   5
ATOM      5  C   LIG    1        1.151   3.177   0.008  0.00  0.00    -0.180 A 
ATOM      6  C   LIG    1        1.171   1.780   0.000  0.00  0.00    +0.140 A 
ATOM      7  C   LIG    1       -0.013   1.076   0.008  0.00  0.00    -0.020 A 
ATOM      8  C   LIG    1       -1.226   1.753   0.017  0.00  0.00    +0.160 A 
ATOM      9  C   LIG    1       -1.250   3.143   0.030  0.00  0.00    -0.080 A 
ATOM     10  C   LIG    1       -0.071   3.854   0.022  0.00  0.00    +0.090 A 
BRANCH   8  11
ATOM     11  O   LIG    1       -2.390   1.056   0.019  0.00  0.00    -0.300 OA
BRANCH  11  12
ATOM     12  C   LIG    1       -3.601   1.815   0.029  0.00  0.00    +0.330 C 
BRANCH  12  13
ATOM     13  C   LIG    1       -4.782   0.878   0.029  0.00  0.00    +0.190 A 
ATOM     14  N   LIG    1       -5.373   0.400   1.090  0.00  0.00    -0.460 NA
ATOM     15  C   LIG    1       -6.382  -0.398   0.712  0.00  0.00    +0.150 A 
ATOM     16  C   LIG    1       -6.418  -0.415  -0.634  0.00  0.00    +0.140 A 
ATOM     17  N   LIG    1       -5.407   0.399  -1.068  0.00  0.00    -0.450 N 
ATOM     18  C   LIG    1       -5.064   0.693  -2.461  0.00  0.00    +0.330 C 
ENDBRANCH  12  13
ENDBRANCH  11  12
ENDBRANCH   8  11
ENDBRANCH   3   5
BRANCH   1  20
ATOM     19  C   LIG    1        4.169   6.182   1.431  0.00  0.00    +0.040 C 
ATOM     20  C   LIG    1        3.653   6.035  -0.002  0.00  0.00    +0.300 C 
BRANCH  20  21
ATOM     21  C   LIG    1        3.417   7.401  -0.594  0.00  0.00    -0.140 A 
ATOM     22  C   LIG    1        2.156   7.965  -0.548  0.00  0.00    +0.080 A 
ATOM     23  C   LIG    1        1.937   9.217  -1.090  0.00  0.00    -0.010 A 
ATOM     24  C   LIG    1        2.982   9.909  -1.679  0.00  0.00    +0.130 A 
ATOM     25  C   LIG    1        4.246   9.346  -1.725  0.00  0.00    -0.040 A 
ATOM     26  F   LIG    1        2.769  11.133  -2.209  0.00  0.00    -0.130 F 
ATOM     27  C   LIG    1        4.464   8.093  -1.177  0.00  0.00    +0.140 A 
ATOM     28  F   LIG    1        5.698   7.544  -1.217  0.00  0.00    -0.120 F 
ENDBRANCH  20  21
ENDBRANCH   1  20
TORSDOF 6
