REMARK  Name = ZINCpe000000XZah.1
REMARK                            x       y       z     vdW  Elec       q    Type
REMARK                         _______ _______ _______ _____ _____    ______ ____
ROOT
ATOM      1  C   LIG    1        1.129  -2.189  -0.021  0.00  0.00    +0.090 C 
ATOM      2  C   LIG    1        1.148  -0.682  -0.013  0.00  0.00    +0.190 A 
ATOM      3  C   LIG    1        2.338  -0.016  -0.020  0.00  0.00    -0.340 A 
ATOM      4  C   LIG    1        2.329   1.393  -0.012  0.00  0.00    +0.510 A 
ATOM      5  N   LIG    1        1.141   2.033   0.002  0.00  0.00    -0.650 NA
ATOM      6  C   LIG    1       -0.016   1.313   0.009  0.00  0.00    +0.380 A 
ATOM      7  O   LIG    1        3.375   2.021  -0.018  0.00  0.00    -0.620 OA
ATOM      8  N   LIG    1        0.002  -0.004   0.002  0.00  0.00    -0.610 NA
ENDROOT
BRANCH   6   9
ATOM      9  C   LIG    1       -1.312   2.021   0.019  0.00  0.00    -0.070 A 
ATOM     10  C   LIG    1       -1.359   3.420   0.027  0.00  0.00    +0.110 A 
ATOM     11  C   LIG    1       -2.599   4.035   0.036  0.00  0.00    -0.060 A 
ATOM     12  C   LIG    1       -3.741   3.255   0.037  0.00  0.00    +0.240 A 
ATOM     13  N   LIG    1       -3.667   1.937   0.030  0.00  0.00    -0.500 NA
ATOM     14  C   LIG    1       -2.512   1.306   0.015  0.00  0.00    +0.300 A 
ENDBRANCH   6   9
BRANCH   3  15
ATOM     15  C   LIG    1        3.640  -0.775  -0.036  0.00  0.00    +0.120 C 
BRANCH  15  16
ATOM     16  C   LIG    1        4.124  -0.913  -1.456  0.00  0.00    +0.530 C 
ATOM     17  N   LIG    1        5.277  -1.560  -1.715  0.00  0.00    -0.630 N 
ATOM     18  C   LIG    1        6.061  -2.128  -0.616  0.00  0.00    +0.280 C 
ATOM     19  O   LIG    1        3.475  -0.443  -2.366  0.00  0.00    -0.510 OA
BRANCH  17  20
ATOM     20  C   LIG    1        5.747  -1.695  -3.096  0.00  0.00    +0.240 C 
ATOM     21  C   LIG    1        5.868  -3.179  -3.454  0.00  0.00    +0.050 C 
ATOM     22  C   LIG    1        6.436  -3.313  -4.868  0.00  0.00    +0.260 C 
ATOM     23  N   LIG    1        7.760  -2.683  -4.930  0.00  0.00    -0.500 N 
ATOM     24  C   LIG    1        7.641  -1.245  -4.660  0.00  0.00    +0.270 C 
ATOM     25  H   LIG    1        8.364  -3.105  -4.241  0.00  0.00    +0.430 HD
ATOM     26  H   LIG    1        8.154  -2.819  -5.849  0.00  0.00    +0.430 HD
ATOM     27  C   LIG    1        7.121  -1.032  -3.236  0.00  0.00    +0.050 C 
ENDBRANCH  17  20
ENDBRANCH  15  16
ENDBRANCH   3  15
TORSDOF 4
