REMARK  Name = ZINCpe000000Upo3.0
REMARK                            x       y       z     vdW  Elec       q    Type
REMARK                         _______ _______ _______ _____ _____    ______ ____
ROOT
ATOM      1  C   LIG    1        0.058   1.204  -0.006  0.00  0.00    -0.020 C 
ENDROOT
BRANCH   1   4
ATOM      2  C   LIG    1        3.871   1.503   0.122  0.00  0.00    +0.290 C 
ATOM      3  N   LIG    1        2.516   0.947   0.096  0.00  0.00    -0.620 N 
ATOM      4  C   LIG    1        1.457   1.760  -0.083  0.00  0.00    +0.520 C 
ATOM      5  O   LIG    1        1.629   2.940  -0.304  0.00  0.00    -0.530 OA
ATOM      6  C   LIG    1        2.313  -0.494   0.263  0.00  0.00    +0.290 C 
ENDBRANCH   1   4
BRANCH   1   7
ATOM      7  C   LIG    1       -0.666   1.808   1.199  0.00  0.00    +0.120 C 
BRANCH   7   8
ATOM      8  C   LIG    1        0.015   1.364   2.468  0.00  0.00    -0.100 A 
ATOM      9  C   LIG    1       -0.319   0.152   3.043  0.00  0.00    +0.040 A 
ATOM     10  C   LIG    1        0.309  -0.259   4.204  0.00  0.00    -0.010 A 
ATOM     11  C   LIG    1        1.264   0.549   4.797  0.00  0.00    +0.100 A 
ATOM     12  C   LIG    1        1.593   1.766   4.223  0.00  0.00    -0.010 A 
ATOM     13  F   LIG    1        1.874   0.151   5.935  0.00  0.00    -0.140 F 
ATOM     14  C   LIG    1        0.969   2.172   3.059  0.00  0.00    +0.050 A 
ENDBRANCH   7   8
ENDBRANCH   1   7
BRANCH   1  15
ATOM     15  C   LIG    1       -0.702   1.557  -1.286  0.00  0.00    +0.310 C 
BRANCH  15  16
ATOM     16  N   LIG    1       -0.077   0.881  -2.427  0.00  0.00    -0.730 N 
ATOM     17  H   LIG    1        0.698   0.315  -2.289  0.00  0.00    +0.390 HD
ATOM     18  C   LIG    1       -0.581   1.046  -3.666  0.00  0.00    +0.580 C 
ATOM     19  O   LIG    1       -1.553   1.756  -3.838  0.00  0.00    -0.530 OA
BRANCH  18  20
ATOM     20  C   LIG    1        0.048   0.365  -4.814  0.00  0.00    -0.310 A 
ATOM     21  C   LIG    1        1.172  -0.452  -4.638  0.00  0.00    +0.400 A 
ATOM     22  N   LIG    1        1.701  -1.048  -5.690  0.00  0.00    -0.570 NA
ATOM     23  C   LIG    1        1.190  -0.872  -6.901  0.00  0.00    +0.580 A 
ATOM     24  N   LIG    1        0.130  -0.102  -7.110  0.00  0.00    -0.570 NA
ATOM     25  C   LIG    1       -0.461   0.524  -6.110  0.00  0.00    +0.440 A 
BRANCH  23  26
ATOM     26  N   LIG    1        1.777  -1.509  -7.974  0.00  0.00    -0.810 N 
ATOM     27  H   LIG    1        2.553  -2.075  -7.837  0.00  0.00    +0.420 HD
ATOM     28  H   LIG    1        1.415  -1.391  -8.866  0.00  0.00    +0.420 HD
ENDBRANCH  23  26
ENDBRANCH  18  20
ENDBRANCH  15  16
ENDBRANCH   1  15
TORSDOF 7
