REMARK  Name = ZINCpe000000XDzD.0
REMARK                            x       y       z     vdW  Elec       q    Type
REMARK                         _______ _______ _______ _____ _____    ______ ____
ROOT
ATOM      1  N   LIG    1       -4.975  -6.895   0.015  0.00  0.00    -0.510 N 
ATOM      2  H   LIG    1       -5.845  -6.467   0.025  0.00  0.00    +0.440 HD
ATOM      3  C   LIG    1       -3.855  -6.144   0.007  0.00  0.00    +0.510 C 
ATOM      4  O   LIG    1       -2.767  -6.679  -0.006  0.00  0.00    -0.530 OA
ENDROOT
BRANCH   1   6
ATOM      5  C   LIG    1       -6.000  -9.043   0.013  0.00  0.00    +0.600 C 
ATOM      6  N   LIG    1       -4.881  -8.293   0.006  0.00  0.00    -0.520 N 
ATOM      7  H   LIG    1       -4.010  -8.720  -0.005  0.00  0.00    +0.430 HD
ATOM      8  O   LIG    1       -7.092  -8.507   0.027  0.00  0.00    -0.540 OA
BRANCH   5  12
ATOM      9  C   LIG    1       -4.165 -13.803  -0.029  0.00  0.00    +0.180 C 
ATOM     10  C   LIG    1       -5.075 -12.602  -0.014  0.00  0.00    -0.000 A 
ATOM     11  C   LIG    1       -4.674 -11.322  -0.012  0.00  0.00    -0.030 A 
ATOM     12  C   LIG    1       -5.902 -10.514   0.004  0.00  0.00    -0.250 A 
ATOM     13  C   LIG    1       -6.931 -11.409   0.015  0.00  0.00    +0.100 A 
ATOM     14  C   LIG    1       -8.398 -11.066   0.039  0.00  0.00    +0.190 C 
ATOM     15  O   LIG    1       -6.417 -12.643  -0.002  0.00  0.00    -0.170 OA
ENDBRANCH   5  12
ENDBRANCH   1   6
BRANCH   3  16
ATOM     16  C   LIG    1       -3.956  -4.641   0.016  0.00  0.00    +0.330 C 
BRANCH  16  17
ATOM     17  N   LIG    1       -2.610  -4.061   0.006  0.00  0.00    -0.720 N 
ATOM     18  H   LIG    1       -1.833  -4.641  -0.005  0.00  0.00    +0.420 HD
ATOM     19  C   LIG    1       -2.453  -2.723   0.012  0.00  0.00    +0.520 C 
ATOM     20  O   LIG    1       -3.426  -1.998   0.025  0.00  0.00    -0.510 OA
BRANCH  19  21
ATOM     21  C   LIG    1       -1.069  -2.126   0.001  0.00  0.00    +0.240 C 
BRANCH  21  22
ATOM     22  O   LIG    1       -1.165  -0.701   0.010  0.00  0.00    -0.290 OA
BRANCH  22  23
ATOM     23  C   LIG    1        0.002  -0.004   0.002  0.00  0.00    +0.130 A 
ATOM     24  C   LIG    1       -0.017   1.383   0.010  0.00  0.00    -0.020 A 
ATOM     25  C   LIG    1        1.171   2.089   0.002  0.00  0.00    +0.050 A 
ATOM     26  C   LIG    1        2.377   1.414  -0.013  0.00  0.00    -0.030 A 
ATOM     27  C   LIG    1        2.399   0.031  -0.021  0.00  0.00    +0.050 A 
ATOM     28  C   LIG    1        1.214  -0.679  -0.013  0.00  0.00    -0.080 A 
ENDBRANCH  22  23
ENDBRANCH  21  22
ENDBRANCH  19  21
ENDBRANCH  16  17
ENDBRANCH   3  16
TORSDOF 7
