REMARK  Name = ZINCpk000000nKWg.0
REMARK                            x       y       z     vdW  Elec       q    Type
REMARK                         _______ _______ _______ _____ _____    ______ ____
ROOT
ATOM      1  C   LIG    1        2.277   3.638   7.569  0.00  0.00    +0.520 C 
ATOM      2  N   LIG    1        1.118   4.060   7.026  0.00  0.00    -0.720 N 
ATOM      3  H   LIG    1        0.971   5.006   6.872  0.00  0.00    +0.410 HD
ATOM      4  O   LIG    1        2.461   2.454   7.761  0.00  0.00    -0.520 OA
ENDROOT
BRANCH   2   5
ATOM      5  C   LIG    1        0.080   3.090   6.669  0.00  0.00    +0.250 C 
ATOM      6  C   LIG    1       -1.313   3.762   6.672  0.00  0.00    +0.060 C 
ATOM      7  C   LIG    1       -2.007   3.055   5.487  0.00  0.00    +0.280 C 
ATOM      8  N   LIG    1       -0.920   2.615   4.603  0.00  0.00    -0.530 N 
ATOM      9  C   LIG    1        0.261   2.615   5.245  0.00  0.00    +0.500 C 
ATOM     10  O   LIG    1        1.319   2.284   4.752  0.00  0.00    -0.500 OA
BRANCH   8  11
ATOM     11  C   LIG    1       -1.094   2.237   3.259  0.00  0.00    +0.000 A 
ATOM     12  C   LIG    1       -0.117   1.826   2.411  0.00  0.00    +0.230 A 
ATOM     13  N   LIG    1       -0.698   1.558   1.213  0.00  0.00    -0.370 N 
ATOM     14  N   LIG    1       -2.069   1.820   1.333  0.00  0.00    -0.280 NA
ATOM     15  C   LIG    1       -0.013   1.086   0.008  0.00  0.00    +0.360 C 
ATOM     16  C   LIG    1       -2.308   2.219   2.556  0.00  0.00    +0.230 A 
ENDBRANCH   8  11
ENDBRANCH   2   5
BRANCH   1  17
ATOM     17  C   LIG    1        3.345   4.635   7.936  0.00  0.00    +0.070 C 
BRANCH  17  20
ATOM     18  C   LIG    1        6.851   4.166   9.453  0.00  0.00    +0.160 C 
ATOM     19  C   LIG    1        5.681   4.897   8.789  0.00  0.00    +0.000 C 
ATOM     20  C   LIG    1        4.549   3.899   8.527  0.00  0.00    +0.010 C 
ATOM     21  C   LIG    1        4.147   3.239   9.849  0.00  0.00    +0.010 C 
ATOM     22  C   LIG    1        5.377   2.574  10.473  0.00  0.00    +0.200 C 
ATOM     23  O   LIG    1        6.402   3.550  10.662  0.00  0.00    -0.380 OA
BRANCH  18  25
ATOM     24  C   LIG    1        9.132   4.437  10.436  0.00  0.00    +0.010 C 
ATOM     25  C   LIG    1        7.963   5.168   9.773  0.00  0.00    -0.010 C 
ATOM     26  C   LIG    1        8.442   5.828   8.479  0.00  0.00    +0.030 C 
ENDBRANCH  18  25
ENDBRANCH  17  20
ENDBRANCH   1  17
TORSDOF 5
