REMARK  Name = ZINCqH0000007vSB.0
REMARK                            x       y       z     vdW  Elec       q    Type
REMARK                         _______ _______ _______ _____ _____    ______ ____
ROOT
ATOM      1  C   LIG    1        2.421  -0.363  -0.021  0.00  0.00    +0.340 C 
ENDROOT
BRANCH   1   6
ATOM      2  C   LIG    1        6.010  -1.242  -3.651  0.00  0.00    +0.190 A 
ATOM      3  C   LIG    1        4.692  -0.791  -3.677  0.00  0.00    -0.080 A 
ATOM      4  C   LIG    1        3.983  -0.659  -2.518  0.00  0.00    +0.130 A 
ATOM      5  C   LIG    1        4.584  -0.978  -1.295  0.00  0.00    -0.190 A 
ATOM      6  C   LIG    1        3.848  -0.847  -0.036  0.00  0.00    +0.010 A 
ATOM      7  C   LIG    1        4.488  -1.167   1.118  0.00  0.00    -0.060 A 
ATOM      8  C   LIG    1        5.822  -1.623   1.077  0.00  0.00    +0.510 A 
ATOM      9  O   LIG    1        6.491  -1.741  -0.081  0.00  0.00    -0.270 OA
ATOM     10  O   LIG    1        6.383  -1.912   2.119  0.00  0.00    -0.450 OA
ATOM     11  C   LIG    1        5.915  -1.434  -1.262  0.00  0.00    +0.190 A 
ATOM     12  C   LIG    1        6.620  -1.562  -2.449  0.00  0.00    -0.030 A 
BRANCH   2  14
ATOM     13  C   LIG    1        6.015  -1.021  -6.017  0.00  0.00    +0.250 C 
ATOM     14  O   LIG    1        6.701  -1.368  -4.812  0.00  0.00    -0.300 OA
ENDBRANCH   2  14
ENDBRANCH   1   6
BRANCH   1  15
ATOM     15  N   LIG    1        2.401   1.102  -0.014  0.00  0.00    -0.740 N 
ATOM     16  H   LIG    1        3.235   1.598  -0.019  0.00  0.00    +0.410 HD
BRANCH  15  17
ATOM     17  C   LIG    1        1.181   1.786   0.000  0.00  0.00    +0.240 A 
ATOM     18  C   LIG    1       -0.013   1.076   0.008  0.00  0.00    -0.040 A 
ATOM     19  C   LIG    1       -1.219   1.750   0.017  0.00  0.00    +0.120 A 
ATOM     20  C   LIG    1       -1.242   3.135   0.030  0.00  0.00    -0.030 A 
ATOM     21  O   LIG    1       -2.280   4.022   0.044  0.00  0.00    -0.290 OA
ATOM     22  C   LIG    1       -1.716   5.281  -0.368  0.00  0.00    +0.570 C 
ATOM     23  O   LIG    1       -0.336   5.184   0.032  0.00  0.00    -0.290 OA
ATOM     24  F   LIG    1       -2.347   6.342   0.290  0.00  0.00    -0.120 F 
ATOM     25  F   LIG    1       -1.817   5.435  -1.755  0.00  0.00    -0.150 F 
ATOM     26  C   LIG    1       -0.046   3.850   0.022  0.00  0.00    +0.080 A 
ATOM     27  C   LIG    1        1.162   3.174   0.007  0.00  0.00    -0.020 A 
ENDBRANCH  15  17
ENDBRANCH   1  15
TORSDOF 4
