REMARK  Name = ZINCpk00000KfLqg.0
REMARK                            x       y       z     vdW  Elec       q    Type
REMARK                         _______ _______ _______ _____ _____    ______ ____
ROOT
ATOM      1  C   LIG    1       -1.305   2.117   0.020  0.00  0.00    +0.580 C 
ATOM      2  N   LIG    1       -2.463   1.434  -0.080  0.00  0.00    -0.610 N 
ATOM      3  C   LIG    1       -2.596  -0.034  -0.107  0.00  0.00    +0.240 C 
ATOM      4  C   LIG    1       -4.039  -0.308   0.392  0.00  0.00    +0.040 C 
ATOM      5  C   LIG    1       -4.817   0.870  -0.252  0.00  0.00    +0.030 C 
ATOM      6  C   LIG    1       -3.803   2.031  -0.187  0.00  0.00    +0.220 C 
ATOM      7  O   LIG    1       -1.321   3.325   0.146  0.00  0.00    -0.490 OA
ENDROOT
BRANCH   1  12
ATOM      8  C   LIG    1        2.342   1.319   0.424  0.00  0.00    -0.670 A 
ATOM      9  C   LIG    1        2.402   0.047  -0.118  0.00  0.00    +0.150 A 
ATOM     10  C   LIG    1        1.258  -0.554  -0.613  0.00  0.00    -0.010 A 
ATOM     11  C   LIG    1        0.051   0.111  -0.569  0.00  0.00    +0.100 A 
ATOM     12  C   LIG    1       -0.016   1.395  -0.025  0.00  0.00    -0.140 A 
ATOM     13  C   LIG    1        1.141   1.996   0.473  0.00  0.00    +0.180 A 
BRANCH   8  14
ATOM     14  S   LIG    1        3.804   2.076   1.052  0.00  0.00    +2.490 S 
ATOM     15  O   LIG    1        4.636   0.983   1.418  0.00  0.00    -0.930 OA
ATOM     16  O   LIG    1        3.332   2.995   2.027  0.00  0.00    -0.930 OA
BRANCH  14  18
ATOM     17  C   LIG    1        5.793   3.666   0.053  0.00  0.00    +0.090 C 
ATOM     18  C   LIG    1        4.504   2.959  -0.369  0.00  0.00    -0.330 C 
ENDBRANCH  14  18
ENDBRANCH   8  14
ENDBRANCH   1  12
BRANCH   6  19
ATOM     19  C   LIG    1       -3.895   2.878  -1.458  0.00  0.00    +0.160 C 
BRANCH  19  20
ATOM     20  N   LIG    1       -2.815   3.873  -1.462  0.00  0.00    -0.510 NA
ATOM     21  C   LIG    1       -2.997   4.854  -0.382  0.00  0.00    +0.160 C 
ATOM     22  C   LIG    1       -1.820   5.834  -0.386  0.00  0.00    +0.240 C 
ATOM     23  O   LIG    1       -1.728   6.455  -1.670  0.00  0.00    -0.390 OA
ATOM     24  C   LIG    1       -1.550   5.529  -2.746  0.00  0.00    +0.220 C 
ATOM     25  C   LIG    1       -2.723   4.546  -2.766  0.00  0.00    +0.140 C 
ENDBRANCH  19  20
ENDBRANCH   6  19
TORSDOF 5
