REMARK  Name = ZINCpe000000ZduB.2
REMARK                            x       y       z     vdW  Elec       q    Type
REMARK                         _______ _______ _______ _____ _____    ______ ____
ROOT
ATOM      1  O   LIG    1       -0.185  -3.186  -2.795  0.00  0.00    -0.530 OA
ATOM      2  C   LIG    1        0.330  -2.489  -3.648  0.00  0.00    +0.580 C 
ATOM      3  N   LIG    1        0.392  -1.153  -3.480  0.00  0.00    -0.710 N 
ATOM      4  H   LIG    1        0.803  -0.597  -4.160  0.00  0.00    +0.400 HD
ENDROOT
BRANCH   2   5
ATOM      5  C   LIG    1        0.886  -3.102  -4.862  0.00  0.00    +0.020 A 
ATOM      6  C   LIG    1        0.884  -4.432  -5.145  0.00  0.00    +0.060 A 
ATOM      7  C   LIG    1        1.510  -4.607  -6.402  0.00  0.00    -0.130 A 
ATOM      8  C   LIG    1        1.789  -5.733  -7.188  0.00  0.00    +0.090 A 
ATOM      9  C   LIG    1        2.421  -5.586  -8.386  0.00  0.00    -0.040 A 
ATOM     10  C   LIG    1        2.794  -4.322  -8.841  0.00  0.00    +0.140 A 
ATOM     11  C   LIG    1        2.529  -3.197  -8.082  0.00  0.00    -0.030 A 
ATOM     12  C   LIG    1        1.886  -3.327  -6.856  0.00  0.00    +0.130 A 
ATOM     13  N   LIG    1        1.490  -2.419  -5.902  0.00  0.00    -0.580 N 
ATOM     14  H   LIG    1        1.615  -1.458  -5.949  0.00  0.00    +0.420 HD
BRANCH  10  15
ATOM     15  O   LIG    1        3.423  -4.194 -10.038  0.00  0.00    -0.500 OA
ATOM     16  H   LIG    1        2.823  -4.071 -10.786  0.00  0.00    +0.390 HD
ENDBRANCH  10  15
ENDBRANCH   2   5
BRANCH   3  17
ATOM     17  C   LIG    1       -0.162  -0.541  -2.269  0.00  0.00    +0.250 C 
BRANCH  17  18
ATOM     18  C   LIG    1       -0.093   0.983  -2.390  0.00  0.00    +0.070 C 
ATOM     19  C   LIG    1        1.357   1.420  -2.659  0.00  0.00    +0.250 C 
ATOM     20  O   LIG    1        2.197   1.117  -1.547  0.00  0.00    -0.380 OA
ATOM     21  C   LIG    1        1.755   1.621  -0.276  0.00  0.00    +0.250 C 
ATOM     22  C   LIG    1        0.353   1.077  -0.040  0.00  0.00    +0.080 C 
ATOM     23  C   LIG    1       -0.320   1.588   1.237  0.00  0.00    +0.050 C 
ATOM     24  C   LIG    1       -1.830   1.694   0.829  0.00  0.00    +0.030 C 
ATOM     25  C   LIG    1       -1.871   1.304  -0.674  0.00  0.00    +0.170 C 
ATOM     26  N   LIG    1       -0.508   1.598  -1.138  0.00  0.00    -0.500 NA
BRANCH  18  27
ATOM     27  C   LIG    1       -0.998   1.455  -3.530  0.00  0.00    +0.200 C 
BRANCH  27  28
ATOM     28  O   LIG    1       -0.553   0.883  -4.761  0.00  0.00    -0.580 OA
ATOM     29  H   LIG    1       -1.083   1.140  -5.528  0.00  0.00    +0.390 HD
ENDBRANCH  27  28
ENDBRANCH  18  27
ENDBRANCH  17  18
ENDBRANCH   3  17
TORSDOF 6
