REMARK  Name = ZINCpe000000ZDub.0
REMARK                            x       y       z     vdW  Elec       q    Type
REMARK                         _______ _______ _______ _____ _____    ______ ____
ROOT
ATOM      1  O   LIG    1        2.782   3.249   0.027  0.00  0.00    -0.520 OA
ATOM      2  C   LIG    1        1.617   2.900   0.056  0.00  0.00    +0.570 C 
ATOM      3  N   LIG    1        1.359   1.595  -0.002  0.00  0.00    -0.710 N 
ATOM      4  H   LIG    1        2.097   0.967  -0.053  0.00  0.00    +0.420 HD
ATOM      5  C   LIG    1       -0.013   1.086   0.008  0.00  0.00    +0.280 C 
ATOM      6  C   LIG    1       -0.727   1.587  -1.218  0.00  0.00    +0.520 C 
ATOM      7  N   LIG    1       -0.947   2.881  -1.423  0.00  0.00    -0.650 N 
ATOM      8  H   LIG    1       -1.382   3.130  -2.254  0.00  0.00    +0.420 HD
ATOM      9  C   LIG    1       -0.609   3.903  -0.554  0.00  0.00    +0.170 A 
ATOM     10  C   LIG    1       -1.531   4.941  -0.398  0.00  0.00    -0.010 A 
ATOM     11  C   LIG    1       -1.262   6.000   0.441  0.00  0.00    +0.070 A 
ATOM     12  C   LIG    1       -0.067   6.047   1.140  0.00  0.00    +0.010 A 
ATOM     13  C   LIG    1        0.853   5.035   1.001  0.00  0.00    +0.100 A 
ATOM     14  O   LIG    1       -1.113   0.786  -2.042  0.00  0.00    -0.500 OA
ATOM     15  C   LIG    1        0.593   3.946   0.152  0.00  0.00    -0.150 A 
ENDROOT
BRANCH   5  16
ATOM     16  C   LIG    1       -0.734   1.582   1.263  0.00  0.00    +0.200 C 
BRANCH  16  17
ATOM     17  C   LIG    1       -0.085   0.984   2.485  0.00  0.00    +0.180 A 
ATOM     18  N   LIG    1        0.911   1.495   3.165  0.00  0.00    -0.430 NA
ATOM     19  C   LIG    1        1.152   0.621   4.168  0.00  0.00    +0.220 A 
ATOM     20  N   LIG    1        0.303  -0.364   4.034  0.00  0.00    -0.360 NA
ATOM     21  O   LIG    1       -0.413  -0.170   3.074  0.00  0.00    +0.100 OA
BRANCH  19  22
ATOM     22  C   LIG    1        2.191   0.751   5.220  0.00  0.00    +0.140 A 
ATOM     23  C   LIG    1        2.325  -0.234   6.196  0.00  0.00    +0.270 A 
ATOM     24  N   LIG    1        3.254  -0.116   7.128  0.00  0.00    -0.430 NA
ATOM     25  C   LIG    1        4.049   0.940   7.140  0.00  0.00    +0.250 A 
ATOM     26  C   LIG    1        3.915   1.924   6.174  0.00  0.00    +0.240 A 
ATOM     27  N   LIG    1        2.993   1.811   5.237  0.00  0.00    -0.400 NA
ENDBRANCH  19  22
ENDBRANCH  16  17
ENDBRANCH   5  16
TORSDOF 3
