REMARK  Name = ZINCrD000000Coai.0
REMARK                            x       y       z     vdW  Elec       q    Type
REMARK                         _______ _______ _______ _____ _____    ______ ____
ROOT
ATOM      1  O   LIG    1       -0.608   1.984  -1.108  0.00  0.00    -0.310 OA
ENDROOT
BRANCH   1   3
ATOM      2  O   LIG    1        0.952   1.119  -2.432  0.00  0.00    -0.500 OA
ATOM      3  C   LIG    1       -0.060   1.783  -2.324  0.00  0.00    +0.530 C 
BRANCH   3   4
ATOM      4  C   LIG    1       -0.687   2.367  -3.519  0.00  0.00    -0.260 A 
ATOM      5  C   LIG    1       -0.144   2.183  -4.784  0.00  0.00    +0.260 A 
ATOM      6  C   LIG    1       -0.794   2.803  -5.882  0.00  0.00    -0.180 A 
ATOM      7  C   LIG    1       -0.433   2.479  -7.198  0.00  0.00    +0.110 A 
ATOM      8  C   LIG    1       -1.109   3.040  -8.244  0.00  0.00    -0.010 A 
ATOM      9  C   LIG    1       -2.144   3.936  -8.016  0.00  0.00    +0.110 A 
ATOM     10  C   LIG    1       -2.500   4.287  -6.730  0.00  0.00    +0.010 A 
ATOM     11  C   LIG    1       -1.822   3.737  -5.651  0.00  0.00    +0.160 A 
ATOM     12  O   LIG    1       -2.144   4.098  -4.386  0.00  0.00    -0.270 OA
ATOM     13  C   LIG    1       -1.915   3.178  -3.423  0.00  0.00    +0.520 A 
ATOM     14  O   LIG    1       -2.699   3.023  -2.505  0.00  0.00    -0.400 OA
ENDBRANCH   3   4
ENDBRANCH   1   3
BRANCH   1  15
ATOM     15  C   LIG    1        0.065   1.377   0.026  0.00  0.00    +0.270 C 
BRANCH  15  16
ATOM     16  C   LIG    1       -0.685   1.707   1.291  0.00  0.00    +0.520 C 
ATOM     17  N   LIG    1       -0.302   1.164   2.463  0.00  0.00    -0.530 N 
ATOM     18  O   LIG    1       -1.635   2.461   1.253  0.00  0.00    -0.480 OA
BRANCH  17  19
ATOM     19  C   LIG    1       -1.063   1.375   3.610  0.00  0.00    +0.120 C 
ATOM     20  C   LIG    1       -0.725   0.737   4.696  0.00  0.00    -0.110 C 
ATOM     21  C   LIG    1       -1.456   0.858   6.001  0.00  0.00    +0.070 C 
ATOM     22  C   LIG    1       -2.340   2.107   5.996  0.00  0.00    +0.010 C 
ATOM     23  C   LIG    1       -3.169   2.111   4.705  0.00  0.00    +0.010 C 
ATOM     24  C   LIG    1       -2.219   2.328   3.523  0.00  0.00    +0.100 C 
ENDBRANCH  17  19
BRANCH  17  25
ATOM     25  C   LIG    1        0.915   0.352   2.531  0.00  0.00    +0.170 C 
ATOM     26  C   LIG    1        1.914   0.668   3.647  0.00  0.00    +0.060 C 
ATOM     27  C   LIG    1        2.242   1.038   2.199  0.00  0.00    +0.030 C 
ENDBRANCH  17  25
ENDBRANCH  15  16
ENDBRANCH   1  15
TORSDOF 6
