REMARK  Name = ZINCpk00000y6wTu.0
REMARK                            x       y       z     vdW  Elec       q    Type
REMARK                         _______ _______ _______ _____ _____    ______ ____
ROOT
ATOM      1  C   LIG    1       -1.187   1.624   0.017  0.00  0.00    +0.500 C 
ATOM      2  N   LIG    1       -0.011   0.966   0.007  0.00  0.00    -0.730 N 
ATOM      3  H   LIG    1        0.002  -0.004   0.002  0.00  0.00    +0.400 HD
ATOM      4  O   LIG    1       -1.204   2.837   0.023  0.00  0.00    -0.500 OA
ENDROOT
BRANCH   2   5
ATOM      5  C   LIG    1        1.248   1.716  -0.001  0.00  0.00    +0.240 C 
ATOM      6  C   LIG    1        1.643   2.068   1.437  0.00  0.00    -0.020 C 
ATOM      7  C   LIG    1        2.997   2.782   1.424  0.00  0.00    +0.220 C 
ATOM      8  O   LIG    1        3.971   1.942   0.802  0.00  0.00    -0.380 OA
ATOM      9  C   LIG    1        3.678   1.617  -0.558  0.00  0.00    +0.270 C 
ATOM     10  C   LIG    1        2.351   0.857  -0.626  0.00  0.00    +0.020 C 
BRANCH   9  11
ATOM     11  C   LIG    1        4.780   0.756  -1.118  0.00  0.00    -0.020 A 
ATOM     12  C   LIG    1        5.124   0.633  -2.415  0.00  0.00    +0.160 A 
ATOM     13  N   LIG    1        6.150  -0.227  -2.493  0.00  0.00    -0.490 NA
ATOM     14  C   LIG    1        6.457  -0.641  -1.294  0.00  0.00    +0.390 A 
ATOM     15  N   LIG    1        5.629  -0.049  -0.406  0.00  0.00    -0.440 N 
ATOM     16  C   LIG    1        5.637  -0.233   1.047  0.00  0.00    +0.320 C 
ENDBRANCH   9  11
ENDBRANCH   2   5
BRANCH   1  17
ATOM     17  C   LIG    1       -2.482   0.853   0.018  0.00  0.00    +0.250 C 
BRANCH  17  20
ATOM     18  C   LIG    1       -4.978   3.743  -0.246  0.00  0.00    +0.090 C 
ATOM     19  C   LIG    1       -3.861   2.850   0.230  0.00  0.00    +0.520 C 
ATOM     20  N   LIG    1       -3.568   1.720  -0.444  0.00  0.00    -0.720 N 
ATOM     21  H   LIG    1       -4.076   1.482  -1.235  0.00  0.00    +0.400 HD
ATOM     22  O   LIG    1       -3.226   3.149   1.218  0.00  0.00    -0.520 OA
ENDBRANCH  17  20
BRANCH  17  23
ATOM     23  C   LIG    1       -2.785   0.369   1.438  0.00  0.00    +0.050 C 
BRANCH  23  24
ATOM     24  C   LIG    1       -4.032  -0.518   1.419  0.00  0.00    -0.010 C 
ATOM     25  C   LIG    1       -5.347   0.265   1.564  0.00  0.00    +0.010 C 
ATOM     26  C   LIG    1       -5.834  -0.875   2.474  0.00  0.00    +0.000 C 
ATOM     27  C   LIG    1       -4.354  -1.157   2.780  0.00  0.00    +0.010 C 
ENDBRANCH  23  24
ENDBRANCH  17  23
ENDBRANCH   1  17
TORSDOF 6
