REMARK  Name = ZINCrD00000l2PJP.0
REMARK                            x       y       z     vdW  Elec       q    Type
REMARK                         _______ _______ _______ _____ _____    ______ ____
ROOT
ATOM      1  N   LIG    1       -6.029  -0.275  -2.708  0.00  0.00    -1.000 NA
ATOM      2  C   LIG    1       -6.507   0.279  -1.433  0.00  0.00    +0.310 C 
ATOM      3  C   LIG    1       -5.792   1.611  -1.178  0.00  0.00    +0.310 C 
ATOM      4  N   LIG    1       -4.348   1.413  -1.367  0.00  0.00    -0.560 N 
ATOM      5  C   LIG    1       -3.869   0.865  -2.644  0.00  0.00    +0.260 C 
ATOM      6  C   LIG    1       -4.585  -0.473  -2.897  0.00  0.00    +0.310 C 
ENDROOT
BRANCH   1   7
ATOM      7  S   LIG    1       -7.098  -0.668  -3.910  0.00  0.00    +2.690 S 
ATOM      8  O   LIG    1       -8.348  -0.902  -3.275  0.00  0.00    -0.940 OA
ATOM      9  O   LIG    1       -6.448  -1.632  -4.726  0.00  0.00    -0.950 OA
BRANCH   7  15
ATOM     10  C   LIG    1       -6.428   1.948  -8.386  0.00  0.00    +0.090 C 
ATOM     11  C   LIG    1       -6.975   1.920  -6.982  0.00  0.00    -0.110 A 
ATOM     12  C   LIG    1       -7.642   3.020  -6.478  0.00  0.00    +0.070 A 
ATOM     13  C   LIG    1       -8.144   2.995  -5.190  0.00  0.00    -0.010 A 
ATOM     14  C   LIG    1       -7.978   1.869  -4.406  0.00  0.00    +0.020 A 
ATOM     15  C   LIG    1       -7.310   0.768  -4.910  0.00  0.00    -0.680 A 
ATOM     16  C   LIG    1       -8.524   1.841  -3.002  0.00  0.00    +0.100 C 
ATOM     17  C   LIG    1       -6.804   0.795  -6.196  0.00  0.00    +0.120 A 
ENDBRANCH   7  15
ENDBRANCH   1   7
BRANCH   4  18
ATOM     18  C   LIG    1       -3.478   1.733  -0.389  0.00  0.00    +0.560 C 
ATOM     19  S   LIG    1       -4.057   2.262   1.133  0.00  0.00    -0.610 S 
BRANCH  18  20
ATOM     20  N   LIG    1       -2.151   1.636  -0.609  0.00  0.00    -0.630 N 
ATOM     21  H   LIG    1       -1.822   1.390  -1.487  0.00  0.00    +0.400 HD
BRANCH  20  22
ATOM     22  C   LIG    1       -1.250   1.892   0.430  0.00  0.00    +0.120 A 
ATOM     23  C   LIG    1       -1.509   1.417   1.709  0.00  0.00    +0.070 A 
ATOM     24  C   LIG    1       -0.619   1.675   2.733  0.00  0.00    +0.010 A 
ATOM     25  C   LIG    1        0.530   2.402   2.486  0.00  0.00    +0.010 A 
ATOM     26  C   LIG    1        0.794   2.872   1.212  0.00  0.00    +0.010 A 
ATOM     27  C   LIG    1       -0.091   2.617   0.183  0.00  0.00    -0.090 A 
ATOM     28  C   LIG    1        0.197   3.130  -1.204  0.00  0.00    +0.090 C 
ENDBRANCH  20  22
ENDBRANCH  18  20
ENDBRANCH   4  18
TORSDOF 5
