REMARK  Name = ZINCkj00000y7LBj.1
REMARK                            x       y       z     vdW  Elec       q    Type
REMARK                         _______ _______ _______ _____ _____    ______ ____
ROOT
ATOM      1  N   LIG    1       -2.747   1.419   2.380  0.00  0.00    -0.380 N 
ATOM      2  C   LIG    1       -3.006   2.850   2.172  0.00  0.00    +0.280 C 
ATOM      3  C   LIG    1       -3.775   3.409   3.371  0.00  0.00    +0.240 C 
ATOM      4  N   LIG    1       -5.043   2.679   3.520  0.00  0.00    -0.530 NA
ATOM      5  C   LIG    1       -4.800   1.242   3.704  0.00  0.00    +0.280 C 
ATOM      6  C   LIG    1       -5.838   3.225   4.628  0.00  0.00    +0.250 C 
ATOM      7  C   LIG    1       -4.022   0.701   2.502  0.00  0.00    +0.300 C 
ATOM      8  H   LIG    1       -2.209   1.295   3.225  0.00  0.00    +0.430 HD
ENDROOT
BRANCH   5   9
ATOM      9  C   LIG    1       -6.117   0.519   3.817  0.00  0.00    +0.160 A 
ATOM     10  N   LIG    1       -6.426  -0.410   4.688  0.00  0.00    -0.450 NA
ATOM     11  C   LIG    1       -7.696  -0.758   4.413  0.00  0.00    +0.180 A 
ATOM     12  N   LIG    1       -8.085  -0.041   3.401  0.00  0.00    -0.360 NA
ATOM     13  C   LIG    1       -8.515  -1.793   5.139  0.00  0.00    +0.220 C 
ATOM     14  O   LIG    1       -7.193   0.700   3.044  0.00  0.00    +0.110 OA
ENDBRANCH   5   9
BRANCH   1  15
ATOM     15  C   LIG    1       -1.992   0.887   1.238  0.00  0.00    +0.290 C 
BRANCH  15  16
ATOM     16  C   LIG    1       -0.613   1.547   1.185  0.00  0.00    +0.160 C 
BRANCH  16  17
ATOM     17  C   LIG    1        0.125   1.087  -0.074  0.00  0.00    -0.020 C 
ATOM     18  C   LIG    1        0.178  -0.441  -0.104  0.00  0.00    +0.030 C 
ATOM     19  C   LIG    1       -0.615   1.596  -1.313  0.00  0.00    +0.030 C 
ENDBRANCH  16  17
BRANCH  16  21
ATOM     20  C   LIG    1        1.055   2.174   2.788  0.00  0.00    +0.230 C 
ATOM     21  O   LIG    1        0.139   1.173   2.341  0.00  0.00    -0.390 OA
ENDBRANCH  16  21
ENDBRANCH  15  16
ENDBRANCH   1  15
TORSDOF 5
