REMARK  Name = ZINCkj00000y7LBj.0
REMARK                            x       y       z     vdW  Elec       q    Type
REMARK                         _______ _______ _______ _____ _____    ______ ____
ROOT
ATOM      1  N   LIG    1        3.482   2.609   1.688  0.00  0.00    -0.390 N 
ATOM      2  C   LIG    1        4.635   2.753   0.788  0.00  0.00    +0.280 C 
ATOM      3  C   LIG    1        4.199   2.463  -0.650  0.00  0.00    +0.230 C 
ATOM      4  N   LIG    1        3.134   3.400  -1.035  0.00  0.00    -0.510 NA
ATOM      5  C   LIG    1        1.984   3.285  -0.128  0.00  0.00    +0.330 C 
ATOM      6  C   LIG    1        2.728   3.190  -2.431  0.00  0.00    +0.240 C 
ATOM      7  C   LIG    1        2.437   3.568   1.306  0.00  0.00    +0.310 C 
ATOM      8  H   LIG    1        3.118   1.670   1.619  0.00  0.00    +0.420 HD
ENDROOT
BRANCH   5   9
ATOM      9  C   LIG    1        1.417   1.891  -0.209  0.00  0.00    +0.090 A 
ATOM     10  N   LIG    1        0.149   1.567  -0.298  0.00  0.00    -0.440 NA
ATOM     11  C   LIG    1        0.121   0.223  -0.345  0.00  0.00    +0.190 A 
ATOM     12  N   LIG    1        1.351  -0.194  -0.285  0.00  0.00    -0.360 NA
ATOM     13  C   LIG    1       -1.109  -0.640  -0.451  0.00  0.00    +0.220 C 
ATOM     14  O   LIG    1        2.110   0.748  -0.206  0.00  0.00    +0.060 OA
ENDBRANCH   5   9
BRANCH   1  15
ATOM     15  C   LIG    1        3.905   2.870   3.070  0.00  0.00    +0.230 C 
BRANCH  15  16
ATOM     16  C   LIG    1        4.883   1.782   3.519  0.00  0.00    +0.160 C 
BRANCH  16  17
ATOM     17  C   LIG    1        4.163   0.432   3.554  0.00  0.00    -0.030 C 
ATOM     18  C   LIG    1        2.993   0.504   4.537  0.00  0.00    +0.040 C 
ATOM     19  C   LIG    1        5.141  -0.655   4.002  0.00  0.00    +0.060 C 
ENDBRANCH  16  17
BRANCH  16  21
ATOM     20  C   LIG    1        6.502   2.972   4.825  0.00  0.00    +0.220 C 
ATOM     21  O   LIG    1        5.375   2.093   4.824  0.00  0.00    -0.350 OA
ENDBRANCH  16  21
ENDBRANCH  15  16
ENDBRANCH   1  15
TORSDOF 5
