REMARK  Name = ZINCqH0000000otG.1
REMARK                            x       y       z     vdW  Elec       q    Type
REMARK                         _______ _______ _______ _____ _____    ______ ____
ROOT
ATOM      1  C   LIG    1        3.413   2.624   1.349  0.00  0.00    +0.010 C 
ATOM      2  C   LIG    1        4.372   1.935   2.322  0.00  0.00    +0.020 C 
ATOM      3  C   LIG    1        5.335   2.974   2.904  0.00  0.00    +0.170 C 
ATOM      4  N   LIG    1        4.570   4.019   3.597  0.00  0.00    -0.530 NA
ATOM      5  C   LIG    1        3.677   4.726   2.671  0.00  0.00    +0.170 C 
ATOM      6  C   LIG    1        2.664   3.740   2.084  0.00  0.00    +0.020 C 
ENDROOT
BRANCH   1  15
ATOM      7  C   LIG    1        0.697   4.218  -1.344  0.00  0.00    +0.070 C 
ATOM      8  C   LIG    1        1.750   3.403  -0.637  0.00  0.00    +0.510 C 
ATOM      9  N   LIG    1        1.403   2.283   0.027  0.00  0.00    -0.600 N 
ATOM     10  C   LIG    1        0.012   1.801  -0.078  0.00  0.00    +0.260 C 
ATOM     11  C   LIG    1       -0.062   0.273  -0.248  0.00  0.00    +0.020 C 
ATOM     12  C   LIG    1        1.022  -0.198  -1.186  0.00  0.00    +0.000 C 
ATOM     13  C   LIG    1        2.264  -0.566  -0.380  0.00  0.00    +0.000 C 
ATOM     14  C   LIG    1        3.147   0.570  -0.074  0.00  0.00    +0.010 C 
ATOM     15  C   LIG    1        2.408   1.603   0.812  0.00  0.00    +0.240 C 
ATOM     16  O   LIG    1        2.910   3.756  -0.666  0.00  0.00    -0.530 OA
ENDBRANCH   1  15
BRANCH   4  17
ATOM     17  C   LIG    1        5.466   4.958   4.284  0.00  0.00    +0.230 C 
BRANCH  17  18
ATOM     18  C   LIG    1        6.191   4.240   5.394  0.00  0.00    -0.080 A 
ATOM     19  C   LIG    1        5.756   4.374   6.700  0.00  0.00    +0.080 A 
ATOM     20  C   LIG    1        6.411   3.716   7.720  0.00  0.00    +0.060 A 
ATOM     21  C   LIG    1        7.523   2.922   7.435  0.00  0.00    +0.000 A 
ATOM     22  C   LIG    1        7.962   2.794   6.115  0.00  0.00    +0.040 A 
ATOM     23  C   LIG    1        7.294   3.454   5.102  0.00  0.00    +0.100 A 
ATOM     24  F   LIG    1        7.717   3.332   3.825  0.00  0.00    -0.130 F 
BRANCH  21  25
ATOM     25  C   LIG    1        8.211   2.241   8.491  0.00  0.00    +0.250 C 
ATOM     26  N   LIG    1        8.757   1.702   9.328  0.00  0.00    -0.400 NA
ENDBRANCH  21  25
ENDBRANCH  17  18
ENDBRANCH   4  17
TORSDOF 4
