REMARK  Name = ZINCpk00001AZiOG.0
REMARK                            x       y       z     vdW  Elec       q    Type
REMARK                         _______ _______ _______ _____ _____    ______ ____
ROOT
ATOM      1  C   LIG    1        1.644  -1.823  -0.023  0.00  0.00    +0.330 C 
ENDROOT
BRANCH   1   8
ATOM      2  C   LIG    1       -1.088  -0.827   0.008  0.00  0.00    -0.100 C 
ATOM      3  C   LIG    1        0.002  -0.004   0.002  0.00  0.00    +0.210 C 
ATOM      4  S   LIG    1       -0.022   1.768   0.012  0.00  0.00    +0.050 S 
ATOM      5  C   LIG    1        1.794   1.935  -0.005  0.00  0.00    +0.110 C 
ATOM      6  C   LIG    1        2.279   0.504  -0.017  0.00  0.00    +0.530 C 
ATOM      7  O   LIG    1        3.455   0.207  -0.029  0.00  0.00    -0.470 OA
ATOM      8  N   LIG    1        1.311  -0.397  -0.013  0.00  0.00    -0.530 N 
BRANCH   2   9
ATOM      9  C   LIG    1       -2.378  -0.281   0.024  0.00  0.00    +0.510 C 
ATOM     10  O   LIG    1       -2.528   0.929   0.032  0.00  0.00    -0.510 OA
BRANCH   9  11
ATOM     11  O   LIG    1       -3.457  -1.094   0.030  0.00  0.00    -0.350 OA
BRANCH  11  13
ATOM     12  C   LIG    1       -5.831  -1.543   0.050  0.00  0.00    +0.070 C 
ATOM     13  C   LIG    1       -4.741  -0.469   0.046  0.00  0.00    +0.200 C 
ENDBRANCH  11  13
ENDBRANCH   9  11
ENDBRANCH   2   9
ENDBRANCH   1   8
BRANCH   1  14
ATOM     14  C   LIG    1        1.744  -2.305  -1.448  0.00  0.00    +0.500 C 
ATOM     15  N   LIG    1        2.042  -3.594  -1.704  0.00  0.00    -0.730 N 
ATOM     16  H   LIG    1        2.192  -4.212  -0.971  0.00  0.00    +0.400 HD
ATOM     17  O   LIG    1        1.556  -1.532  -2.364  0.00  0.00    -0.520 OA
BRANCH  15  18
ATOM     18  C   LIG    1        2.140  -4.062  -3.089  0.00  0.00    +0.260 C 
BRANCH  18  19
ATOM     19  C   LIG    1        2.487  -5.552  -3.100  0.00  0.00    +0.070 C 
BRANCH  19  20
ATOM     20  C   LIG    1        2.587  -6.034  -4.524  0.00  0.00    -0.100 A 
ATOM     21  C   LIG    1        1.468  -6.532  -5.166  0.00  0.00    +0.050 A 
ATOM     22  C   LIG    1        1.558  -6.968  -6.474  0.00  0.00    -0.010 A 
ATOM     23  C   LIG    1        2.772  -6.917  -7.139  0.00  0.00    +0.100 A 
ATOM     24  C   LIG    1        3.893  -6.424  -6.493  0.00  0.00    -0.010 A 
ATOM     25  F   LIG    1        2.862  -7.349  -8.416  0.00  0.00    -0.140 F 
ATOM     26  C   LIG    1        3.800  -5.983  -5.187  0.00  0.00    +0.050 A 
ENDBRANCH  19  20
ENDBRANCH  18  19
ENDBRANCH  15  18
ENDBRANCH   1  14
TORSDOF 8
