REMARK  Name = ZINCvU00000009i4.0
REMARK                            x       y       z     vdW  Elec       q    Type
REMARK                         _______ _______ _______ _____ _____    ______ ____
ROOT
ATOM      1  N   LIG    1       -0.964   2.035  -2.579  0.00  0.00    -0.720 N 
ATOM      2  H   LIG    1       -0.227   1.481  -2.880  0.00  0.00    +0.400 HD
ATOM      3  C   LIG    1       -1.226   2.151  -1.262  0.00  0.00    +0.500 C 
ATOM      4  O   LIG    1       -2.148   2.845  -0.887  0.00  0.00    -0.510 OA
ENDROOT
BRANCH   1   5
ATOM      5  C   LIG    1       -1.792   2.746  -3.557  0.00  0.00    +0.270 C 
BRANCH   5   6
ATOM      6  C   LIG    1       -1.285   2.446  -4.969  0.00  0.00    +0.070 C 
BRANCH   6  14
ATOM      7  C   LIG    1       -3.631   1.172  -6.074  0.00  0.00    +0.090 C 
ATOM      8  C   LIG    1       -3.259   2.568  -6.503  0.00  0.00    -0.070 A 
ATOM      9  C   LIG    1       -4.043   3.241  -7.421  0.00  0.00    +0.000 A 
ATOM     10  C   LIG    1       -3.699   4.519  -7.819  0.00  0.00    -0.060 A 
ATOM     11  C   LIG    1       -2.573   5.126  -7.295  0.00  0.00    +0.000 A 
ATOM     12  C   LIG    1       -1.792   4.456  -6.372  0.00  0.00    -0.070 A 
ATOM     13  C   LIG    1       -0.565   5.118  -5.800  0.00  0.00    +0.090 C 
ATOM     14  C   LIG    1       -2.137   3.177  -5.974  0.00  0.00    -0.090 A 
BRANCH  10  15
ATOM     15  C   LIG    1       -4.550   5.251  -8.824  0.00  0.00    -0.030 C 
ATOM     16  C   LIG    1       -5.084   6.541  -8.198  0.00  0.00    +0.040 C 
ATOM     17  C   LIG    1       -5.724   4.362  -9.241  0.00  0.00    +0.030 C 
ATOM     18  C   LIG    1       -3.707   5.592 -10.055  0.00  0.00    +0.040 C 
ENDBRANCH  10  15
ENDBRANCH   6  14
ENDBRANCH   5   6
ENDBRANCH   1   5
BRANCH   3  19
ATOM     19  C   LIG    1       -0.375   1.420  -0.257  0.00  0.00    +0.370 C 
BRANCH  19  20
ATOM     20  N   LIG    1       -0.860   1.708   1.095  0.00  0.00    -0.480 N 
ATOM     21  C   LIG    1       -1.852   1.055   1.734  0.00  0.00    +0.480 A 
ATOM     22  N   LIG    1       -1.994   1.618   2.951  0.00  0.00    -0.470 N 
ATOM     23  H   LIG    1       -2.632   1.356   3.633  0.00  0.00    +0.470 HD
ATOM     24  N   LIG    1       -1.051   2.650   3.051  0.00  0.00    -0.260 NA
ATOM     25  S   LIG    1       -2.766  -0.252   1.112  0.00  0.00    -0.550 S 
ATOM     26  C   LIG    1       -0.376   2.690   1.936  0.00  0.00    +0.330 A 
BRANCH  26  27
ATOM     27  C   LIG    1        0.721   3.632   1.624  0.00  0.00    -0.040 A 
ATOM     28  C   LIG    1        1.423   4.257   2.655  0.00  0.00    +0.100 A 
ATOM     29  C   LIG    1        2.448   5.130   2.358  0.00  0.00    +0.040 A 
ATOM     30  C   LIG    1        2.775   5.395   1.038  0.00  0.00    -0.010 A 
ATOM     31  C   LIG    1        2.078   4.782   0.011  0.00  0.00    +0.050 A 
ATOM     32 CL   LIG    1        4.061   6.501   0.672  0.00  0.00    -0.050 Cl
ATOM     33  C   LIG    1        1.055   3.903   0.296  0.00  0.00    +0.040 A 
ENDBRANCH  26  27
ENDBRANCH  19  20
ENDBRANCH   3  19
TORSDOF 7
