REMARK  Name = ZINCvU0000000GCK.0
REMARK                            x       y       z     vdW  Elec       q    Type
REMARK                         _______ _______ _______ _____ _____    ______ ____
ROOT
ATOM      1  C   LIG    1       -6.818  -4.714   2.789  0.00  0.00    +0.160 C 
ATOM      2  C   LIG    1       -5.483  -4.997   2.150  0.00  0.00    +0.100 A 
ATOM      3  N   LIG    1       -4.968  -6.183   1.947  0.00  0.00    -0.280 NA
ATOM      4  N   LIG    1       -3.722  -6.024   1.328  0.00  0.00    -0.350 N 
ATOM      5  C   LIG    1       -3.501  -4.690   1.174  0.00  0.00    +0.310 A 
ATOM      6  C   LIG    1       -4.585  -4.037   1.675  0.00  0.00    -0.080 A 
ENDROOT
BRANCH   4   7
ATOM      7  C   LIG    1       -2.855  -7.055   0.939  0.00  0.00    +0.160 A 
ATOM      8  C   LIG    1       -2.087  -6.922  -0.209  0.00  0.00    +0.020 A 
ATOM      9  C   LIG    1       -1.234  -7.940  -0.590  0.00  0.00    +0.060 A 
ATOM     10  C   LIG    1       -1.145  -9.090   0.172  0.00  0.00    +0.070 A 
ATOM     11  C   LIG    1       -1.909  -9.226   1.317  0.00  0.00    -0.160 A 
ATOM     12  C   LIG    1       -2.760  -8.209   1.706  0.00  0.00    +0.090 A 
BRANCH  11  13
ATOM     13  C   LIG    1       -1.809 -10.481   2.145  0.00  0.00    +0.510 C 
ATOM     14  F   LIG    1       -3.062 -11.100   2.206  0.00  0.00    -0.170 F 
ATOM     15  F   LIG    1       -1.386 -10.155   3.438  0.00  0.00    -0.170 F 
ATOM     16  F   LIG    1       -0.887 -11.354   1.558  0.00  0.00    -0.170 F 
ENDBRANCH  11  13
ENDBRANCH   4   7
BRANCH   5  17
ATOM     17  N   LIG    1       -2.374  -4.101   0.602  0.00  0.00    -0.650 N 
ATOM     18  H   LIG    1       -1.651  -4.657   0.272  0.00  0.00    +0.410 HD
ATOM     19  C   LIG    1       -2.289  -2.759   0.507  0.00  0.00    +0.520 C 
ATOM     20  O   LIG    1       -3.194  -2.064   0.920  0.00  0.00    -0.470 OA
BRANCH  19  21
ATOM     21  C   LIG    1       -1.071  -2.122  -0.111  0.00  0.00    +0.190 C 
ATOM     22  C   LIG    1       -0.990  -2.506  -1.589  0.00  0.00    +0.070 C 
BRANCH  21  23
ATOM     23  O   LIG    1       -1.164  -0.701   0.009  0.00  0.00    -0.280 OA
BRANCH  23  24
ATOM     24  C   LIG    1        0.002  -0.004  -0.001  0.00  0.00    +0.130 A 
ATOM     25  C   LIG    1       -0.004   1.365   0.225  0.00  0.00    +0.000 A 
ATOM     26  C   LIG    1        1.183   2.069   0.215  0.00  0.00    +0.060 A 
ATOM     27  C   LIG    1        2.381   1.415  -0.020  0.00  0.00    -0.130 A 
ATOM     28  C   LIG    1        3.795   1.952  -0.083  0.00  0.00    +0.080 C 
ATOM     29  C   LIG    1        4.705   0.714   0.066  0.00  0.00    +0.030 C 
ATOM     30  C   LIG    1        3.810  -0.421  -0.475  0.00  0.00    +0.080 C 
ATOM     31  C   LIG    1        2.390   0.050  -0.245  0.00  0.00    -0.060 A 
ATOM     32  C   LIG    1        1.201  -0.658  -0.236  0.00  0.00    -0.070 A 
ENDBRANCH  23  24
ENDBRANCH  21  23
ENDBRANCH  19  21
ENDBRANCH   5  17
TORSDOF 6
