REMARK  Name = ZINCtV000002qa9l.0
REMARK                            x       y       z     vdW  Elec       q    Type
REMARK                         _______ _______ _______ _____ _____    ______ ____
ROOT
ATOM      1  C   LIG    1       -0.002  -0.005   0.547  0.00  0.00    +0.180 A 
ATOM      2  C   LIG    1        0.022   1.030   1.479  0.00  0.00    +0.030 A 
ATOM      3  C   LIG    1        1.177   1.718   1.722  0.00  0.00    +0.100 A 
ATOM      4  C   LIG    1        2.345   1.384   1.034  0.00  0.00    +0.010 A 
ATOM      5  N   LIG    1        3.615   1.867   1.054  0.00  0.00    -0.460 NA
ATOM      6  C   LIG    1        4.337   1.187   0.199  0.00  0.00    +0.290 A 
ATOM      7  O   LIG    1        3.580   0.249  -0.402  0.00  0.00    -0.210 OA
ATOM      8  C   LIG    1        2.326   0.340   0.093  0.00  0.00    +0.030 A 
ATOM      9  C   LIG    1        1.149  -0.350  -0.145  0.00  0.00    +0.010 A 
ENDROOT
BRANCH   6  10
ATOM     10  C   LIG    1        5.773   1.415  -0.066  0.00  0.00    -0.040 A 
ATOM     11  C   LIG    1        6.448   0.624  -0.997  0.00  0.00    +0.090 A 
ATOM     12  C   LIG    1        7.786   0.844  -1.244  0.00  0.00    -0.010 A 
ATOM     13  C   LIG    1        8.464   1.843  -0.562  0.00  0.00    +0.130 A 
ATOM     14  C   LIG    1        7.800   2.628   0.368  0.00  0.00    -0.010 A 
ATOM     15  F   LIG    1        9.777   2.051  -0.804  0.00  0.00    -0.130 F 
ATOM     16  C   LIG    1        6.461   2.419   0.619  0.00  0.00    +0.120 A 
ENDBRANCH   6  10
BRANCH   1  18
ATOM     17  C   LIG    1       -2.375  -0.060   0.391  0.00  0.00    +0.530 C 
ATOM     18  N   LIG    1       -1.192  -0.701   0.309  0.00  0.00    -0.670 N 
ATOM     19  H   LIG    1       -1.166  -1.645   0.086  0.00  0.00    +0.410 HD
ATOM     20  O   LIG    1       -2.404   1.138   0.578  0.00  0.00    -0.500 OA
BRANCH  17  22
ATOM     21  C   LIG    1       -3.642  -1.620  -1.062  0.00  0.00    +0.070 C 
ATOM     22  C   LIG    1       -3.662  -0.832   0.249  0.00  0.00    -0.040 C 
ATOM     23  C   LIG    1       -3.807  -1.801   1.424  0.00  0.00    +0.070 C 
BRANCH  22  24
ATOM     24  C   LIG    1       -4.825   0.127   0.242  0.00  0.00    -0.060 A 
ATOM     25  C   LIG    1       -5.745   0.104   1.274  0.00  0.00    +0.040 A 
ATOM     26  C   LIG    1       -6.809   0.986   1.270  0.00  0.00    +0.030 A 
ATOM     27  C   LIG    1       -6.959   1.885   0.229  0.00  0.00    -0.030 A 
ATOM     28  C   LIG    1       -6.040   1.903  -0.805  0.00  0.00    +0.020 A 
ATOM     29 CL   LIG    1       -8.299   2.987   0.220  0.00  0.00    -0.070 Cl
ATOM     30  C   LIG    1       -4.973   1.024  -0.798  0.00  0.00    +0.050 A 
ENDBRANCH  22  24
ENDBRANCH  17  22
ENDBRANCH   1  18
TORSDOF 4
