REMARK  Name = ZINCrH000004qeUl.0
REMARK                            x       y       z     vdW  Elec       q    Type
REMARK                         _______ _______ _______ _____ _____    ______ ____
ROOT
ATOM      1  N   LIG    1        2.412   1.910  -0.011  0.00  0.00    -0.640 N 
ATOM      2  H   LIG    1        2.632   0.965  -0.018  0.00  0.00    +0.410 HD
ATOM      3  C   LIG    1        3.397   2.830  -0.015  0.00  0.00    +0.520 C 
ATOM      4  O   LIG    1        3.122   4.012  -0.006  0.00  0.00    -0.520 OA
ENDROOT
BRANCH   3   5
ATOM      5  C   LIG    1        4.838   2.392  -0.031  0.00  0.00    +0.010 C 
ATOM      6  C   LIG    1        5.128   1.546   1.212  0.00  0.00    +0.050 C 
ATOM      7  C   LIG    1        6.507   0.889   1.073  0.00  0.00    +0.130 C 
ATOM      8  C   LIG    1        7.505   1.952   0.691  0.00  0.00    +0.090 A 
ATOM      9  C   LIG    1        7.168   3.172   0.199  0.00  0.00    -0.190 A 
ATOM     10  C   LIG    1        8.343   3.882  -0.035  0.00  0.00    -0.000 A 
ATOM     11  N   LIG    1        9.354   3.118   0.301  0.00  0.00    -0.230 NA
ATOM     12  N   LIG    1        8.845   1.894   0.761  0.00  0.00    -0.440 N 
ATOM     13  H   LIG    1        9.369   1.140   1.075  0.00  0.00    +0.450 HD
ATOM     14  C   LIG    1        5.748   3.627  -0.034  0.00  0.00    +0.150 C 
BRANCH  10  15
ATOM     15  C   LIG    1        8.436   5.284  -0.581  0.00  0.00    +0.550 C 
ATOM     16  F   LIG    1        7.869   6.178   0.333  0.00  0.00    -0.160 F 
ATOM     17  F   LIG    1        7.747   5.358  -1.796  0.00  0.00    -0.160 F 
ATOM     18  F   LIG    1        9.780   5.616  -0.786  0.00  0.00    -0.170 F 
ENDBRANCH  10  15
ENDBRANCH   3   5
BRANCH   1  21
ATOM     19  C   LIG    1        0.002  -0.004   0.002  0.00  0.00    +0.140 C 
ATOM     20  C   LIG    1       -0.018   1.503   0.010  0.00  0.00    +0.050 A 
ATOM     21  C   LIG    1        1.066   2.320   0.004  0.00  0.00    -0.000 A 
ATOM     22  C   LIG    1        0.606   3.645   0.016  0.00  0.00    +0.250 A 
ATOM     23  N   LIG    1       -0.703   3.626   0.028  0.00  0.00    -0.280 NA
ATOM     24  N   LIG    1       -1.125   2.290   0.019  0.00  0.00    -0.360 N 
BRANCH  24  25
ATOM     25  C   LIG    1       -2.514   1.825   0.022  0.00  0.00    +0.260 C 
ATOM     26  C   LIG    1       -3.264   2.395  -1.200  0.00  0.00    +0.020 C 
ATOM     27  C   LIG    1       -4.687   2.695  -0.665  0.00  0.00    +0.020 C 
ATOM     28  C   LIG    1       -4.412   3.222   0.765  0.00  0.00    +0.020 C 
ATOM     29  C   LIG    1       -3.243   2.350   1.271  0.00  0.00    +0.020 C 
ENDBRANCH  24  25
ENDBRANCH   1  21
TORSDOF 4
