REMARK  Name = ZINCpk00000y6vMV.0
REMARK                            x       y       z     vdW  Elec       q    Type
REMARK                         _______ _______ _______ _____ _____    ______ ____
ROOT
ATOM      1  C   LIG    1        0.051   1.611  -0.127  0.00  0.00    +0.260 C 
ATOM      2  C   LIG    1        1.559   1.861  -0.029  0.00  0.00    +0.330 C 
ATOM      3  N   LIG    1        2.182   1.467  -1.302  0.00  0.00    -0.610 N 
ATOM      4  C   LIG    1        1.617   2.005  -2.549  0.00  0.00    +0.290 C 
ATOM      5  C   LIG    1        0.106   1.750  -2.548  0.00  0.00    +0.190 C 
ATOM      6  C   LIG    1        3.242   0.635  -1.325  0.00  0.00    +0.570 C 
ATOM      7  O   LIG    1        3.741   0.257  -0.283  0.00  0.00    -0.510 OA
ATOM      8  N   LIG    1       -0.479   2.295  -1.315  0.00  0.00    -0.530 NA
ATOM      9  C   LIG    1       -1.946   2.225  -1.352  0.00  0.00    +0.200 C 
ENDROOT
BRANCH   1  14
ATOM     10  C   LIG    1       -2.282   2.026   4.285  0.00  0.00    +0.210 C 
ATOM     11  C   LIG    1       -1.615   2.337   2.969  0.00  0.00    +0.170 A 
ATOM     12  N   LIG    1       -1.428   3.518   2.462  0.00  0.00    -0.380 NA
ATOM     13  O   LIG    1       -0.858   3.432   1.395  0.00  0.00    +0.100 OA
ATOM     14  C   LIG    1       -0.629   2.147   1.107  0.00  0.00    +0.190 A 
ATOM     15  N   LIG    1       -1.104   1.442   2.105  0.00  0.00    -0.470 NA
ENDBRANCH   1  14
BRANCH   6  16
ATOM     16  C   LIG    1        3.797   0.184  -2.616  0.00  0.00    -0.160 A 
ATOM     17  C   LIG    1        4.146   1.116  -3.595  0.00  0.00    +0.090 A 
ATOM     18  C   LIG    1        4.669   0.688  -4.796  0.00  0.00    -0.010 A 
ATOM     19  C   LIG    1        4.839  -0.664  -5.042  0.00  0.00    +0.080 A 
ATOM     20  C   LIG    1        4.492  -1.597  -4.085  0.00  0.00    -0.070 A 
ATOM     21  C   LIG    1        3.970  -1.184  -2.868  0.00  0.00    +0.180 A 
BRANCH  21  22
ATOM     22  O   LIG    1        3.630  -2.099  -1.927  0.00  0.00    -0.300 OA
BRANCH  22  23
ATOM     23  C   LIG    1        3.835  -3.475  -2.255  0.00  0.00    +0.380 C 
BRANCH  23  24
ATOM     24  C   LIG    1        3.413  -4.317  -1.124  0.00  0.00    +0.200 C 
ATOM     25  N   LIG    1        3.088  -4.968  -0.251  0.00  0.00    -0.380 NA
ENDBRANCH  23  24
ENDBRANCH  22  23
ENDBRANCH  21  22
ENDBRANCH   6  16
TORSDOF 5
