REMARK  Name = ZINCqH0000000k9U.0
REMARK                            x       y       z     vdW  Elec       q    Type
REMARK                         _______ _______ _______ _____ _____    ______ ____
ROOT
ATOM      1  N   LIG    1       -0.884   3.674   0.030  0.00  0.00    -0.510 N 
ATOM      2  C   LIG    1       -1.124   2.348   0.031  0.00  0.00    +0.570 A 
ATOM      3  C   LIG    1       -0.018   1.447   0.010  0.00  0.00    -0.230 A 
ATOM      4  C   LIG    1        1.266   1.988   0.001  0.00  0.00    +0.090 A 
ATOM      5  S   LIG    1        2.454   0.691  -0.018  0.00  0.00    +0.190 S 
ATOM      6  C   LIG    1        1.206  -0.541  -0.012  0.00  0.00    -0.200 A 
ATOM      7  C   LIG    1        1.476  -2.024  -0.023  0.00  0.00    +0.150 C 
ATOM      8  N   LIG    1        1.426   3.327   0.006  0.00  0.00    -0.510 NA
ATOM      9  C   LIG    1        0.002  -0.004   0.002  0.00  0.00    -0.030 A 
ATOM     10  C   LIG    1       -1.256  -0.833   0.009  0.00  0.00    +0.120 C 
ATOM     11  O   LIG    1       -2.267   1.925   0.045  0.00  0.00    -0.510 OA
ATOM     12  C   LIG    1        0.398   4.141   0.020  0.00  0.00    +0.360 A 
ENDROOT
BRANCH   1  13
ATOM     13  C   LIG    1       -2.005   4.617   0.046  0.00  0.00    +0.340 C 
BRANCH  13  15
ATOM     14  C   LIG    1       -3.641   4.776  -1.759  0.00  0.00    +0.070 C 
ATOM     15  C   LIG    1       -2.403   4.948  -1.370  0.00  0.00    -0.070 C 
ENDBRANCH  13  15
ENDBRANCH   1  13
BRANCH  12  16
ATOM     16  S   LIG    1        0.679   5.880   0.026  0.00  0.00    +0.100 S 
BRANCH  16  17
ATOM     17  C   LIG    1        2.489   5.906   0.009  0.00  0.00    +0.100 C 
BRANCH  17  18
ATOM     18  C   LIG    1        2.971   7.334   0.011  0.00  0.00    +0.530 C 
ATOM     19  N   LIG    1        4.292   7.599   0.000  0.00  0.00    -0.720 N 
ATOM     20  H   LIG    1        4.933   6.871  -0.009  0.00  0.00    +0.410 HD
ATOM     21  O   LIG    1        2.170   8.245   0.024  0.00  0.00    -0.520 OA
BRANCH  19  22
ATOM     22  C   LIG    1        4.761   8.987   0.003  0.00  0.00    +0.370 C 
BRANCH  22  23
ATOM     23  C   LIG    1        6.268   9.009  -0.011  0.00  0.00    -0.220 A 
ATOM     24  C   LIG    1        7.026   9.025  -1.108  0.00  0.00    +0.030 A 
ATOM     25  C   LIG    1        8.390   9.044  -0.874  0.00  0.00    +0.000 A 
ATOM     26  C   LIG    1        8.739   9.043   0.414  0.00  0.00    -0.030 A 
ATOM     27  S   LIG    1        7.295   9.024   1.417  0.00  0.00    +0.120 S 
ENDBRANCH  22  23
ENDBRANCH  19  22
ENDBRANCH  17  18
ENDBRANCH  16  17
ENDBRANCH  12  16
TORSDOF 7
