REMARK  Name = ZINC5e0000002l8u.1
REMARK                            x       y       z     vdW  Elec       q    Type
REMARK                         _______ _______ _______ _____ _____    ______ ____
ROOT
ATOM      1  C   LIG    1       -1.177   3.223   0.025  0.00  0.00    +0.240 C 
ENDROOT
BRANCH   1   3
ATOM      2  C   LIG    1       -0.013   1.076   0.008  0.00  0.00    +0.100 C 
ATOM      3  C   LIG    1       -1.157   1.716   0.017  0.00  0.00    -0.120 C 
ATOM      4 BR   LIG    1       -2.782   0.748   0.019  0.00  0.00    -0.050 Br
ENDBRANCH   1   3
BRANCH   1   5
ATOM      5  N   LIG    1       -1.775   3.711  -1.225  0.00  0.00    -0.840 NA
ATOM      6  H   LIG    1       -1.284   3.347  -2.027  0.00  0.00    +0.340 HD
ATOM      7  H   LIG    1       -1.800   4.720  -1.243  0.00  0.00    +0.350 HD
ENDBRANCH   1   5
TORSDOF 2
