REMARK  Name = ZINC5e0000002l8u.0
REMARK                            x       y       z     vdW  Elec       q    Type
REMARK                         _______ _______ _______ _____ _____    ______ ____
ROOT
ATOM      1  C   LIG    1       -1.339   2.622   0.023  0.00  0.00    +0.350 C 
ENDROOT
BRANCH   1   2
ATOM      2  N   LIG    1       -2.058   2.357  -1.231  0.00  0.00    -0.640 N 
ATOM      3  H   LIG    1       -2.938   2.850  -1.224  0.00  0.00    +0.440 HD
ATOM      4  H   LIG    1       -2.227   1.367  -1.318  0.00  0.00    +0.440 HD
ATOM      5  H   LIG    1       -1.502   2.674  -2.011  0.00  0.00    +0.440 HD
ENDBRANCH   1   2
BRANCH   1   7
ATOM      6  C   LIG    1        1.103   2.558   0.005  0.00  0.00    +0.230 C 
ATOM      7  C   LIG    1       -0.024   1.887   0.012  0.00  0.00    -0.230 C 
ATOM      8 BR   LIG    1        0.002  -0.004   0.002  0.00  0.00    -0.020 Br
ENDBRANCH   1   7
TORSDOF 2
