REMARK  Name = ZINCqH0000032XJu.0
REMARK                            x       y       z     vdW  Elec       q    Type
REMARK                         _______ _______ _______ _____ _____    ______ ____
ROOT
ATOM      1  N   LIG    1        1.196  -0.629   0.020  0.00  0.00    -0.360 N 
ATOM      2  N   LIG    1        2.317  -0.013   0.003  0.00  0.00    -0.190 NA
ATOM      3  C   LIG    1        2.443   1.292   0.004  0.00  0.00    +0.050 A 
ATOM      4  C   LIG    1        1.232   2.130   0.028  0.00  0.00    -0.030 A 
ATOM      5  C   LIG    1        1.278   3.519   0.032  0.00  0.00    +0.070 A 
ATOM      6  C   LIG    1        0.100   4.235   0.055  0.00  0.00    +0.060 A 
ATOM      7  C   LIG    1       -1.127   3.585   0.074  0.00  0.00    +0.030 A 
ATOM      8  C   LIG    1       -1.194   2.207   0.076  0.00  0.00    +0.090 A 
ATOM      9  C   LIG    1       -0.017   1.467   0.048  0.00  0.00    -0.140 A 
ATOM     10  C   LIG    1        0.002  -0.002   0.043  0.00  0.00    +0.520 A 
ATOM     11  O   LIG    1       -1.035  -0.639   0.059  0.00  0.00    -0.490 OA
ENDROOT
BRANCH   3  12
ATOM     12  C   LIG    1        3.781   1.914  -0.016  0.00  0.00    +0.600 C 
ATOM     13  N   LIG    1        4.884   1.139  -0.037  0.00  0.00    -0.650 N 
ATOM     14  H   LIG    1        4.800   0.175   0.027  0.00  0.00    +0.430 HD
ATOM     15  O   LIG    1        3.889   3.125  -0.015  0.00  0.00    -0.500 OA
BRANCH  13  16
ATOM     16  C   LIG    1        6.149   1.726  -0.151  0.00  0.00    +0.140 A 
ATOM     17  C   LIG    1        6.402   2.954   0.444  0.00  0.00    +0.030 A 
ATOM     18  C   LIG    1        7.656   3.529   0.334  0.00  0.00    +0.110 A 
ATOM     19  C   LIG    1        8.654   2.886  -0.378  0.00  0.00    +0.010 A 
ATOM     20  C   LIG    1        8.403   1.665  -0.977  0.00  0.00    +0.050 A 
ATOM     21  F   LIG    1        7.905   4.721   0.918  0.00  0.00    -0.130 F 
ATOM     22  C   LIG    1        7.154   1.083  -0.867  0.00  0.00    +0.070 A 
ATOM     23  F   LIG    1        6.909  -0.110  -1.452  0.00  0.00    -0.130 F 
ENDBRANCH  13  16
ENDBRANCH   3  12
BRANCH   1  24
ATOM     24  C   LIG    1        1.210  -2.094   0.016  0.00  0.00    +0.320 C 
BRANCH  24  25
ATOM     25  C   LIG    1        1.190  -2.600  -1.428  0.00  0.00    +0.000 C 
BRANCH  25  27
ATOM     26  C   LIG    1        1.184  -4.636  -2.876  0.00  0.00    +0.020 C 
ATOM     27  C   LIG    1        1.204  -4.130  -1.432  0.00  0.00    +0.020 C 
ENDBRANCH  25  27
ENDBRANCH  24  25
ENDBRANCH   1  24
TORSDOF 5
