REMARK  Name = ZINCtV00000L6jDh.0
REMARK                            x       y       z     vdW  Elec       q    Type
REMARK                         _______ _______ _______ _____ _____    ______ ____
ROOT
ATOM      1  C   LIG    1       -0.875   3.103  -2.035  0.00  0.00    +0.060 A 
ATOM      2  C   LIG    1       -0.957   1.909  -1.397  0.00  0.00    -0.540 A 
ATOM      3  N   LIG    1       -1.877   1.168  -2.032  0.00  0.00    -0.370 NA
ATOM      4  C   LIG    1       -2.367   1.869  -3.030  0.00  0.00    +0.270 A 
ATOM      5  O   LIG    1       -1.758   3.071  -3.054  0.00  0.00    -0.170 OA
ENDROOT
BRANCH   4   6
ATOM      6  C   LIG    1       -3.402   1.414  -3.969  0.00  0.00    +0.040 A 
ATOM      7  C   LIG    1       -3.915   2.135  -5.007  0.00  0.00    +0.020 A 
ATOM      8  C   LIG    1       -4.870   1.315  -5.636  0.00  0.00    -0.060 A 
ATOM      9  C   LIG    1       -4.902   0.151  -4.957  0.00  0.00    +0.220 A 
ATOM     10  O   LIG    1       -4.015   0.214  -3.951  0.00  0.00    -0.140 OA
ENDBRANCH   4   6
BRANCH   2  11
ATOM     11  S   LIG    1       -0.017   1.417   0.010  0.00  0.00    +2.610 S 
ATOM     12  O   LIG    1        1.162   2.210   0.003  0.00  0.00    -0.910 OA
ATOM     13  O   LIG    1        0.002  -0.004   0.002  0.00  0.00    -0.910 OA
BRANCH  11  14
ATOM     14  C   LIG    1       -0.930   1.894   1.440  0.00  0.00    -0.660 A 
ATOM     15  C   LIG    1       -0.728   3.140   2.004  0.00  0.00    +0.140 A 
ATOM     16  C   LIG    1       -1.447   3.517   3.123  0.00  0.00    +0.020 A 
ATOM     17  C   LIG    1       -2.361   2.643   3.684  0.00  0.00    +0.020 A 
ATOM     18  C   LIG    1       -2.558   1.394   3.122  0.00  0.00    +0.020 A 
ATOM     19 CL   LIG    1       -3.258   3.112   5.094  0.00  0.00    -0.050 Cl
ATOM     20  C   LIG    1       -1.843   1.021   2.000  0.00  0.00    +0.160 A 
ENDBRANCH  11  14
ENDBRANCH   2  11
BRANCH   1  21
ATOM     21  S   LIG    1        0.187   4.444  -1.612  0.00  0.00    +0.080 S 
BRANCH  21  22
ATOM     22  C   LIG    1       -0.220   5.696  -2.860  0.00  0.00    +0.120 C 
BRANCH  22  27
ATOM     23  C   LIG    1        2.999  10.413  -1.979  0.00  0.00    +0.090 C 
ATOM     24  C   LIG    1        2.160   9.183  -2.209  0.00  0.00    -0.070 A 
ATOM     25  C   LIG    1        2.622   8.175  -3.034  0.00  0.00    +0.010 A 
ATOM     26  C   LIG    1        1.852   7.047  -3.245  0.00  0.00    +0.040 A 
ATOM     27  C   LIG    1        0.620   6.926  -2.630  0.00  0.00    -0.100 A 
ATOM     28  C   LIG    1        0.155   7.936  -1.808  0.00  0.00    +0.040 A 
ATOM     29  C   LIG    1        0.928   9.063  -1.594  0.00  0.00    +0.010 A 
ENDBRANCH  22  27
ENDBRANCH  21  22
ENDBRANCH   1  21
TORSDOF 6
