REMARK  Name = ZINCpk000000nkT1.0
REMARK                            x       y       z     vdW  Elec       q    Type
REMARK                         _______ _______ _______ _____ _____    ______ ____
ROOT
ATOM      1  C   LIG    1       -2.517   6.729  -0.297  0.00  0.00    +0.520 C 
ATOM      2  O   LIG    1       -2.481   7.943  -0.290  0.00  0.00    -0.490 OA
ENDROOT
BRANCH   1   6
ATOM      3  C   LIG    1        1.080   4.495   0.017  0.00  0.00    +0.030 A 
ATOM      4  C   LIG    1       -0.131   3.837  -0.096  0.00  0.00    +0.020 A 
ATOM      5  C   LIG    1       -1.304   4.556  -0.194  0.00  0.00    +0.150 A 
ATOM      6  C   LIG    1       -1.266   5.952  -0.186  0.00  0.00    -0.130 A 
ATOM      7  C   LIG    1       -0.040   6.610  -0.066  0.00  0.00    +0.180 A 
ATOM      8  C   LIG    1        1.125   5.878   0.033  0.00  0.00    -0.050 A 
BRANCH   3  10
ATOM      9  C   LIG    1        2.027   2.210   0.197  0.00  0.00    +0.040 C 
ATOM     10  C   LIG    1        2.357   3.702   0.124  0.00  0.00    -0.040 C 
ATOM     11  C   LIG    1        3.113   4.120   1.387  0.00  0.00    +0.050 C 
ATOM     12  C   LIG    1        3.229   3.971  -1.104  0.00  0.00    +0.060 C 
ENDBRANCH   3  10
BRANCH   8  13
ATOM     13  N   LIG    1        2.426   6.574   0.154  0.00  0.00    +0.020 N 
ATOM     14  O   LIG    1        3.463   5.937   0.112  0.00  0.00    -0.120 OA
ATOM     15  O   LIG    1        2.459   7.783   0.296  0.00  0.00    -0.170 OA
ENDBRANCH   8  13
ENDBRANCH   1   6
BRANCH   1  16
ATOM     16  O   LIG    1       -3.699   6.091  -0.408  0.00  0.00    -0.340 OA
BRANCH  16  17
ATOM     17  C   LIG    1       -4.887   6.919  -0.513  0.00  0.00    +0.360 C 
BRANCH  17  18
ATOM     18  C   LIG    1       -6.104   6.037  -0.628  0.00  0.00    +0.430 A 
ATOM     19  N   LIG    1       -6.536   5.661  -1.819  0.00  0.00    -0.620 NA
ATOM     20  C   LIG    1       -7.608   4.879  -1.924  0.00  0.00    +0.630 A 
ATOM     21  N   LIG    1       -8.250   4.485  -0.830  0.00  0.00    -0.650 NA
ATOM     22  C   LIG    1       -7.817   4.870   0.366  0.00  0.00    +0.630 A 
ATOM     23  N   LIG    1       -6.741   5.648   0.463  0.00  0.00    -0.620 NA
BRANCH  22  24
ATOM     24  N   LIG    1       -8.480   4.463   1.505  0.00  0.00    -0.800 N 
ATOM     25  H   LIG    1       -9.264   3.897   1.434  0.00  0.00    +0.420 HD
ATOM     26  H   LIG    1       -8.163   4.745   2.378  0.00  0.00    +0.420 HD
ENDBRANCH  22  24
BRANCH  20  27
ATOM     27  N   LIG    1       -8.054   4.481  -3.168  0.00  0.00    -0.800 N 
ATOM     28  H   LIG    1       -7.584   4.769  -3.966  0.00  0.00    +0.420 HD
ATOM     29  H   LIG    1       -8.837   3.914  -3.244  0.00  0.00    +0.420 HD
ENDBRANCH  20  27
ENDBRANCH  17  18
ENDBRANCH  16  17
ENDBRANCH   1  16
TORSDOF 8
