REMARK  Name = ZINCtV00000L6l4C.0
REMARK                            x       y       z     vdW  Elec       q    Type
REMARK                         _______ _______ _______ _____ _____    ______ ____
ROOT
ATOM      1  C   LIG    1        2.548   1.609  -0.014  0.00  0.00    +0.360 C 
ATOM      2  C   LIG    1        3.406   2.862  -0.016  0.00  0.00    -0.100 C 
ATOM      3  C   LIG    1        2.771   4.048  -0.004  0.00  0.00    +0.200 C 
ATOM      4  N   LIG    1        1.417   4.138   0.010  0.00  0.00    -0.560 NA
ATOM      5  C   LIG    1        0.606   3.107   0.013  0.00  0.00    +0.570 A 
ATOM      6  N   LIG    1       -0.742   3.017   0.025  0.00  0.00    -0.450 NA
ATOM      7  C   LIG    1       -1.113   1.766   0.016  0.00  0.00    +0.310 A 
ATOM      8  N   LIG    1       -0.011   0.966   0.007  0.00  0.00    -0.450 N 
ATOM      9  H   LIG    1        0.002  -0.004   0.002  0.00  0.00    +0.460 HD
ATOM     10  N   LIG    1        1.097   1.817   0.001  0.00  0.00    -0.440 N 
ENDROOT
BRANCH   3  11
ATOM     11  C   LIG    1        3.575   5.295  -0.005  0.00  0.00    -0.030 A 
ATOM     12  C   LIG    1        4.967   5.230  -0.014  0.00  0.00    +0.040 A 
ATOM     13  C   LIG    1        5.710   6.393  -0.021  0.00  0.00    +0.050 A 
ATOM     14  C   LIG    1        5.075   7.622  -0.008  0.00  0.00    -0.080 A 
ATOM     15  C   LIG    1        3.692   7.693   0.005  0.00  0.00    +0.040 A 
ATOM     16 BR   LIG    1        6.099   9.212  -0.010  0.00  0.00    -0.050 Br
ATOM     17  C   LIG    1        2.940   6.536   0.007  0.00  0.00    +0.080 A 
ENDBRANCH   3  11
BRANCH   1  21
ATOM     18  C   LIG    1        3.595  -0.712   3.415  0.00  0.00    -0.060 A 
ATOM     19  C   LIG    1        4.210  -0.956   2.202  0.00  0.00    +0.020 A 
ATOM     20  C   LIG    1        3.871  -0.204   1.092  0.00  0.00    +0.030 A 
ATOM     21  C   LIG    1        2.917   0.790   1.196  0.00  0.00    -0.130 A 
ATOM     22  C   LIG    1        2.305   1.037   2.411  0.00  0.00    +0.020 A 
ATOM     23  C   LIG    1        2.641   0.283   3.519  0.00  0.00    +0.010 A 
BRANCH  18  25
ATOM     24  C   LIG    1        4.508  -0.610   5.719  0.00  0.00    +0.030 C 
ATOM     25  C   LIG    1        3.964  -1.532   4.625  0.00  0.00    +0.020 C 
ATOM     26  C   LIG    1        2.723  -2.262   5.144  0.00  0.00    +0.030 C 
ENDBRANCH  18  25
ENDBRANCH   1  21
BRANCH   7  27
ATOM     27  C   LIG    1       -2.540   1.282   0.019  0.00  0.00    +0.560 C 
ATOM     28  F   LIG    1       -2.765   0.501   1.158  0.00  0.00    -0.150 F 
ATOM     29  F   LIG    1       -2.774   0.513  -1.126  0.00  0.00    -0.150 F 
ATOM     30  F   LIG    1       -3.405   2.381   0.029  0.00  0.00    -0.130 F 
ENDBRANCH   7  27
TORSDOF 4
