REMARK  Name = ZINCvU00000006Fj.0
REMARK                            x       y       z     vdW  Elec       q    Type
REMARK                         _______ _______ _______ _____ _____    ______ ____
ROOT
ATOM      1  N   LIG    1        3.631  -0.629  -0.016  0.00  0.00    -0.470 N 
ATOM      2  C   LIG    1        3.660  -1.976  -0.064  0.00  0.00    +0.520 C 
ATOM      3  O   LIG    1        2.624  -2.605  -0.043  0.00  0.00    -0.440 OA
ENDROOT
BRANCH   1   4
ATOM      4  C   LIG    1        4.816   0.087   0.075  0.00  0.00    +0.320 A 
ATOM      5  N   LIG    1        4.893   1.361   0.251  0.00  0.00    -0.470 NA
ATOM      6  C   LIG    1        6.119   1.914   0.323  0.00  0.00    +0.110 A 
ATOM      7  C   LIG    1        6.467   3.269   0.512  0.00  0.00    +0.070 A 
ATOM      8  C   LIG    1        7.785   3.648   0.553  0.00  0.00    +0.040 A 
ATOM      9  C   LIG    1        8.796   2.709   0.410  0.00  0.00    +0.040 A 
ATOM     10  C   LIG    1        8.480   1.381   0.225  0.00  0.00    +0.060 A 
ATOM     11  C   LIG    1        7.148   0.978   0.180  0.00  0.00    -0.190 A 
ATOM     12  S   LIG    1        6.424  -0.614  -0.039  0.00  0.00    +0.070 S 
ENDBRANCH   1   4
BRANCH   1  16
ATOM     13  C   LIG    1       -0.011   1.381  -0.141  0.00  0.00    -0.160 A 
ATOM     14  C   LIG    1        0.367   0.546  -1.200  0.00  0.00    +0.090 A 
ATOM     15  C   LIG    1        1.567  -0.115  -1.154  0.00  0.00    +0.020 A 
ATOM     16  C   LIG    1        2.410   0.045  -0.058  0.00  0.00    +0.160 A 
ATOM     17  C   LIG    1        2.038   0.873   0.997  0.00  0.00    +0.030 A 
ATOM     18  C   LIG    1        0.840   1.538   0.960  0.00  0.00    +0.090 A 
BRANCH  13  20
ATOM     19  C   LIG    1       -2.155   2.019  -1.422  0.00  0.00    +0.080 C 
ATOM     20  C   LIG    1       -1.299   2.086  -0.183  0.00  0.00    +0.400 C 
ATOM     21  O   LIG    1       -1.674   2.721   0.780  0.00  0.00    -0.450 OA
ENDBRANCH  13  20
ENDBRANCH   1  16
BRANCH   2  22
ATOM     22  C   LIG    1        4.980  -2.699  -0.143  0.00  0.00    +0.260 C 
BRANCH  22  23
ATOM     23  O   LIG    1        4.749  -4.109  -0.183  0.00  0.00    -0.270 OA
BRANCH  23  24
ATOM     24  C   LIG    1        5.842  -4.910  -0.256  0.00  0.00    +0.170 A 
ATOM     25  C   LIG    1        7.111  -4.355  -0.288  0.00  0.00    -0.080 A 
ATOM     26  C   LIG    1        8.223  -5.172  -0.362  0.00  0.00    +0.090 A 
ATOM     27  C   LIG    1        8.079  -6.548  -0.404  0.00  0.00    -0.010 A 
ATOM     28  C   LIG    1        6.824  -7.118  -0.372  0.00  0.00    +0.110 A 
ATOM     29  C   LIG    1        5.692  -6.303  -0.292  0.00  0.00    -0.050 A 
BRANCH  29  30
ATOM     30  C   LIG    1        4.385  -6.888  -0.253  0.00  0.00    +0.250 C 
ATOM     31  N   LIG    1        3.349  -7.352  -0.221  0.00  0.00    -0.400 NA
ENDBRANCH  29  30
ENDBRANCH  23  24
ENDBRANCH  22  23
ENDBRANCH   2  22
TORSDOF 7
