REMARK  Name = ZINCpe00000byhqO.0
REMARK                            x       y       z     vdW  Elec       q    Type
REMARK                         _______ _______ _______ _____ _____    ______ ____
ROOT
ATOM      1  C   LIG    1        1.435   1.843  -0.222  0.00  0.00    +0.080 C 
ATOM      2  C   LIG    1        1.582   1.865   1.300  0.00  0.00    +0.060 C 
ATOM      3  C   LIG    1        1.862   3.130   0.486  0.00  0.00    +0.040 C 
ENDROOT
BRANCH   1   5
ATOM      4  C   LIG    1        2.366  -0.212  -1.143  0.00  0.00    +0.600 C 
ATOM      5  N   LIG    1        2.455   1.124  -0.991  0.00  0.00    -0.700 N 
ATOM      6  H   LIG    1        3.194   1.610  -1.389  0.00  0.00    +0.390 HD
ATOM      7  O   LIG    1        1.398  -0.811  -0.712  0.00  0.00    -0.500 OA
BRANCH   4   9
ATOM      8  C   LIG    1        3.447  -2.274  -2.145  0.00  0.00    +0.110 A 
ATOM      9  C   LIG    1        3.437  -0.945  -1.829  0.00  0.00    -0.100 A 
ATOM     10  N   LIG    1        4.633  -0.427  -2.288  0.00  0.00    -0.560 N 
ATOM     11  H   LIG    1        4.926   0.494  -2.219  0.00  0.00    +0.420 HD
ATOM     12  C   LIG    1        5.313  -1.444  -2.847  0.00  0.00    +0.450 A 
ATOM     13  N   LIG    1        4.600  -2.537  -2.761  0.00  0.00    -0.500 NA
BRANCH   8  15
ATOM     14  C   LIG    1        1.412  -3.360  -3.054  0.00  0.00    +0.020 C 
ATOM     15  C   LIG    1        2.352  -3.266  -1.851  0.00  0.00    +0.120 C 
ENDBRANCH   8  15
ENDBRANCH   4   9
ENDBRANCH   1   5
BRANCH   1  16
ATOM     16  C   LIG    1        0.018   1.788  -0.795  0.00  0.00    +0.330 C 
BRANCH  16  17
ATOM     17  N   LIG    1       -0.109   2.764  -1.880  0.00  0.00    -0.730 N 
ATOM     18  H   LIG    1        0.626   3.364  -2.081  0.00  0.00    +0.390 HD
ATOM     19  C   LIG    1       -1.247   2.827  -2.600  0.00  0.00    +0.600 C 
ATOM     20  O   LIG    1       -2.201   2.139  -2.291  0.00  0.00    -0.520 OA
BRANCH  19  21
ATOM     21  C   LIG    1       -1.334   3.726  -3.757  0.00  0.00    -0.080 A 
ATOM     22  C   LIG    1       -2.375   3.833  -4.634  0.00  0.00    +0.270 A 
ATOM     23  N   LIG    1       -2.055   4.761  -5.534  0.00  0.00    -0.480 NA
ATOM     24  C   LIG    1       -0.863   5.244  -5.270  0.00  0.00    +0.220 A 
ATOM     25  C   LIG    1        0.142   6.255  -5.788  0.00  0.00    +0.160 C 
ATOM     26  C   LIG    1        1.467   5.862  -5.096  0.00  0.00    +0.070 C 
ATOM     27  C   LIG    1        0.957   5.143  -3.829  0.00  0.00    +0.280 C 
ATOM     28  N   LIG    1       -0.380   4.639  -4.173  0.00  0.00    -0.470 N 
ENDBRANCH  19  21
ENDBRANCH  16  17
ENDBRANCH   1  16
TORSDOF 6
