REMARK  Name = ZINCpe00000gMPnA.0
REMARK                            x       y       z     vdW  Elec       q    Type
REMARK                         _______ _______ _______ _____ _____    ______ ____
ROOT
ATOM      1  N   LIG    1       -1.202   1.849   0.023  0.00  0.00    -0.740 N 
ATOM      2  H   LIG    1       -1.234   2.816  -0.042  0.00  0.00    +0.390 HD
ATOM      3  C   LIG    1       -0.014   1.212   0.009  0.00  0.00    +0.710 C 
ATOM      4  N   LIG    1        1.131   1.922  -0.001  0.00  0.00    -0.630 N 
ATOM      5  C   LIG    1        2.436   1.251   0.098  0.00  0.00    +0.330 C 
ATOM      6  C   LIG    1        3.326   1.757  -1.048  0.00  0.00    +0.210 C 
ATOM      7  N   LIG    1        3.379   3.224  -1.010  0.00  0.00    -0.460 N 
ATOM      8  C   LIG    1        2.051   3.811  -1.237  0.00  0.00    +0.220 C 
ATOM      9  C   LIG    1        1.109   3.389  -0.105  0.00  0.00    +0.280 C 
ATOM     10  O   LIG    1        0.024  -0.004  -0.001  0.00  0.00    -0.590 OA
ENDROOT
BRANCH   7  11
ATOM     11  C   LIG    1        4.299   3.712  -1.921  0.00  0.00    +0.490 A 
ATOM     12  N   LIG    1        3.904   4.587  -2.834  0.00  0.00    -0.550 NA
ATOM     13  C   LIG    1        4.760   5.077  -3.716  0.00  0.00    +0.340 A 
ATOM     14  C   LIG    1        6.080   4.655  -3.683  0.00  0.00    -0.110 A 
ATOM     15  C   LIG    1        6.458   3.735  -2.718  0.00  0.00    +0.350 A 
ATOM     16  N   LIG    1        5.553   3.289  -1.863  0.00  0.00    -0.530 NA
ENDBRANCH   7  11
BRANCH   1  17
ATOM     17  C   LIG    1       -2.444   1.080   0.138  0.00  0.00    +0.360 C 
BRANCH  17  22
ATOM     18  C   LIG    1       -6.931   4.689   0.165  0.00  0.00    +0.150 C 
ATOM     19  C   LIG    1       -5.758   3.744   0.152  0.00  0.00    +0.180 A 
ATOM     20  C   LIG    1       -5.370   3.174  -1.013  0.00  0.00    -0.090 A 
ATOM     21  C   LIG    1       -4.276   2.297  -1.033  0.00  0.00    +0.050 A 
ATOM     22  C   LIG    1       -3.620   2.022   0.131  0.00  0.00    -0.260 A 
ATOM     23  C   LIG    1       -4.049   2.632   1.323  0.00  0.00    +0.530 A 
ATOM     24  O   LIG    1       -3.468   2.398   2.370  0.00  0.00    -0.540 OA
ATOM     25  C   LIG    1       -3.833   1.661  -2.325  0.00  0.00    +0.120 C 
ATOM     26  N   LIG    1       -5.100   3.473   1.309  0.00  0.00    -0.610 N 
ATOM     27  H   LIG    1       -5.391   3.890   2.135  0.00  0.00    +0.410 HD
ENDBRANCH  17  22
ENDBRANCH   1  17
TORSDOF 3
