REMARK  Name = ZINCpe000000TC0h.0
REMARK                            x       y       z     vdW  Elec       q    Type
REMARK                         _______ _______ _______ _____ _____    ______ ____
ROOT
ATOM      1  C   LIG    1        5.774  -1.931   0.700  0.00  0.00    -0.470 C 
ATOM      2  C   LIG    1        6.066  -0.478   0.243  0.00  0.00    +0.100 C 
ATOM      3  C   LIG    1        4.687   0.205   0.354  0.00  0.00    +0.260 C 
ATOM      4  N   LIG    1        3.670  -0.855   0.307  0.00  0.00    -0.630 N 
ATOM      5  C   LIG    1        2.338  -0.670   0.397  0.00  0.00    +0.730 C 
ATOM      6  N   LIG    1        1.839   0.572   0.550  0.00  0.00    -0.660 N 
ATOM      7  H   LIG    1        2.438   1.333   0.596  0.00  0.00    +0.410 HD
ATOM      8  O   LIG    1        1.587  -1.625   0.341  0.00  0.00    -0.540 OA
ATOM      9  C   LIG    1        4.348  -2.153   0.139  0.00  0.00    +0.330 C 
ENDROOT
BRANCH   6  10
ATOM     10  C   LIG    1        0.460   0.763   0.644  0.00  0.00    +0.320 A 
ATOM     11  C   LIG    1       -0.492  -0.209   0.597  0.00  0.00    -0.070 A 
ATOM     12  C   LIG    1       -1.740   0.408   0.721  0.00  0.00    +0.090 A 
ATOM     13  N   LIG    1       -1.551   1.696   0.847  0.00  0.00    -0.280 NA
ATOM     14  N   LIG    1       -0.174   1.948   0.798  0.00  0.00    -0.390 N 
ATOM     15  C   LIG    1        0.466   3.262   0.897  0.00  0.00    +0.360 C 
BRANCH  12  16
ATOM     16  C   LIG    1       -3.074  -0.292   0.714  0.00  0.00    +0.250 C 
ATOM     17  C   LIG    1       -3.877   0.068   1.984  0.00  0.00    +0.020 C 
ATOM     18  C   LIG    1       -4.602  -1.245   2.355  0.00  0.00    +0.000 C 
ATOM     19  C   LIG    1       -4.151  -2.243   1.266  0.00  0.00    +0.200 C 
ATOM     20  O   LIG    1       -2.892  -1.723   0.786  0.00  0.00    -0.360 OA
ENDBRANCH  12  16
ENDBRANCH   6  10
BRANCH   1  21
ATOM     21  S   LIG    1        6.953  -3.095  -0.040  0.00  0.00    +2.630 S 
ATOM     22  O   LIG    1        7.086  -2.851  -1.434  0.00  0.00    -0.950 OA
ATOM     23  O   LIG    1        6.735  -4.408   0.456  0.00  0.00    -0.940 OA
BRANCH  21  24
ATOM     24  N   LIG    1        8.419  -2.657   0.592  0.00  0.00    -1.120 NA
ATOM     25  H   LIG    1        9.120  -2.327   0.009  0.00  0.00    +0.420 HD
BRANCH  24  27
ATOM     26  C   LIG    1       10.161  -2.692   2.309  0.00  0.00    +0.040 C 
ATOM     27  C   LIG    1        8.658  -2.767   2.034  0.00  0.00    +0.250 C 
ENDBRANCH  24  27
ENDBRANCH  21  24
ENDBRANCH   1  21
TORSDOF 5
