REMARK  Name = ZINCrg00000fS05Q.0
REMARK                            x       y       z     vdW  Elec       q    Type
REMARK                         _______ _______ _______ _____ _____    ______ ____
ROOT
ATOM      1  C   LIG    1       -3.940   4.319  -2.376  0.00  0.00    +0.090 C 
ATOM      2  N   LIG    1       -3.009   3.580  -1.857  0.00  0.00    -0.170 NA
ATOM      3  N   LIG    1       -3.146   2.191  -1.779  0.00  0.00    -0.450 N 
ATOM      4  C   LIG    1       -4.043   1.549  -2.553  0.00  0.00    +0.500 C 
ATOM      5  C   LIG    1       -4.905   2.334  -3.509  0.00  0.00    +0.100 C 
ATOM      6  O   LIG    1       -4.157   0.344  -2.481  0.00  0.00    -0.500 OA
ATOM      7  C   LIG    1       -5.210   3.705  -2.901  0.00  0.00    +0.120 C 
ENDROOT
BRANCH   3   8
ATOM      8  C   LIG    1       -2.313   1.429  -0.845  0.00  0.00    +0.310 C 
ATOM      9  C   LIG    1       -0.828   1.632  -1.193  0.00  0.00    +0.070 C 
ATOM     10  C   LIG    1       -0.013   1.086   0.008  0.00  0.00    -0.300 C 
ATOM     11  S   LIG    1       -0.949   1.716   1.452  0.00  0.00    +2.390 S 
ATOM     12  O   LIG    1       -0.441   2.990   1.823  0.00  0.00    -0.920 OA
ATOM     13  O   LIG    1       -1.063   0.686   2.425  0.00  0.00    -0.930 OA
ATOM     14  C   LIG    1       -2.557   1.928   0.593  0.00  0.00    -0.310 C 
ENDBRANCH   3   8
BRANCH   1  15
ATOM     15  C   LIG    1       -3.755   5.771  -2.447  0.00  0.00    +0.530 C 
ATOM     16  O   LIG    1       -4.625   6.472  -2.927  0.00  0.00    -0.480 OA
BRANCH  15  17
ATOM     17  O   LIG    1       -2.621   6.330  -1.978  0.00  0.00    -0.330 OA
BRANCH  17  18
ATOM     18  C   LIG    1       -2.507   7.774  -2.081  0.00  0.00    +0.300 C 
BRANCH  18  25
ATOM     19  C   LIG    1       -0.847   9.561  -1.500  0.00  0.00    +0.130 A 
ATOM     20  C   LIG    1        0.372   9.965  -0.976  0.00  0.00    -0.040 A 
ATOM     21  C   LIG    1        1.249   9.027  -0.466  0.00  0.00    +0.030 A 
ATOM     22  C   LIG    1        0.912   7.685  -0.478  0.00  0.00    +0.070 A 
ATOM     23  C   LIG    1       -0.306   7.280  -0.997  0.00  0.00    +0.070 A 
ATOM     24  F   LIG    1        1.771   6.769   0.021  0.00  0.00    -0.130 F 
ATOM     25  C   LIG    1       -1.183   8.216  -1.512  0.00  0.00    -0.100 A 
BRANCH  19  27
ATOM     26  C   LIG    1       -1.298  11.851  -1.958  0.00  0.00    +0.240 C 
ATOM     27  O   LIG    1       -1.710  10.483  -2.003  0.00  0.00    -0.310 OA
ENDBRANCH  19  27
ENDBRANCH  18  25
ENDBRANCH  17  18
ENDBRANCH  15  17
ENDBRANCH   1  15
TORSDOF 6
