REMARK  Name = ZINCpk00000ebL0J.0
REMARK                            x       y       z     vdW  Elec       q    Type
REMARK                         _______ _______ _______ _____ _____    ______ ____
ROOT
ATOM      1  C   LIG    1       -0.725  -3.108  -3.347  0.00  0.00    +0.510 C 
ATOM      2  O   LIG    1        0.268  -3.438  -2.729  0.00  0.00    -0.480 OA
ENDROOT
BRANCH   1   3
ATOM      3  C   LIG    1       -0.908  -3.556  -4.741  0.00  0.00    -0.120 A 
ATOM      4  C   LIG    1       -2.102  -3.290  -5.412  0.00  0.00    +0.080 A 
ATOM      5  C   LIG    1       -2.265  -3.705  -6.718  0.00  0.00    +0.000 A 
ATOM      6  C   LIG    1       -1.254  -4.397  -7.365  0.00  0.00    +0.050 A 
ATOM      7  C   LIG    1       -0.068  -4.673  -6.715  0.00  0.00    +0.020 A 
ATOM      8  C   LIG    1        0.118  -4.258  -5.400  0.00  0.00    +0.020 A 
BRANCH   8   9
ATOM      9  C   LIG    1        1.390  -4.553  -4.698  0.00  0.00    -0.050 A 
ATOM     10  C   LIG    1        2.187  -3.511  -4.226  0.00  0.00    +0.050 A 
ATOM     11  C   LIG    1        3.368  -3.792  -3.569  0.00  0.00    +0.000 A 
ATOM     12  C   LIG    1        3.765  -5.104  -3.387  0.00  0.00    +0.010 A 
ATOM     13  C   LIG    1        2.981  -6.142  -3.857  0.00  0.00    +0.000 A 
ATOM     14  C   LIG    1        1.796  -5.874  -4.511  0.00  0.00    +0.020 A 
ENDBRANCH   8   9
ENDBRANCH   1   3
BRANCH   1  15
ATOM     15  O   LIG    1       -1.658  -2.334  -2.760  0.00  0.00    -0.330 OA
BRANCH  15  16
ATOM     16  C   LIG    1       -1.412  -1.932  -1.387  0.00  0.00    +0.260 C 
BRANCH  16  23
ATOM     17  O   LIG    1       -1.248  -1.661   3.467  0.00  0.00    -0.540 OA
ATOM     18  C   LIG    1       -1.988  -1.179   2.636  0.00  0.00    +0.510 C 
ATOM     19  C   LIG    1       -1.430  -0.865   1.274  0.00  0.00    +0.320 C 
ATOM     20  N   LIG    1       -2.542  -0.586   0.354  0.00  0.00    -0.620 N 
ATOM     21  C   LIG    1       -3.643   0.253   0.859  0.00  0.00    +0.310 C 
ATOM     22  C   LIG    1       -4.282  -0.465   2.049  0.00  0.00    +0.260 C 
ATOM     23  C   LIG    1       -2.554  -1.077  -0.901  0.00  0.00    +0.530 C 
ATOM     24  O   LIG    1       -3.484  -0.832  -1.640  0.00  0.00    -0.500 OA
ATOM     25  N   LIG    1       -3.262  -0.954   2.967  0.00  0.00    -0.720 N 
ATOM     26  H   LIG    1       -3.526  -1.126   3.884  0.00  0.00    +0.400 HD
ENDBRANCH  16  23
ENDBRANCH  15  16
ENDBRANCH   1  15
TORSDOF 5
