REMARK  Name = ZINCrH000004rbOo.1
REMARK                            x       y       z     vdW  Elec       q    Type
REMARK                         _______ _______ _______ _____ _____    ______ ____
ROOT
ATOM      1  N   LIG    1       -3.444   2.272  -0.723  0.00  0.00    -0.620 N 
ATOM      2  C   LIG    1       -2.298   1.566  -0.648  0.00  0.00    +0.710 C 
ATOM      3  N   LIG    1       -1.240   2.068   0.019  0.00  0.00    -0.680 N 
ATOM      4  H   LIG    1       -1.323   2.907   0.499  0.00  0.00    +0.400 HD
ATOM      5  O   LIG    1       -2.219   0.477  -1.182  0.00  0.00    -0.570 OA
ATOM      6  C   LIG    1       -3.539   3.585  -0.080  0.00  0.00    +0.280 C 
ENDROOT
BRANCH   3   7
ATOM      7  C   LIG    1       -0.020   1.378   0.019  0.00  0.00    +0.140 A 
ATOM      8  C   LIG    1       -0.007  -0.010   0.015  0.00  0.00    +0.050 A 
ATOM      9  C   LIG    1        1.195  -0.690   0.009  0.00  0.00    -0.030 A 
ATOM     10  C   LIG    1        2.391   0.015   0.007  0.00  0.00    +0.100 A 
ATOM     11  C   LIG    1        2.378   1.404   0.010  0.00  0.00    +0.010 A 
ATOM     12  C   LIG    1        1.176   2.083   0.016  0.00  0.00    -0.090 A 
ATOM     13  C   LIG    1        1.162   3.591   0.020  0.00  0.00    +0.090 C 
BRANCH  10  14
ATOM     14  N   LIG    1        3.609  -0.673   0.001  0.00  0.00    -0.490 N 
ATOM     15  C   LIG    1        4.439  -0.266  -1.141  0.00  0.00    +0.200 C 
ATOM     16  C   LIG    1        5.790  -0.980  -1.067  0.00  0.00    +0.170 C 
ATOM     17  N   LIG    1        5.574  -2.434  -1.069  0.00  0.00    -0.550 NA
ATOM     18  C   LIG    1        4.743  -2.841   0.073  0.00  0.00    +0.170 C 
ATOM     19  C   LIG    1        6.852  -3.157  -1.075  0.00  0.00    +0.190 C 
ATOM     20  C   LIG    1        3.392  -2.127  -0.001  0.00  0.00    +0.200 C 
ENDBRANCH  10  14
ENDBRANCH   3   7
BRANCH   1  21
ATOM     21  C   LIG    1       -4.594   1.726  -1.449  0.00  0.00    +0.360 C 
BRANCH  21  26
ATOM     22  C   LIG    1       -7.869  -1.363   2.174  0.00  0.00    +0.090 C 
ATOM     23  C   LIG    1       -7.015  -0.557   1.230  0.00  0.00    -0.080 A 
ATOM     24  C   LIG    1       -7.255   0.794   1.061  0.00  0.00    -0.010 A 
ATOM     25  C   LIG    1       -6.472   1.533   0.195  0.00  0.00    +0.020 A 
ATOM     26  C   LIG    1       -5.448   0.921  -0.504  0.00  0.00    -0.120 A 
ATOM     27  C   LIG    1       -5.211  -0.431  -0.339  0.00  0.00    +0.040 A 
ATOM     28  C   LIG    1       -5.990  -1.169   0.532  0.00  0.00    +0.000 A 
ENDBRANCH  21  26
ENDBRANCH   1  21
TORSDOF 4
