REMARK  Name = ZINCqH0000004Ivj.0
REMARK                            x       y       z     vdW  Elec       q    Type
REMARK                         _______ _______ _______ _____ _____    ______ ____
ROOT
ATOM      1  C   LIG    1        5.194   7.697  -0.002  0.00  0.00    +0.450 C 
ATOM      2  O   LIG    1        4.754   8.829   0.009  0.00  0.00    -0.450 OA
ENDROOT
BRANCH   1   8
ATOM      3  C   LIG    1       10.062   8.526  -0.044  0.00  0.00    -0.080 A 
ATOM      4  C   LIG    1        8.868   7.813  -0.037  0.00  0.00    +0.080 A 
ATOM      5  N   LIG    1        8.576   6.464  -0.043  0.00  0.00    -0.560 N 
ATOM      6  H   LIG    1        9.239   5.757  -0.053  0.00  0.00    +0.420 HD
ATOM      7  C   LIG    1        7.244   6.265  -0.031  0.00  0.00    +0.340 A 
ATOM      8  C   LIG    1        6.594   7.481  -0.017  0.00  0.00    -0.270 A 
ATOM      9  C   LIG    1        7.650   8.512  -0.026  0.00  0.00    -0.050 A 
ATOM     10  C   LIG    1        7.643   9.903  -0.012  0.00  0.00    +0.050 A 
ATOM     11  C   LIG    1        8.837  10.592  -0.020  0.00  0.00    +0.000 A 
ATOM     12  C   LIG    1       10.041   9.904  -0.036  0.00  0.00    +0.030 A 
BRANCH   3  14
ATOM     13  C   LIG    1       11.748   7.444  -1.506  0.00  0.00    +0.020 C 
ATOM     14  C   LIG    1       11.378   7.793  -0.062  0.00  0.00    +0.050 C 
ENDBRANCH   3  14
ENDBRANCH   1   8
BRANCH   1  15
ATOM     15  C   LIG    1        4.250   6.522  -0.001  0.00  0.00    +0.080 C 
BRANCH  15  16
ATOM     16  S   LIG    1        2.538   7.122   0.019  0.00  0.00    +0.100 S 
BRANCH  16  17
ATOM     17  C   LIG    1        1.596   5.632   0.018  0.00  0.00    +0.240 A 
ATOM     18  N   LIG    1        0.280   5.564   0.030  0.00  0.00    -0.310 NA
ATOM     19  N   LIG    1       -0.059   4.204   0.025  0.00  0.00    -0.330 N 
ATOM     20  C   LIG    1       -1.245   3.542   0.033  0.00  0.00    +0.210 A 
ATOM     21  C   LIG    1       -1.241   2.183   0.020  0.00  0.00    -0.050 A 
ATOM     22  C   LIG    1       -0.018   1.503   0.010  0.00  0.00    +0.240 A 
ATOM     23  N   LIG    1        1.112   2.172   0.003  0.00  0.00    -0.470 NA
ATOM     24  C   LIG    1        0.002  -0.004   0.002  0.00  0.00    +0.180 C 
ATOM     25  C   LIG    1       -2.546   4.302   0.049  0.00  0.00    +0.170 C 
ATOM     26  C   LIG    1        1.118   3.510   0.010  0.00  0.00    +0.460 A 
ATOM     27  N   LIG    1        2.104   4.402   0.006  0.00  0.00    -0.530 NA
ENDBRANCH  16  17
ENDBRANCH  15  16
ENDBRANCH   1  15
TORSDOF 5
