REMARK  Name = ZINCkj000005kRnf.2
REMARK                            x       y       z     vdW  Elec       q    Type
REMARK                         _______ _______ _______ _____ _____    ______ ____
ROOT
ATOM      1  N   LIG    1       -1.690   4.720  -0.272  0.00  0.00    -1.110 NA
ATOM      2  H   LIG    1       -1.557   4.692  -1.232  0.00  0.00    +0.430 HD
ENDROOT
BRANCH   1   3
ATOM      3  S   LIG    1       -0.448   4.321   0.748  0.00  0.00    +2.730 S 
ATOM      4  O   LIG    1        0.648   3.956  -0.079  0.00  0.00    -0.930 OA
ATOM      5  O   LIG    1       -0.378   5.355   1.720  0.00  0.00    -0.930 OA
BRANCH   3  12
ATOM      6  C   LIG    1       -2.118   3.903   3.687  0.00  0.00    +0.180 C 
ATOM      7  C   LIG    1       -1.626   2.762   2.835  0.00  0.00    +0.100 A 
ATOM      8  N   LIG    1       -1.754   1.491   3.084  0.00  0.00    -0.350 NA
ATOM      9  O   LIG    1       -1.256   0.814   2.214  0.00  0.00    +0.110 OA
ATOM     10  C   LIG    1       -0.718   1.572   1.248  0.00  0.00    +0.130 A 
ATOM     11  C   LIG    1       -0.013   1.086   0.008  0.00  0.00    +0.220 C 
ATOM     12  C   LIG    1       -0.929   2.860   1.609  0.00  0.00    -0.810 A 
ENDBRANCH   3  12
ENDBRANCH   1   3
BRANCH   1  13
ATOM     13  C   LIG    1       -2.990   5.115   0.277  0.00  0.00    +0.280 C 
BRANCH  13  14
ATOM     14  C   LIG    1       -3.825   5.780  -0.819  0.00  0.00    +0.260 C 
BRANCH  14  15
ATOM     15  N   LIG    1       -5.128   6.176  -0.269  0.00  0.00    -0.380 N 
ATOM     16  C   LIG    1       -5.876   4.977   0.126  0.00  0.00    +0.240 C 
ATOM     17  C   LIG    1       -7.200   5.387   0.774  0.00  0.00    +0.050 C 
ATOM     18  C   LIG    1       -8.025   6.196  -0.231  0.00  0.00    +0.050 C 
ATOM     19  C   LIG    1       -7.206   7.405  -0.693  0.00  0.00    +0.010 C 
ATOM     20  C   LIG    1       -6.926   8.319   0.502  0.00  0.00    +0.040 C 
ATOM     21  C   LIG    1       -5.882   6.920  -1.286  0.00  0.00    +0.260 C 
ATOM     22  H   LIG    1       -4.987   6.763   0.539  0.00  0.00    +0.420 HD
ENDBRANCH  14  15
ENDBRANCH  13  14
ENDBRANCH   1  13
TORSDOF 5
