REMARK  Name = ZINCrD00000F5LF3.0
REMARK                            x       y       z     vdW  Elec       q    Type
REMARK                         _______ _______ _______ _____ _____    ______ ____
ROOT
ATOM      1  C   LIG    1       -0.017   1.392   0.010  0.00  0.00    -0.120 A 
ATOM      2  C   LIG    1        0.002  -0.004   0.002  0.00  0.00    +0.060 A 
ATOM      3  C   LIG    1        1.207  -0.678  -0.013  0.00  0.00    +0.050 A 
ATOM      4  C   LIG    1        2.397   0.025  -0.021  0.00  0.00    +0.040 A 
ATOM      5  C   LIG    1        2.388   1.415  -0.013  0.00  0.00    +0.130 A 
ATOM      6  C   LIG    1        1.184   2.101   0.002  0.00  0.00    +0.110 A 
ENDROOT
BRANCH   5   7
ATOM      7  N   LIG    1        3.598   2.123  -0.020  0.00  0.00    -0.300 N 
ATOM      8  N   LIG    1        3.837   3.341  -0.670  0.00  0.00    -0.240 NA
ATOM      9  C   LIG    1        5.079   3.688  -0.447  0.00  0.00    +0.270 A 
ATOM     10  C   LIG    1        5.674   2.700   0.345  0.00  0.00    -0.010 A 
ATOM     11  C   LIG    1        4.744   1.749   0.593  0.00  0.00    -0.020 A 
BRANCH  11  12
ATOM     12  C   LIG    1        4.947   0.498   1.409  0.00  0.00    +0.540 C 
ATOM     13  F   LIG    1        3.740   0.134   2.014  0.00  0.00    -0.170 F 
ATOM     14  F   LIG    1        5.910   0.736   2.395  0.00  0.00    -0.160 F 
ATOM     15  F   LIG    1        5.381  -0.537   0.574  0.00  0.00    -0.160 F 
ENDBRANCH  11  12
ENDBRANCH   5   7
BRANCH   1  18
ATOM     16  N   LIG    1       -2.465   1.429   0.021  0.00  0.00    -0.720 N 
ATOM     17  H   LIG    1       -2.454   0.459   0.016  0.00  0.00    +0.410 HD
ATOM     18  C   LIG    1       -1.306   2.116   0.020  0.00  0.00    +0.570 C 
ATOM     19  O   LIG    1       -1.320   3.331   0.026  0.00  0.00    -0.510 OA
BRANCH  16  20
ATOM     20  C   LIG    1       -3.742   2.146   0.032  0.00  0.00    +0.390 C 
BRANCH  20  21
ATOM     21  C   LIG    1       -4.117   2.499  -1.347  0.00  0.00    +0.190 C 
ATOM     22  N   LIG    1       -4.407   2.772  -2.412  0.00  0.00    -0.400 NA
ENDBRANCH  20  21
BRANCH  20  23
ATOM     23  C   LIG    1       -4.824   1.253   0.641  0.00  0.00    +0.070 C 
BRANCH  23  24
ATOM     24  C   LIG    1       -4.498   0.988   2.112  0.00  0.00    +0.180 C 
BRANCH  24  25
ATOM     25  O   LIG    1       -5.508   0.154   2.682  0.00  0.00    -0.380 OA
BRANCH  25  27
ATOM     26  C   LIG    1       -5.975   0.904   4.931  0.00  0.00    +0.020 C 
ATOM     27  C   LIG    1       -5.297  -0.156   4.061  0.00  0.00    +0.140 C 
ATOM     28  C   LIG    1       -5.895  -1.530   4.372  0.00  0.00    +0.040 C 
ENDBRANCH  25  27
ENDBRANCH  24  25
ENDBRANCH  23  24
ENDBRANCH  20  23
ENDBRANCH  16  20
ENDBRANCH   1  18
TORSDOF 9
