REMARK  Name = ZINCAx0000000fQg.0
REMARK                            x       y       z     vdW  Elec       q    Type
REMARK                         _______ _______ _______ _____ _____    ______ ____
ROOT
ATOM      1  C   LIG    1        4.156   6.036   1.480  0.00  0.00    +0.530 C 
ATOM      2  N   LIG    1        2.990   5.411   1.736  0.00  0.00    -0.580 N 
ATOM      3  O   LIG    1        4.165   7.221   1.223  0.00  0.00    -0.530 OA
ENDROOT
BRANCH   1   4
ATOM      4  C   LIG    1        5.449   5.262   1.513  0.00  0.00    +0.050 C 
BRANCH   4   5
ATOM      5  C   LIG    1        6.613   6.200   1.190  0.00  0.00    +0.130 C 
BRANCH   5   6
ATOM      6  C   LIG    1        7.926   5.415   1.224  0.00  0.00    +0.030 C 
ATOM      7  N   LIG    1        7.880   3.965   1.021  0.00  0.00    -0.120 NA
ATOM      8  N   LIG    1        8.065   4.325   2.193  0.00  0.00    -0.120 NA
BRANCH   6   9
ATOM      9  C   LIG    1        9.180   6.176   0.792  0.00  0.00    +0.120 C 
BRANCH   9  10
ATOM     10  C   LIG    1       10.395   5.251   0.884  0.00  0.00    +0.160 C 
BRANCH  10  12
ATOM     11  C   LIG    1       12.566   6.568   0.139  0.00  0.00    +0.030 C 
ATOM     12  C   LIG    1       11.603   5.983   0.470  0.00  0.00    -0.190 C 
ENDBRANCH  10  12
ENDBRANCH   9  10
ENDBRANCH   6   9
ENDBRANCH   5   6
ENDBRANCH   4   5
ENDBRANCH   1   4
BRANCH   2  13
ATOM     13  C   LIG    1        1.733   6.163   1.704  0.00  0.00    +0.300 C 
BRANCH  13  14
ATOM     14  C   LIG    1        0.772   5.496   0.753  0.00  0.00    -0.110 A 
ATOM     15  C   LIG    1       -0.259   4.719   1.244  0.00  0.00    +0.030 A 
ATOM     16  C   LIG    1       -1.140   4.107   0.372  0.00  0.00    +0.000 A 
ATOM     17  C   LIG    1       -0.990   4.273  -0.992  0.00  0.00    +0.020 A 
ATOM     18  C   LIG    1        0.042   5.052  -1.484  0.00  0.00    +0.000 A 
ATOM     19  C   LIG    1        0.920   5.667  -0.612  0.00  0.00    -0.060 A 
ATOM     20  C   LIG    1        2.041   6.519  -1.147  0.00  0.00    +0.100 C 
ENDBRANCH  13  14
BRANCH  13  21
ATOM     21  C   LIG    1        1.131   6.196   3.085  0.00  0.00    +0.510 C 
ATOM     22  N   LIG    1        0.185   7.107   3.386  0.00  0.00    -0.720 N 
ATOM     23  H   LIG    1       -0.162   7.693   2.696  0.00  0.00    +0.400 HD
ATOM     24  O   LIG    1        1.498   5.402   3.925  0.00  0.00    -0.530 OA
BRANCH  22  25
ATOM     25  C   LIG    1       -0.320   7.213   4.758  0.00  0.00    +0.260 C 
BRANCH  25  26
ATOM     26  C   LIG    1       -1.378   8.316   4.828  0.00  0.00    +0.030 C 
BRANCH  26  27
ATOM     27  C   LIG    1       -1.905   8.426   6.260  0.00  0.00    +0.160 C 
BRANCH  27  28
ATOM     28  O   LIG    1       -2.893   9.456   6.326  0.00  0.00    -0.390 OA
ATOM     29  C   LIG    1       -3.453   9.642   7.628  0.00  0.00    +0.200 C 
ENDBRANCH  27  28
ENDBRANCH  26  27
ENDBRANCH  25  26
ENDBRANCH  22  25
ENDBRANCH  13  21
ENDBRANCH   2  13
BRANCH   2  30
ATOM     30  C   LIG    1        2.978   3.979   2.046  0.00  0.00    +0.300 C 
BRANCH  30  31
ATOM     31  C   LIG    1        2.965   3.175   0.745  0.00  0.00    +0.140 C 
BRANCH  31  32
ATOM     32  C   LIG    1        3.081   1.706   1.061  0.00  0.00    +0.230 A 
ATOM     33  N   LIG    1        4.199   1.038   1.165  0.00  0.00    -0.310 NA
ATOM     34  N   LIG    1        3.852  -0.289   1.467  0.00  0.00    -0.380 N 
ATOM     35  C   LIG    1        2.510  -0.326   1.525  0.00  0.00    +0.470 A 
ATOM     36  C   LIG    1        4.771  -1.411   1.677  0.00  0.00    +0.360 C 
ATOM     37  N   LIG    1        2.060   0.878   1.279  0.00  0.00    -0.540 NA
ENDBRANCH  31  32
ENDBRANCH  30  31
ENDBRANCH   2  30
TORSDOF 16
