REMARK  Name = ZINCrg000000s8Tc.0
REMARK                            x       y       z     vdW  Elec       q    Type
REMARK                         _______ _______ _______ _____ _____    ______ ____
ROOT
ATOM      1  C   LIG    1       -6.187   3.990   2.154  0.00  0.00    +0.510 C 
ATOM      2  N   LIG    1       -5.542   4.044   0.971  0.00  0.00    -0.690 N 
ATOM      3  H   LIG    1       -5.846   3.501   0.228  0.00  0.00    +0.420 HD
ATOM      4  O   LIG    1       -5.808   4.670   3.084  0.00  0.00    -0.500 OA
ENDROOT
BRANCH   2   5
ATOM      5  C   LIG    1       -4.383   4.925   0.810  0.00  0.00    +0.250 C 
ATOM      6  C   LIG    1       -4.198   5.309  -0.676  0.00  0.00    +0.080 C 
ATOM      7  C   LIG    1       -3.190   4.242  -1.155  0.00  0.00    +0.270 C 
ATOM      8  N   LIG    1       -2.456   3.828   0.047  0.00  0.00    -0.580 N 
ATOM      9  C   LIG    1       -3.109   4.189   1.165  0.00  0.00    +0.510 C 
ATOM     10  O   LIG    1       -2.731   3.961   2.295  0.00  0.00    -0.490 OA
BRANCH   8  11
ATOM     11  C   LIG    1       -1.236   3.141   0.031  0.00  0.00    +0.100 A 
ATOM     12  C   LIG    1       -0.041   3.846   0.024  0.00  0.00    +0.060 A 
ATOM     13  C   LIG    1        1.161   3.165   0.008  0.00  0.00    +0.020 A 
ATOM     14  C   LIG    1        1.176   1.783   0.000  0.00  0.00    +0.060 A 
ATOM     15  C   LIG    1       -0.013   1.076   0.008  0.00  0.00    -0.010 A 
ATOM     16  C   LIG    1       -1.220   1.750   0.017  0.00  0.00    +0.110 A 
ATOM     17  F   LIG    1       -2.381   1.060   0.019  0.00  0.00    -0.130 F 
ENDBRANCH   8  11
ENDBRANCH   2   5
BRANCH   1  20
ATOM     18  N   LIG    1       -8.016   3.037   3.500  0.00  0.00    -0.690 N 
ATOM     19  H   LIG    1       -7.712   3.580   4.244  0.00  0.00    +0.420 HD
ATOM     20  C   LIG    1       -7.371   3.091   2.318  0.00  0.00    +0.510 C 
ATOM     21  O   LIG    1       -7.750   2.412   1.388  0.00  0.00    -0.510 OA
BRANCH  18  22
ATOM     22  C   LIG    1       -9.175   2.156   3.662  0.00  0.00    +0.350 C 
BRANCH  22  27
ATOM     23  C   LIG    1      -11.139   2.564   9.033  0.00  0.00    +0.110 C 
ATOM     24  C   LIG    1      -10.649   2.483   7.610  0.00  0.00    -0.130 A 
ATOM     25  C   LIG    1      -11.231   3.262   6.622  0.00  0.00    +0.060 A 
ATOM     26  C   LIG    1      -10.744   3.158   5.328  0.00  0.00    +0.000 A 
ATOM     27  C   LIG    1       -9.709   2.281   5.066  0.00  0.00    +0.090 A 
ATOM     28  N   LIG    1       -9.179   1.555   6.031  0.00  0.00    -0.460 NA
ATOM     29  C   LIG    1       -9.613   1.631   7.274  0.00  0.00    +0.260 A 
ENDBRANCH  22  27
ENDBRANCH  18  22
ENDBRANCH   1  20
TORSDOF 5
