REMARK  Name = ZINCpk00000y6yOr.0
REMARK                            x       y       z     vdW  Elec       q    Type
REMARK                         _______ _______ _______ _____ _____    ______ ____
ROOT
ATOM      1  C   LIG    1        3.034  -0.046  -3.299  0.00  0.00    +0.220 A 
ATOM      2  C   LIG    1        2.506  -0.159  -2.052  0.00  0.00    -0.050 A 
ATOM      3  N   LIG    1        2.843   0.986  -1.397  0.00  0.00    -0.280 N 
ATOM      4  N   LIG    1        3.531   1.720  -2.199  0.00  0.00    -0.070 NA
ATOM      5  C   LIG    1        1.707  -1.314  -1.507  0.00  0.00    +0.160 C 
ATOM      6  N   LIG    1        3.664   1.137  -3.337  0.00  0.00    -0.240 NA
ENDROOT
BRANCH   1   8
ATOM      7  C   LIG    1        3.529  -0.733  -5.527  0.00  0.00    +0.510 C 
ATOM      8  N   LIG    1        2.944  -0.985  -4.339  0.00  0.00    -0.640 N 
ATOM      9  H   LIG    1        2.460  -1.815  -4.203  0.00  0.00    +0.410 HD
ATOM     10  O   LIG    1        4.133   0.305  -5.698  0.00  0.00    -0.450 OA
BRANCH   7  13
ATOM     11  C   LIG    1        4.652  -3.398  -7.884  0.00  0.00    +0.140 C 
ATOM     12  C   LIG    1        4.462  -2.878  -6.435  0.00  0.00    +0.070 C 
ATOM     13  C   LIG    1        3.431  -1.740  -6.644  0.00  0.00    +0.140 C 
ATOM     14  N   LIG    1        3.809  -1.120  -7.931  0.00  0.00    -0.500 NA
ATOM     15  C   LIG    1        2.622  -0.641  -8.653  0.00  0.00    +0.200 C 
ATOM     16  C   LIG    1        4.549  -2.113  -8.732  0.00  0.00    +0.170 C 
BRANCH  11  18
ATOM     17  C   LIG    1        5.972  -5.051  -9.011  0.00  0.00    +0.200 C 
ATOM     18  O   LIG    1        5.937  -4.004  -8.040  0.00  0.00    -0.370 OA
ENDBRANCH  11  18
ENDBRANCH   7  13
ENDBRANCH   1   8
BRANCH   3  19
ATOM     19  C   LIG    1        2.489   1.321  -0.015  0.00  0.00    +0.400 C 
BRANCH  19  20
ATOM     20  C   LIG    1        1.173   2.056   0.002  0.00  0.00    -0.160 A 
ATOM     21  C   LIG    1        1.153   3.438   0.010  0.00  0.00    +0.080 A 
ATOM     22  C   LIG    1       -0.054   4.112   0.025  0.00  0.00    +0.010 A 
ATOM     23  C   LIG    1       -1.242   3.405   0.032  0.00  0.00    +0.070 A 
ATOM     24  C   LIG    1       -1.224   2.023   0.019  0.00  0.00    -0.020 A 
ATOM     25  C   LIG    1       -0.016   1.347   0.009  0.00  0.00    +0.120 A 
ATOM     26  F   LIG    1        0.002  -0.004   0.002  0.00  0.00    -0.130 F 
ENDBRANCH  19  20
ENDBRANCH   3  19
TORSDOF 5
