REMARK  Name = ZINCqH0000007aGG.0
REMARK                            x       y       z     vdW  Elec       q    Type
REMARK                         _______ _______ _______ _____ _____    ______ ____
ROOT
ATOM      1  C   LIG    1       -3.709  -1.068  -0.201  0.00  0.00    +0.190 C 
ATOM      2  C   LIG    1       -4.468  -0.604  -1.447  0.00  0.00    +0.030 C 
ENDROOT
BRANCH   1   3
ATOM      3  C   LIG    1       -2.413  -0.307  -0.090  0.00  0.00    +0.530 C 
ATOM      4  N   LIG    1       -2.428   1.037   0.019  0.00  0.00    -0.670 N 
ATOM      5  H   LIG    1       -3.273   1.508   0.091  0.00  0.00    +0.420 HD
ATOM      6  O   LIG    1       -1.357  -0.903  -0.098  0.00  0.00    -0.490 OA
BRANCH   4   7
ATOM      7  C   LIG    1       -1.223   1.752   0.029  0.00  0.00    +0.140 A 
ATOM      8  C   LIG    1       -0.096   1.206   0.625  0.00  0.00    +0.090 A 
ATOM      9  C   LIG    1        1.094   1.909   0.629  0.00  0.00    +0.050 A 
ATOM     10  C   LIG    1        1.162   3.162   0.044  0.00  0.00    +0.080 A 
ATOM     11  C   LIG    1        0.036   3.714  -0.548  0.00  0.00    +0.050 A 
ATOM     12  F   LIG    1        0.104   4.937  -1.119  0.00  0.00    -0.110 F 
ATOM     13  F   LIG    1        2.326   3.847   0.049  0.00  0.00    -0.120 F 
ATOM     14  C   LIG    1       -1.157   3.013  -0.554  0.00  0.00    +0.070 A 
ATOM     15  F   LIG    1       -2.255   3.550  -1.130  0.00  0.00    -0.120 F 
ENDBRANCH   4   7
ENDBRANCH   1   3
BRANCH   1  16
ATOM     16  N   LIG    1       -3.425  -2.505  -0.308  0.00  0.00    -0.510 NA
ATOM     17  C   LIG    1       -2.627  -2.797  -1.506  0.00  0.00    +0.200 C 
BRANCH  16  18
ATOM     18  C   LIG    1       -4.668  -3.289  -0.299  0.00  0.00    +0.240 C 
BRANCH  18  22
ATOM     19  C   LIG    1       -3.730  -7.442   0.092  0.00  0.00    +0.100 A 
ATOM     20  C   LIG    1       -3.937  -6.666   1.223  0.00  0.00    -0.040 A 
ATOM     21  C   LIG    1       -4.240  -5.324   1.093  0.00  0.00    +0.070 A 
ATOM     22  C   LIG    1       -4.337  -4.753  -0.162  0.00  0.00    -0.090 A 
ATOM     23  C   LIG    1       -4.136  -5.524  -1.292  0.00  0.00    +0.030 A 
ATOM     24  C   LIG    1       -3.828  -6.867  -1.169  0.00  0.00    +0.070 A 
ATOM     25  F   LIG    1       -3.627  -7.619  -2.273  0.00  0.00    -0.130 F 
BRANCH  19  27
ATOM     26  C   LIG    1       -3.348  -9.285   1.545  0.00  0.00    +0.250 C 
ATOM     27  O   LIG    1       -3.432  -8.762   0.218  0.00  0.00    -0.310 OA
ENDBRANCH  19  27
ENDBRANCH  18  22
ENDBRANCH  16  18
ENDBRANCH   1  16
TORSDOF 6
