REMARK  Name = ZINCrD000000AEiF.0
REMARK                            x       y       z     vdW  Elec       q    Type
REMARK                         _______ _______ _______ _____ _____    ______ ____
ROOT
ATOM      1  O   LIG    1        4.942   2.111   0.286  0.00  0.00    -0.510 OA
ATOM      2  C   LIG    1        4.449   3.223   0.196  0.00  0.00    +0.570 A 
ATOM      3  C   LIG    1        3.047   3.397   0.235  0.00  0.00    -0.080 A 
ATOM      4  C   LIG    1        2.545   4.690   0.127  0.00  0.00    +0.120 A 
ATOM      5  C   LIG    1        1.082   4.557   0.199  0.00  0.00    -0.120 A 
ATOM      6  C   LIG    1        0.023   5.461   0.152  0.00  0.00    +0.100 A 
ATOM      7  C   LIG    1       -1.272   5.001   0.249  0.00  0.00    +0.000 A 
ATOM      8  C   LIG    1       -1.522   3.644   0.390  0.00  0.00    +0.070 A 
ATOM      9  C   LIG    1       -0.482   2.740   0.443  0.00  0.00    +0.020 A 
ATOM     10  C   LIG    1        0.832   3.183   0.346  0.00  0.00    +0.090 A 
ATOM     11  N   LIG    1        3.386   5.728  -0.010  0.00  0.00    -0.490 NA
ATOM     12  C   LIG    1        4.677   5.549  -0.045  0.00  0.00    +0.580 A 
ATOM     13  O   LIG    1        2.016   2.536   0.362  0.00  0.00    -0.160 OA
ATOM     14  N   LIG    1        5.231   4.315   0.055  0.00  0.00    -0.500 N 
ENDROOT
BRANCH  14  15
ATOM     15  C   LIG    1        6.687   4.166   0.010  0.00  0.00    +0.340 C 
BRANCH  15  16
ATOM     16  C   LIG    1        7.244   4.255   1.408  0.00  0.00    +0.510 C 
ATOM     17  N   LIG    1        8.557   4.040   1.625  0.00  0.00    -0.570 N 
ATOM     18  O   LIG    1        6.511   4.520   2.337  0.00  0.00    -0.510 OA
BRANCH  17  19
ATOM     19  C   LIG    1        9.066   3.937   2.995  0.00  0.00    +0.200 C 
ATOM     20  C   LIG    1        8.045   3.714   4.113  0.00  0.00    +0.030 C 
ATOM     21  C   LIG    1        8.728   5.074   3.961  0.00  0.00    +0.020 C 
ENDBRANCH  17  19
BRANCH  17  22
ATOM     22  C   LIG    1        9.475   3.908   0.491  0.00  0.00    +0.350 C 
BRANCH  22  23
ATOM     23  C   LIG    1       10.127   5.239   0.216  0.00  0.00    -0.120 A 
ATOM     24  C   LIG    1        9.566   6.166  -0.562  0.00  0.00    -0.050 A 
ATOM     25  S   LIG    1       10.612   7.577  -0.646  0.00  0.00    +0.120 S 
ATOM     26  C   LIG    1       11.791   6.803   0.404  0.00  0.00    -0.040 A 
ATOM     27  C   LIG    1       11.357   5.589   0.747  0.00  0.00    +0.020 A 
ENDBRANCH  22  23
ENDBRANCH  17  22
ENDBRANCH  15  16
ENDBRANCH  14  15
TORSDOF 5
