REMARK  Name = ZINCvU0000000EXL.0
REMARK                            x       y       z     vdW  Elec       q    Type
REMARK                         _______ _______ _______ _____ _____    ______ ____
ROOT
ATOM      1  C   LIG    1       -2.518   9.386  -2.264  0.00  0.00    +0.100 A 
ATOM      2  C   LIG    1       -1.793  10.505  -2.203  0.00  0.00    -0.060 A 
ATOM      3  S   LIG    1       -2.892  11.876  -2.327  0.00  0.00    +0.160 S 
ATOM      4  C   LIG    1       -4.223  10.811  -2.449  0.00  0.00    +0.270 A 
ATOM      5  N   LIG    1       -3.816   9.581  -2.401  0.00  0.00    -0.460 NA
ENDROOT
BRANCH   4   6
ATOM      6  N   LIG    1       -5.551  11.206  -2.586  0.00  0.00    -0.480 N 
ATOM      7  C   LIG    1       -6.530  10.281  -2.612  0.00  0.00    +0.510 C 
ATOM      8  O   LIG    1       -6.250   9.101  -2.592  0.00  0.00    -0.460 OA
ATOM      9  C   LIG    1       -7.973  10.712  -2.668  0.00  0.00    +0.110 C 
BRANCH   6  10
ATOM     10  C   LIG    1       -5.868  12.566  -2.696  0.00  0.00    +0.110 A 
ATOM     11  C   LIG    1       -6.061  13.136  -3.948  0.00  0.00    +0.040 A 
ATOM     12  C   LIG    1       -6.375  14.477  -4.054  0.00  0.00    +0.060 A 
ATOM     13  C   LIG    1       -6.497  15.252  -2.916  0.00  0.00    +0.050 A 
ATOM     14  C   LIG    1       -6.306  14.688  -1.667  0.00  0.00    -0.030 A 
ATOM     15 CL   LIG    1       -6.460  15.665  -0.240  0.00  0.00    -0.050 Cl
ATOM     16  C   LIG    1       -5.997  13.345  -1.554  0.00  0.00    +0.040 A 
ENDBRANCH   6  10
ENDBRANCH   4   6
BRANCH   1  17
ATOM     17  C   LIG    1       -1.904   8.012  -2.189  0.00  0.00    +0.210 C 
BRANCH  17  18
ATOM     18  S   LIG    1       -1.827   7.478  -0.457  0.00  0.00    +0.040 S 
BRANCH  18  22
ATOM     19  C   LIG    1       -0.096   3.627  -0.365  0.00  0.00    +0.230 A 
ATOM     20  N   LIG    1       -0.206   4.135  -1.556  0.00  0.00    -0.280 NA
ATOM     21  N   LIG    1       -0.720   5.281  -1.661  0.00  0.00    -0.250 NA
ATOM     22  C   LIG    1       -1.095   5.879  -0.568  0.00  0.00    -0.060 A 
ATOM     23  S   LIG    1       -0.737   4.803   0.784  0.00  0.00    +0.230 S 
BRANCH  19  25
ATOM     24  C   LIG    1        0.619   2.029   1.237  0.00  0.00    +0.510 C 
ATOM     25  N   LIG    1        0.439   2.380  -0.051  0.00  0.00    -0.480 N 
ATOM     26  O   LIG    1        0.315   2.799   2.124  0.00  0.00    -0.500 OA
BRANCH  25  27
ATOM     27  C   LIG    1        0.805   1.449  -1.122  0.00  0.00    +0.190 C 
ATOM     28  C   LIG    1        0.308   1.766  -2.534  0.00  0.00    +0.060 C 
ATOM     29  C   LIG    1        1.787   1.947  -2.185  0.00  0.00    +0.040 C 
ENDBRANCH  25  27
BRANCH  24  31
ATOM     30  C   LIG    1        1.295   0.535   3.097  0.00  0.00    +0.070 C 
ATOM     31  C   LIG    1        1.197   0.679   1.577  0.00  0.00    +0.080 C 
ENDBRANCH  24  31
ENDBRANCH  19  25
ENDBRANCH  18  22
ENDBRANCH  17  18
ENDBRANCH   1  17
TORSDOF 8
