REMARK  Name = ZINCpe000000XFFa.0
REMARK                            x       y       z     vdW  Elec       q    Type
REMARK                         _______ _______ _______ _____ _____    ______ ____
ROOT
ATOM      1  N   LIG    1        4.059  -2.904   1.289  0.00  0.00    -0.530 NA
ATOM      2  C   LIG    1        3.808  -3.118  -0.143  0.00  0.00    +0.200 C 
ATOM      3  C   LIG    1        3.232  -1.839  -0.755  0.00  0.00    +0.200 C 
ATOM      4  N   LIG    1        1.992  -1.480  -0.054  0.00  0.00    -0.510 NA
ATOM      5  C   LIG    1        2.242  -1.265   1.378  0.00  0.00    +0.180 C 
ATOM      6  C   LIG    1        2.818  -2.544   1.990  0.00  0.00    +0.190 C 
ENDROOT
BRANCH   4   7
ATOM      7  C   LIG    1        1.367  -0.297  -0.662  0.00  0.00    +0.170 C 
ATOM      8  C   LIG    1        0.002  -0.004   0.002  0.00  0.00    +0.060 C 
ATOM      9  C   LIG    1       -0.019   1.541   0.011  0.00  0.00    +0.260 C 
ATOM     10  N   LIG    1        1.390   1.951  -0.001  0.00  0.00    -0.620 N 
ATOM     11  C   LIG    1        2.190   0.940  -0.380  0.00  0.00    +0.490 C 
ATOM     12  O   LIG    1        3.397   1.010  -0.482  0.00  0.00    -0.510 OA
BRANCH  10  13
ATOM     13  C   LIG    1        1.863   3.291   0.356  0.00  0.00    +0.250 C 
ATOM     14  C   LIG    1        2.605   3.907  -0.835  0.00  0.00    -0.010 C 
ATOM     15  C   LIG    1        3.163   5.273  -0.428  0.00  0.00    +0.220 C 
ATOM     16  O   LIG    1        4.022   5.117   0.703  0.00  0.00    -0.380 OA
ATOM     17  C   LIG    1        3.373   4.589   1.862  0.00  0.00    +0.220 C 
ATOM     18  C   LIG    1        2.823   3.196   1.546  0.00  0.00    -0.010 C 
ENDBRANCH  10  13
ENDBRANCH   4   7
BRANCH   1  19
ATOM     19  C   LIG    1        4.683  -4.086   1.897  0.00  0.00    +0.300 C 
BRANCH  19  24
ATOM     20  C   LIG    1        3.576  -4.152   6.865  0.00  0.00    +0.160 C 
ATOM     21  C   LIG    1        4.244  -3.949   5.529  0.00  0.00    +0.010 A 
ATOM     22  N   LIG    1        5.400  -3.390   5.312  0.00  0.00    -0.360 NA
ATOM     23  O   LIG    1        5.670  -3.371   4.133  0.00  0.00    +0.110 OA
ATOM     24  C   LIG    1        4.701  -3.930   3.396  0.00  0.00    -0.020 A 
ATOM     25  C   LIG    1        3.737  -4.322   4.263  0.00  0.00    -0.060 A 
ENDBRANCH  19  24
ENDBRANCH   1  19
TORSDOF 4
