REMARK  Name = ZINCpk00000KfKEb.0
REMARK                            x       y       z     vdW  Elec       q    Type
REMARK                         _______ _______ _______ _____ _____    ______ ____
ROOT
ATOM      1  C   UNK A  0        0.002  -0.004   0.002  0.00  0.00    +0.460 A 
ATOM      2  C   UNK A  0        1.233  -0.665  -0.013  0.00  0.00    -0.090 A 
ATOM      3  C   UNK A  0        2.389   0.093  -0.020  0.00  0.00    +0.130 A 
ATOM      4  N   UNK A  0        2.297   1.414  -0.012  0.00  0.00    -0.510 NA
ATOM      5  C   UNK A  0        1.115   2.015   0.002  0.00  0.00    +0.420 A 
ATOM      6  N   UNK A  0       -0.016   1.324   0.009  0.00  0.00    -0.520 NA
ENDROOT
BRANCH   5   7
ATOM      7  C   UNK A  0        1.058   3.498   0.010  0.00  0.00    +0.160 A 
ATOM      8  C   UNK A  0        2.239   4.234   0.003  0.00  0.00    +0.030 A 
ATOM      9  C   UNK A  0        2.170   5.618   0.011  0.00  0.00    +0.060 A 
ATOM     10  C   UNK A  0        0.920   6.217   0.025  0.00  0.00    -0.010 A 
ATOM     11  C   UNK A  0       -0.214   5.423   0.032  0.00  0.00    +0.260 A 
ATOM     12  N   UNK A  0       -0.119   4.110   0.019  0.00  0.00    -0.440 NA
ENDBRANCH   5   7
BRANCH   3  13
ATOM     13  C   UNK A  0        3.739  -0.576  -0.036  0.00  0.00    +0.530 C 
ATOM     14  F   UNK A  0        3.655  -1.810   0.618  0.00  0.00    -0.170 F 
ATOM     15  F   UNK A  0        4.670   0.237   0.619  0.00  0.00    -0.160 F 
ATOM     16  F   UNK A  0        4.144  -0.777  -1.360  0.00  0.00    -0.160 F 
ENDBRANCH   3  13
BRANCH   1  17
ATOM     17  N   GLY A  1       -1.182  -0.723   0.009  0.00  0.00    -0.680 N 
ATOM     18  H   GLY A  1       -2.033  -0.257   0.019  0.00  0.00    +0.420 HD
BRANCH  17  20
ATOM     19  CB  GLY A  1       -1.000  -2.703   1.434  0.00  0.00    +0.060 C 
ATOM     20  CA  GLY A  1       -1.150  -2.188   0.001  0.00  0.00    +0.240 C 
BRANCH  20  21
ATOM     21  C   GLY A  1       -2.432  -2.715  -0.591  0.00  0.00    +0.510 C 
ATOM     22  N   GLY A  1       -2.626  -4.044  -0.700  0.00  0.00    -0.720 N 
ATOM     23  H   GLY A  1       -1.942  -4.662  -0.398  0.00  0.00    +0.410 HD
ATOM     24  O   GLY A  1       -3.288  -1.944  -0.968  0.00  0.00    -0.530 OA
BRANCH  22  25
ATOM     25  CA  GLY A  1       -3.872  -4.557  -1.275  0.00  0.00    +0.290 C 
BRANCH  25  26
ATOM     26  C   GLY A  1       -3.839  -6.087  -1.284  0.00  0.00    +0.190 C 
BRANCH  26  27
ATOM     27  O   GLY A  1       -3.816  -6.570   0.061  0.00  0.00    -0.570 OA
ATOM     28  H   GLY A  1       -3.794  -7.534   0.132  0.00  0.00    +0.390 HD
ENDBRANCH  26  27
ENDBRANCH  25  26
ENDBRANCH  22  25
ENDBRANCH  20  21
ENDBRANCH  17  20
ENDBRANCH   1  17
TORSDOF 8
