REMARK  Name = ZINCrH000004pADc.0
REMARK                            x       y       z     vdW  Elec       q    Type
REMARK                         _______ _______ _______ _____ _____    ______ ____
ROOT
ATOM      1  N   LIG    1       -3.437   4.484   4.840  0.00  0.00    -0.600 N 
ATOM      2  C   LIG    1       -4.708   4.922   4.937  0.00  0.00    +0.560 C 
ATOM      3  O   LIG    1       -5.606   4.137   5.172  0.00  0.00    -0.520 OA
ATOM      4  C   LIG    1       -2.340   5.443   4.691  0.00  0.00    +0.290 C 
ENDROOT
BRANCH   2   5
ATOM      5  C   LIG    1       -5.009   6.355   4.758  0.00  0.00    -0.120 A 
ATOM      6  C   LIG    1       -6.031   6.954   5.500  0.00  0.00    +0.100 A 
ATOM      7  C   LIG    1       -6.306   8.287   5.335  0.00  0.00    +0.000 A 
ATOM      8  C   LIG    1       -5.575   9.042   4.421  0.00  0.00    -0.080 A 
ATOM      9  C   LIG    1       -4.559   8.447   3.676  0.00  0.00    +0.050 A 
ATOM     10  C   LIG    1       -4.277   7.115   3.841  0.00  0.00    +0.080 A 
BRANCH   8  11
ATOM     11  S   LIG    1       -5.935  10.753   4.206  0.00  0.00    -0.010 S 
BRANCH  11  12
ATOM     12  C   LIG    1       -7.298  11.033   5.371  0.00  0.00    +0.450 C 
ATOM     13  F   LIG    1       -8.377  10.209   5.033  0.00  0.00    -0.160 F 
ATOM     14  F   LIG    1       -7.696  12.372   5.310  0.00  0.00    -0.140 F 
ATOM     15  F   LIG    1       -6.871  10.732   6.669  0.00  0.00    -0.160 F 
ENDBRANCH  11  12
ENDBRANCH   8  11
ENDBRANCH   2   5
BRANCH   1  17
ATOM     16  C   LIG    1       -2.320   2.729   6.125  0.00  0.00    +0.050 C 
ATOM     17  C   LIG    1       -3.153   3.047   4.882  0.00  0.00    +0.290 C 
BRANCH  17  18
ATOM     18  C   LIG    1       -2.386   2.650   3.648  0.00  0.00    -0.040 A 
ATOM     19  C   LIG    1       -2.865   1.642   2.831  0.00  0.00    +0.010 A 
ATOM     20  C   LIG    1       -2.160   1.277   1.699  0.00  0.00    +0.130 A 
ATOM     21  C   LIG    1       -0.978   1.920   1.383  0.00  0.00    -0.680 A 
ATOM     22  C   LIG    1       -0.497   2.925   2.202  0.00  0.00    +0.120 A 
ATOM     23  C   LIG    1       -1.203   3.292   3.332  0.00  0.00    +0.000 A 
BRANCH  21  24
ATOM     24  S   LIG    1       -0.081   1.455  -0.061  0.00  0.00    +2.700 S 
ATOM     25  O   LIG    1        1.267   1.844   0.163  0.00  0.00    -0.960 OA
ATOM     26  O   LIG    1       -0.466   0.120  -0.360  0.00  0.00    -0.960 OA
BRANCH  24  27
ATOM     27  N   LIG    1       -0.638   2.393  -1.307  0.00  0.00    -1.240 NA
ATOM     28  H   LIG    1       -0.564   3.359  -1.258  0.00  0.00    +0.420 HD
ATOM     29  H   LIG    1       -1.037   1.976  -2.087  0.00  0.00    +0.420 HD
ENDBRANCH  24  27
ENDBRANCH  21  24
ENDBRANCH  17  18
ENDBRANCH   1  17
TORSDOF 7
