REMARK  Name = ZINCrg00000SjSLo.0
REMARK                            x       y       z     vdW  Elec       q    Type
REMARK                         _______ _______ _______ _____ _____    ______ ____
ROOT
ATOM      1  N   LIG    1        1.144   1.929   0.015  0.00  0.00    -0.740 N 
ATOM      2  H   LIG    1        1.127   2.899   0.008  0.00  0.00    +0.390 HD
ATOM      3  C   LIG    1       -0.011   1.234   0.029  0.00  0.00    +0.720 C 
ATOM      4  N   LIG    1       -1.190   1.887   0.028  0.00  0.00    -0.640 N 
ATOM      5  C   LIG    1       -1.361   3.348   0.024  0.00  0.00    +0.240 C 
ATOM      6  C   LIG    1       -2.877   3.631  -0.006  0.00  0.00    +0.050 C 
ATOM      7  C   LIG    1       -3.468   2.316  -0.580  0.00  0.00    +0.130 C 
ATOM      8  C   LIG    1       -2.522   1.256   0.036  0.00  0.00    +0.300 C 
ATOM      9  O   LIG    1        0.011   0.019   0.038  0.00  0.00    -0.580 OA
ENDROOT
BRANCH   7  10
ATOM     10  N   LIG    1       -4.850   2.117  -0.125  0.00  0.00    -0.530 NA
ATOM     11  C   LIG    1       -5.364   0.809  -0.557  0.00  0.00    +0.150 C 
ATOM     12  C   LIG    1       -6.782   0.618  -0.013  0.00  0.00    +0.220 C 
ATOM     13  O   LIG    1       -7.607   1.698  -0.458  0.00  0.00    -0.380 OA
ATOM     14  C   LIG    1       -7.137   2.987  -0.053  0.00  0.00    +0.220 C 
ATOM     15  C   LIG    1       -5.722   3.202  -0.599  0.00  0.00    +0.150 C 
ENDBRANCH   7  10
BRANCH   1  16
ATOM     16  C   LIG    1        2.426   1.219   0.011  0.00  0.00    +0.290 C 
BRANCH  16  22
ATOM     17  C   LIG    1        4.908   1.498   0.112  0.00  0.00    +0.260 C 
ATOM     18  O   LIG    1        5.978   2.442   0.037  0.00  0.00    -0.380 OA
ATOM     19  C   LIG    1        6.029   3.172  -1.191  0.00  0.00    +0.220 C 
ATOM     20  C   LIG    1        4.736   3.975  -1.360  0.00  0.00    -0.010 C 
ATOM     21  C   LIG    1        3.541   3.018  -1.321  0.00  0.00    +0.020 C 
ATOM     22  C   LIG    1        3.571   2.234  -0.006  0.00  0.00    -0.030 C 
BRANCH  17  28
ATOM     23  C   LIG    1        6.188   2.532   2.739  0.00  0.00    +0.350 C 
ATOM     24  N   LIG    1        5.528   1.235   2.569  0.00  0.00    -0.350 N 
ATOM     25  N   LIG    1        5.368   0.256   3.558  0.00  0.00    -0.290 NA
ATOM     26  C   LIG    1        4.733  -0.758   3.030  0.00  0.00    +0.240 A 
ATOM     27  C   LIG    1        4.464  -0.456   1.691  0.00  0.00    -0.110 A 
ATOM     28  C   LIG    1        4.968   0.773   1.432  0.00  0.00    +0.090 A 
ENDBRANCH  17  28
ENDBRANCH  16  22
ENDBRANCH   1  16
TORSDOF 4
