REMARK  Name = ZINCpe000000XN8c.0
REMARK                            x       y       z     vdW  Elec       q    Type
REMARK                         _______ _______ _______ _____ _____    ______ ____
ROOT
ATOM      1  C   LIG    1        4.041   5.740  -2.734  0.00  0.00    +0.530 C 
ATOM      2  N   LIG    1        5.095   6.515  -3.058  0.00  0.00    -0.610 N 
ATOM      3  C   LIG    1        5.099   7.332  -4.283  0.00  0.00    +0.300 C 
ATOM      4  C   LIG    1        5.178   8.799  -3.865  0.00  0.00    +0.120 C 
ATOM      5  C   LIG    1        6.245   9.004  -2.824  0.00  0.00    -0.230 A 
ATOM      6  C   LIG    1        6.733   8.013  -2.061  0.00  0.00    +0.170 A 
ATOM      7  N   LIG    1        7.690   8.295  -1.115  0.00  0.00    -0.640 N 
ATOM      8  H   LIG    1        8.031   7.581  -0.554  0.00  0.00    +0.440 HD
ATOM      9  C   LIG    1        8.160   9.543  -0.956  0.00  0.00    +0.700 A 
ATOM     10  N   LIG    1        7.702  10.552  -1.719  0.00  0.00    -0.660 N 
ATOM     11  H   LIG    1        8.054  11.448  -1.600  0.00  0.00    +0.430 HD
ATOM     12  O   LIG    1        9.008   9.763  -0.113  0.00  0.00    -0.530 OA
ATOM     13  C   LIG    1        6.758  10.319  -2.649  0.00  0.00    +0.550 A 
ATOM     14  O   LIG    1        6.342  11.233  -3.338  0.00  0.00    -0.500 OA
ATOM     15  C   LIG    1        6.284   6.585  -2.201  0.00  0.00    +0.370 C 
ATOM     16  O   LIG    1        3.069   5.705  -3.458  0.00  0.00    -0.500 OA
ENDROOT
BRANCH   1  17
ATOM     17  C   LIG    1        4.070   4.917  -1.472  0.00  0.00    +0.160 C 
ATOM     18  C   LIG    1        5.244   3.938  -1.529  0.00  0.00    +0.060 C 
BRANCH  17  19
ATOM     19  O   LIG    1        2.847   4.187  -1.351  0.00  0.00    -0.350 OA
BRANCH  19  20
ATOM     20  C   LIG    1        2.451   3.937  -0.001  0.00  0.00    +0.220 C 
BRANCH  20  25
ATOM     21  C   LIG    1       -2.514   0.980   0.019  0.00  0.00    +0.090 C 
ATOM     22  C   LIG    1       -1.219   1.751   0.017  0.00  0.00    -0.080 A 
ATOM     23  C   LIG    1       -0.013   1.076   0.008  0.00  0.00    -0.010 A 
ATOM     24  C   LIG    1        1.175   1.783   0.000  0.00  0.00    +0.030 A 
ATOM     25  C   LIG    1        1.156   3.165   0.008  0.00  0.00    -0.100 A 
ATOM     26  C   LIG    1       -0.050   3.840   0.022  0.00  0.00    +0.030 A 
ATOM     27  C   LIG    1       -1.238   3.133   0.030  0.00  0.00    +0.000 A 
ENDBRANCH  20  25
ENDBRANCH  19  20
ENDBRANCH  17  19
ENDBRANCH   1  17
TORSDOF 4
