REMARK  Name = ZINCvU0000000J04.0
REMARK                            x       y       z     vdW  Elec       q    Type
REMARK                         _______ _______ _______ _____ _____    ______ ____
ROOT
ATOM      1  O   LIG    1       -1.268  -0.203   0.448  0.00  0.00    -0.510 OA
ATOM      2  C   LIG    1       -0.126   0.189   0.309  0.00  0.00    +0.560 C 
ATOM      3  N   LIG    1        0.138   1.511   0.310  0.00  0.00    -0.670 N 
ATOM      4  H   LIG    1        1.056   1.823   0.282  0.00  0.00    +0.410 HD
ENDROOT
BRANCH   2   5
ATOM      5  C   LIG    1        0.974  -0.783   0.139  0.00  0.00    -0.120 A 
ATOM      6  C   LIG    1        2.286  -0.335  -0.026  0.00  0.00    +0.030 A 
ATOM      7  C   LIG    1        3.312  -1.246  -0.179  0.00  0.00    +0.040 A 
ATOM      8  C   LIG    1        3.045  -2.602  -0.180  0.00  0.00    +0.020 A 
ATOM      9  C   LIG    1        1.741  -3.058  -0.022  0.00  0.00    +0.140 A 
ATOM     10  C   LIG    1        0.704  -2.152   0.138  0.00  0.00    +0.100 A 
BRANCH   9  11
ATOM     11  N   LIG    1        1.476  -4.431  -0.025  0.00  0.00    -0.670 N 
ATOM     12  H   LIG    1        2.115  -5.050   0.362  0.00  0.00    +0.410 HD
ATOM     13  C   LIG    1        0.332  -4.896  -0.565  0.00  0.00    +0.590 C 
ATOM     14  O   LIG    1       -0.508  -4.116  -0.974  0.00  0.00    -0.500 OA
BRANCH  13  15
ATOM     15  C   LIG    1        0.100  -6.339  -0.661  0.00  0.00    -0.280 A 
ATOM     16  C   LIG    1       -1.016  -6.930  -1.186  0.00  0.00    +0.120 A 
ATOM     17  C   LIG    1       -0.971  -8.304  -1.150  0.00  0.00    +0.000 A 
ATOM     18  C   LIG    1        0.141  -8.822  -0.615  0.00  0.00    -0.050 A 
ATOM     19  S   LIG    1        1.214  -7.589  -0.125  0.00  0.00    +0.200 S 
ENDBRANCH  13  15
ENDBRANCH   9  11
ENDBRANCH   2   5
BRANCH   3  20
ATOM     20  C   LIG    1       -0.914   2.434   0.345  0.00  0.00    +0.140 A 
ATOM     21  C   LIG    1       -2.163   2.084  -0.152  0.00  0.00    +0.040 A 
ATOM     22  C   LIG    1       -3.201   2.993  -0.112  0.00  0.00    +0.010 A 
ATOM     23  C   LIG    1       -2.995   4.261   0.416  0.00  0.00    +0.120 A 
ATOM     24  C   LIG    1       -1.745   4.613   0.908  0.00  0.00    +0.040 A 
ATOM     25  C   LIG    1       -0.708   3.702   0.873  0.00  0.00    +0.000 A 
BRANCH  23  26
ATOM     26  N   LIG    1       -4.047   5.184   0.452  0.00  0.00    -0.660 N 
ATOM     27  H   LIG    1       -4.955   4.879   0.606  0.00  0.00    +0.420 HD
ATOM     28  C   LIG    1       -3.798   6.496   0.273  0.00  0.00    +0.610 C 
ATOM     29  O   LIG    1       -2.676   6.869  -0.016  0.00  0.00    -0.500 OA
BRANCH  28  30
ATOM     30  C   LIG    1       -4.879   7.475   0.427  0.00  0.00    -0.090 A 
ATOM     31  C   LIG    1       -4.765   8.827   0.275  0.00  0.00    +0.050 A 
ATOM     32  C   LIG    1       -6.038   9.369   0.512  0.00  0.00    -0.070 A 
ATOM     33  C   LIG    1       -6.863   8.337   0.795  0.00  0.00    +0.210 A 
ATOM     34  O   LIG    1       -6.162   7.197   0.737  0.00  0.00    -0.170 OA
ENDBRANCH  28  30
ENDBRANCH  23  26
ENDBRANCH   3  20
TORSDOF 6
