REMARK  Name = ZINCqH0000034lxC.0
REMARK                            x       y       z     vdW  Elec       q    Type
REMARK                         _______ _______ _______ _____ _____    ______ ____
ROOT
ATOM      1  C   LIG    1        0.725   8.137   2.077  0.00  0.00    +0.610 C 
ATOM      2  N   LIG    1       -0.151   7.310   1.472  0.00  0.00    -0.610 N 
ATOM      3  C   LIG    1       -1.346   7.837   0.793  0.00  0.00    +0.240 C 
ATOM      4  C   LIG    1       -1.407   7.234  -0.615  0.00  0.00    +0.230 C 
ATOM      5  O   LIG    1       -1.304   5.811  -0.524  0.00  0.00    -0.360 OA
ATOM      6  C   LIG    1       -0.070   5.347   0.030  0.00  0.00    +0.180 C 
ATOM      7  C   LIG    1        0.059   5.853   1.471  0.00  0.00    +0.280 C 
ATOM      8  O   LIG    1        1.706   7.682   2.632  0.00  0.00    -0.510 OA
ENDROOT
BRANCH   1  14
ATOM      9  C   LIG    1       -0.252  10.411   3.034  0.00  0.00    +0.060 A 
ATOM     10  N   LIG    1       -0.170  11.630   2.589  0.00  0.00    -0.350 NA
ATOM     11  O   LIG    1        0.457  11.701   1.561  0.00  0.00    +0.100 OA
ATOM     12  C   LIG    1        0.913  10.519   1.141  0.00  0.00    +0.020 A 
ATOM     13  C   LIG    1        1.728  10.253  -0.098  0.00  0.00    +0.210 C 
ATOM     14  C   LIG    1        0.493   9.592   2.064  0.00  0.00    -0.250 A 
BRANCH   9  16
ATOM     15  C   LIG    1        0.015   9.976   5.461  0.00  0.00    +0.040 C 
ATOM     16  C   LIG    1       -0.957   9.937   4.279  0.00  0.00    +0.120 C 
ENDBRANCH   9  16
ENDBRANCH   1  14
BRANCH   6  17
ATOM     17  C   LIG    1       -0.050   3.840   0.022  0.00  0.00    -0.040 A 
ATOM     18  C   LIG    1       -1.238   3.133   0.029  0.00  0.00    +0.050 A 
ATOM     19  C   LIG    1       -1.219   1.750   0.017  0.00  0.00    +0.050 A 
ATOM     20  C   LIG    1       -0.013   1.076   0.008  0.00  0.00    +0.030 A 
ATOM     21  C   LIG    1        1.175   1.783   0.000  0.00  0.00    +0.070 A 
ATOM     22  C   LIG    1        1.157   3.165   0.008  0.00  0.00    -0.170 A 
BRANCH  22  23
ATOM     23  C   LIG    1        2.451   3.937   0.000  0.00  0.00    +0.500 C 
ATOM     24  F   LIG    1        2.525   4.736   1.146  0.00  0.00    -0.170 F 
ATOM     25  F   LIG    1        2.504   4.748  -1.138  0.00  0.00    -0.170 F 
ATOM     26  F   LIG    1        3.527   3.042  -0.014  0.00  0.00    -0.170 F 
ENDBRANCH  22  23
ENDBRANCH   6  17
TORSDOF 4
