REMARK  Name = ZINCqH0000037MDQ.0
REMARK                            x       y       z     vdW  Elec       q    Type
REMARK                         _______ _______ _______ _____ _____    ______ ____
ROOT
ATOM      1  C   LIG    1       -7.646   1.806   0.600  0.00  0.00    -0.120 A 
ATOM      2  C   LIG    1       -7.483   1.294   1.875  0.00  0.00    +0.050 A 
ATOM      3  C   LIG    1       -6.257   0.791   2.273  0.00  0.00    +0.010 A 
ATOM      4  C   LIG    1       -5.190   0.793   1.399  0.00  0.00    +0.050 A 
ATOM      5  C   LIG    1       -5.347   1.314   0.113  0.00  0.00    -0.130 A 
ATOM      6  C   LIG    1       -6.586   1.819  -0.282  0.00  0.00    +0.090 A 
ENDROOT
BRANCH   5   7
ATOM      7  C   LIG    1       -4.206   1.324  -0.828  0.00  0.00    +0.560 C 
ATOM      8  N   LIG    1       -3.555   0.178  -1.110  0.00  0.00    -0.600 N 
ATOM      9  C   LIG    1       -2.507   0.179  -2.115  0.00  0.00    +0.280 C 
ATOM     10  C   LIG    1       -1.110  -0.047  -1.569  0.00  0.00    +0.030 C 
ATOM     11  C   LIG    1       -0.968  -1.472  -1.013  0.00  0.00    +0.150 C 
ATOM     12  C   LIG    1       -1.555  -1.480   0.382  0.00  0.00    +0.010 A 
ATOM     13  C   LIG    1       -2.856  -1.282   0.665  0.00  0.00    -0.210 A 
ATOM     14  C   LIG    1       -3.002  -1.331   2.059  0.00  0.00    -0.050 A 
ATOM     15  C   LIG    1       -1.774  -1.576   2.561  0.00  0.00    +0.170 A 
ATOM     16  O   LIG    1       -0.906  -1.673   1.537  0.00  0.00    -0.170 OA
ATOM     17  C   LIG    1       -3.917  -1.058  -0.396  0.00  0.00    +0.360 C 
ATOM     18  O   LIG    1       -3.856   2.366  -1.347  0.00  0.00    -0.530 OA
ENDBRANCH   5   7
BRANCH   1  19
ATOM     19  C   LIG    1       -8.985   2.352   0.175  0.00  0.00    +0.380 C 
BRANCH  19  26
ATOM     20  C   LIG    1      -10.912   0.479   1.721  0.00  0.00    +0.140 C 
ATOM     21  C   LIG    1      -10.626   0.456   0.241  0.00  0.00    +0.090 A 
ATOM     22  C   LIG    1      -11.168  -0.393  -0.663  0.00  0.00    -0.120 A 
ATOM     23  C   LIG    1      -10.638  -0.079  -1.919  0.00  0.00    +0.070 A 
ATOM     24  N   LIG    1       -9.813   0.925  -1.775  0.00  0.00    -0.290 NA
ATOM     25  C   LIG    1      -10.966  -0.775  -3.215  0.00  0.00    +0.160 C 
ATOM     26  N   LIG    1       -9.784   1.278  -0.419  0.00  0.00    -0.370 N 
ENDBRANCH  19  26
ENDBRANCH   1  19
TORSDOF 3
