REMARK  Name = ZINCvU0000000HoN.0
REMARK                            x       y       z     vdW  Elec       q    Type
REMARK                         _______ _______ _______ _____ _____    ______ ____
ROOT
ATOM      1  C   LIG    1       -0.828   1.501   1.093  0.00  0.00    +0.010 C 
ATOM      2  C   LIG    1       -0.074   0.973  -0.129  0.00  0.00    +0.100 C 
ENDROOT
BRANCH   1   3
ATOM      3  C   LIG    1       -0.900   3.005   1.028  0.00  0.00    +0.450 C 
ATOM      4  O   LIG    1       -0.073   3.678   1.608  0.00  0.00    -0.460 OA
BRANCH   3   5
ATOM      5  C   LIG    1       -1.968   3.654   0.264  0.00  0.00    -0.260 A 
ATOM      6  C   LIG    1       -2.171   5.012   0.107  0.00  0.00    +0.130 A 
ATOM      7  N   LIG    1       -3.260   5.186  -0.668  0.00  0.00    -0.390 N 
ATOM      8  C   LIG    1       -3.785   3.976  -1.030  0.00  0.00    +0.020 A 
ATOM      9  C   LIG    1       -5.003   3.776  -1.893  0.00  0.00    +0.130 C 
ATOM     10  C   LIG    1       -1.323   6.108   0.698  0.00  0.00    +0.150 C 
ATOM     11  C   LIG    1       -3.038   2.995  -0.497  0.00  0.00    +0.000 A 
BRANCH   7  12
ATOM     12  C   LIG    1       -3.780   6.430  -1.050  0.00  0.00    +0.100 A 
ATOM     13  C   LIG    1       -4.305   7.288  -0.092  0.00  0.00    +0.020 A 
ATOM     14  C   LIG    1       -4.811   8.516  -0.471  0.00  0.00    +0.020 A 
ATOM     15  C   LIG    1       -4.806   8.886  -1.803  0.00  0.00    +0.020 A 
ATOM     16  C   LIG    1       -4.289   8.032  -2.759  0.00  0.00    +0.020 A 
ATOM     17  C   LIG    1       -3.776   6.805  -2.386  0.00  0.00    +0.020 A 
ENDBRANCH   7  12
ENDBRANCH   3   5
ENDBRANCH   1   3
BRANCH   1  18
ATOM     18  S   LIG    1        0.043   1.004   2.600  0.00  0.00    +0.050 S 
BRANCH  18  20
ATOM     19  N   LIG    1        0.323  -1.662   3.395  0.00  0.00    -0.450 N 
ATOM     20  C   LIG    1       -0.147  -0.745   2.501  0.00  0.00    +0.160 A 
ATOM     21  N   LIG    1       -0.774  -1.409   1.554  0.00  0.00    -0.290 NA
ATOM     22  N   LIG    1       -0.719  -2.671   1.790  0.00  0.00    -0.250 NA
ATOM     23  C   LIG    1       -0.063  -2.890   2.906  0.00  0.00    +0.210 A 
BRANCH  23  24
ATOM     24  C   LIG    1        0.210  -4.205   3.521  0.00  0.00    +0.030 A 
ATOM     25  C   LIG    1        0.118  -5.384   2.771  0.00  0.00    +0.020 A 
ATOM     26  C   LIG    1        0.386  -6.589   3.384  0.00  0.00    +0.280 A 
ATOM     27  N   LIG    1        0.714  -6.642   4.661  0.00  0.00    -0.480 NA
ATOM     28  C   LIG    1        0.807  -5.556   5.406  0.00  0.00    +0.270 A 
ATOM     29  C   LIG    1        0.561  -4.309   4.873  0.00  0.00    -0.040 A 
ENDBRANCH  23  24
BRANCH  19  31
ATOM     30  C   LIG    1        0.112  -1.098   5.765  0.00  0.00    +0.050 C 
ATOM     31  C   LIG    1        1.082  -1.396   4.620  0.00  0.00    +0.300 C 
ENDBRANCH  19  31
ENDBRANCH  18  20
ENDBRANCH   1  18
TORSDOF 7
