REMARK  Name = ZINCnE000001TDrp.0
REMARK                            x       y       z     vdW  Elec       q    Type
REMARK                         _______ _______ _______ _____ _____    ______ ____
ROOT
ATOM      1  N   LIG    1       -4.574   3.508  -0.161  0.00  0.00    -0.430 N 
ATOM      2  C   LIG    1       -3.468   3.527  -1.144  0.00  0.00    +0.230 C 
ATOM      3  C   LIG    1       -2.553   3.868   0.045  0.00  0.00    +0.030 C 
ATOM      4  C   LIG    1       -3.622   3.207   0.934  0.00  0.00    +0.200 C 
ENDROOT
BRANCH   1   9
ATOM      5  CA  LIG    1       -5.970   0.570  -1.643  0.00  0.00    +0.100 A 
ATOM      6  C   LIG    1       -7.092   0.324  -0.858  0.00  0.00    -0.010 A 
ATOM      7  C   LIG    1       -7.379   1.176   0.200  0.00  0.00    +0.050 A 
ATOM      8  C   LIG    1       -6.535   2.245   0.435  0.00  0.00    -0.050 A 
ATOM      9  C   LIG    1       -5.426   2.436  -0.391  0.00  0.00    +0.240 A 
ATOM     10  N   LIG    1       -5.182   1.611  -1.392  0.00  0.00    -0.470 NA
BRANCH   5  12
ATOM     11  O   LIG    1       -6.378  -1.288  -3.012  0.00  0.00    -0.680 OA
ATOM     12  C   LIG    1       -5.655  -0.332  -2.773  0.00  0.00    +0.530 C 
ATOM     13  OXT LIG    1       -4.671  -0.121  -3.467  0.00  0.00    -0.660 OA
ENDBRANCH   5  12
ENDBRANCH   1   9
BRANCH   3  14
ATOM     14  C   LIG    1       -1.238   3.133   0.029  0.00  0.00    -0.070 A 
ATOM     15  C   LIG    1       -1.219   1.751   0.017  0.00  0.00    +0.060 A 
ATOM     16  C   LIG    1       -0.013   1.076   0.008  0.00  0.00    +0.030 A 
ATOM     17  C   LIG    1        1.175   1.783   0.000  0.00  0.00    +0.060 A 
ATOM     18  C   LIG    1        1.156   3.166   0.008  0.00  0.00    -0.190 A 
ATOM     19  C   LIG    1       -0.050   3.840   0.022  0.00  0.00    +0.070 A 
BRANCH  18  20
ATOM     20  C   LIG    1        2.451   3.937   0.000  0.00  0.00    +0.510 C 
ATOM     21  F   LIG    1        2.525   4.736   1.146  0.00  0.00    -0.180 F 
ATOM     22  F   LIG    1        2.503   4.748  -1.138  0.00  0.00    -0.180 F 
ATOM     23  F   LIG    1        3.526   3.042  -0.014  0.00  0.00    -0.180 F 
ENDBRANCH  18  20
ENDBRANCH   3  14
TORSDOF 4
