REMARK  Name = ZINCrH000004uGF8.0
REMARK                            x       y       z     vdW  Elec       q    Type
REMARK                         _______ _______ _______ _____ _____    ______ ____
ROOT
ATOM      1  O   LIG    1        4.198   8.309   0.111  0.00  0.00    -0.560 OA
ATOM      2  C   LIG    1        3.377   9.206   0.123  0.00  0.00    +0.710 C 
ATOM      3  N   LIG    1        2.063   8.918   0.032  0.00  0.00    -0.680 N 
ATOM      4  H   LIG    1        1.413   9.635  -0.036  0.00  0.00    +0.410 HD
ATOM      5  N   LIG    1        3.780  10.488   0.228  0.00  0.00    -0.740 N 
ATOM      6  H   LIG    1        3.125  11.203   0.238  0.00  0.00    +0.400 HD
ENDROOT
BRANCH   3   7
ATOM      7  C   LIG    1        1.637   7.587   0.035  0.00  0.00    +0.190 A 
ATOM      8  C   LIG    1        2.331   6.638   0.778  0.00  0.00    +0.020 A 
ATOM      9  C   LIG    1        1.914   5.325   0.784  0.00  0.00    +0.090 A 
ATOM     10  C   LIG    1        0.794   4.947   0.042  0.00  0.00    -0.050 A 
ATOM     11  C   LIG    1        0.103   5.901  -0.709  0.00  0.00    +0.060 A 
ATOM     12  C   LIG    1        0.521   7.213  -0.705  0.00  0.00    -0.020 A 
BRANCH  10  13
ATOM     13  C   LIG    1        0.344   3.539   0.045  0.00  0.00    +0.120 A 
ATOM     14  N   LIG    1        0.910   2.566   0.700  0.00  0.00    -0.470 NA
ATOM     15  C   LIG    1        0.366   1.375   0.588  0.00  0.00    +0.220 A 
ATOM     16  C   LIG    1       -0.710   1.298  -0.201  0.00  0.00    -0.070 A 
ATOM     17  S   LIG    1       -1.045   2.908  -0.836  0.00  0.00    +0.080 S 
ENDBRANCH  10  13
ENDBRANCH   3   7
BRANCH   5  18
ATOM     18  C   LIG    1        5.208  10.800   0.327  0.00  0.00    +0.360 C 
BRANCH  18  19
ATOM     19  C   LIG    1        5.389  12.293   0.433  0.00  0.00    -0.040 A 
ATOM     20  C   LIG    1        5.409  12.919   1.671  0.00  0.00    -0.020 A 
ATOM     21  C   LIG    1        5.577  14.289   1.734  0.00  0.00    +0.310 A 
ATOM     22  N   LIG    1        5.718  15.003   0.634  0.00  0.00    -0.500 NA
ATOM     23  C   LIG    1        5.705  14.442  -0.565  0.00  0.00    +0.370 A 
ATOM     24  C   LIG    1        5.545  13.069  -0.702  0.00  0.00    +0.000 A 
BRANCH  23  25
ATOM     25  N   LIG    1        5.859  15.239  -1.703  0.00  0.00    -0.330 N 
ATOM     26  C   LIG    1        6.023  16.588  -1.721  0.00  0.00    +0.260 A 
ATOM     27  C   LIG    1        6.137  16.970  -3.013  0.00  0.00    -0.100 A 
ATOM     28  C   LIG    1        6.031  15.825  -3.812  0.00  0.00    +0.270 A 
ATOM     29  N   LIG    1        5.865  14.790  -3.030  0.00  0.00    -0.290 NA
ENDBRANCH  23  25
ENDBRANCH  18  19
ENDBRANCH   5  18
TORSDOF 5
