REMARK  Name = ZINCrH000004sZ5p.0
REMARK                            x       y       z     vdW  Elec       q    Type
REMARK                         _______ _______ _______ _____ _____    ______ ____
ROOT
ATOM      1  N   LIG    1        0.059  -4.173  -0.019  0.00  0.00    -0.670 N 
ATOM      2  H   LIG    1        0.901  -4.646  -0.106  0.00  0.00    +0.410 HD
ATOM      3  C   LIG    1       -1.094  -4.863   0.090  0.00  0.00    +0.570 C 
ATOM      4  O   LIG    1       -2.157  -4.273   0.103  0.00  0.00    -0.510 OA
ENDROOT
BRANCH   1   8
ATOM      5  C   LIG    1        0.003  -0.004   0.018  0.00  0.00    -0.000 A 
ATOM      6  C   LIG    1        0.945  -0.682  -0.753  0.00  0.00    +0.020 A 
ATOM      7  C   LIG    1        0.965  -2.061  -0.759  0.00  0.00    +0.000 A 
ATOM      8  C   LIG    1        0.040  -2.774  -0.006  0.00  0.00    +0.130 A 
ATOM      9  C   LIG    1       -0.903  -2.100   0.759  0.00  0.00    +0.030 A 
ATOM     10  C   LIG    1       -0.923  -0.721   0.773  0.00  0.00    +0.030 A 
BRANCH   5  14
ATOM     11  C   LIG    1        1.119   4.782  -0.899  0.00  0.00    +0.360 C 
ATOM     12  N   LIG    1        0.475   3.575  -0.374  0.00  0.00    -0.370 N 
ATOM     13  C   LIG    1        0.830   2.304  -0.652  0.00  0.00    +0.250 A 
ATOM     14  C   LIG    1       -0.017   1.480   0.031  0.00  0.00    -0.200 A 
ATOM     15  C   LIG    1       -0.910   2.294   0.755  0.00  0.00    +0.250 A 
ATOM     16  N   LIG    1       -0.611   3.543   0.509  0.00  0.00    -0.290 NA
ENDBRANCH   5  14
ENDBRANCH   1   8
BRANCH   3  17
ATOM     17  C   LIG    1       -1.066  -6.336   0.194  0.00  0.00    -0.190 A 
ATOM     18  C   LIG    1       -2.258  -7.063   0.308  0.00  0.00    +0.150 A 
ATOM     19  C   LIG    1       -2.181  -8.439   0.403  0.00  0.00    -0.010 A 
ATOM     20  C   LIG    1       -0.930  -9.054   0.382  0.00  0.00    +0.190 A 
ATOM     21  N   LIG    1        0.181  -8.335   0.273  0.00  0.00    -0.470 NA
ATOM     22  C   LIG    1        0.150  -7.024   0.175  0.00  0.00    +0.310 A 
BRANCH  20  23
ATOM     23  C   LIG    1       -0.839 -10.531   0.483  0.00  0.00    -0.010 A 
ATOM     24  C   LIG    1       -1.990 -11.315   0.605  0.00  0.00    -0.010 A 
ATOM     25  C   LIG    1       -1.859 -12.687   0.690  0.00  0.00    +0.260 A 
ATOM     26  N   LIG    1       -0.670 -13.256   0.669  0.00  0.00    -0.480 NA
ATOM     27  C   LIG    1        0.440 -12.553   0.562  0.00  0.00    +0.260 A 
ATOM     28  C   LIG    1        0.401 -11.177   0.465  0.00  0.00    +0.020 A 
ENDBRANCH  20  23
ENDBRANCH   3  17
TORSDOF 4
