REMARK  Name = ZINCrH00000No4I6.0
REMARK                            x       y       z     vdW  Elec       q    Type
REMARK                         _______ _______ _______ _____ _____    ______ ____
ROOT
ATOM      1  C   LIG    1        5.288  -3.234  -4.516  0.00  0.00    +0.560 C 
ATOM      2  N   LIG    1        4.870  -2.237  -3.712  0.00  0.00    -0.620 N 
ATOM      3  C   LIG    1        5.833  -1.420  -2.958  0.00  0.00    +0.290 C 
ATOM      4  C   LIG    1        5.404  -1.394  -1.487  0.00  0.00    +0.170 C 
ATOM      5  N   LIG    1        4.006  -0.949  -1.396  0.00  0.00    -0.530 NA
ATOM      6  C   LIG    1        3.102  -1.892  -2.068  0.00  0.00    +0.170 C 
ATOM      7  C   LIG    1        3.437  -1.939  -3.563  0.00  0.00    +0.280 C 
ATOM      8  O   LIG    1        6.479  -3.410  -4.698  0.00  0.00    -0.560 OA
ENDROOT
BRANCH   1  10
ATOM      9  C   LIG    1        4.762  -5.143  -5.869  0.00  0.00    +0.180 C 
ATOM     10  C   LIG    1        4.343  -4.077  -5.151  0.00  0.00    -0.130 C 
BRANCH   9  14
ATOM     11  C   LIG    1        0.373  -7.159  -7.503  0.00  0.00    +0.130 C 
ATOM     12  C   LIG    1        1.833  -6.893  -7.240  0.00  0.00    +0.020 A 
ATOM     13  C   LIG    1        2.321  -5.876  -6.509  0.00  0.00    -0.030 A 
ATOM     14  C   LIG    1        3.782  -6.016  -6.527  0.00  0.00    -0.180 A 
ATOM     15  C   LIG    1        4.047  -7.132  -7.295  0.00  0.00    +0.070 A 
ATOM     16  C   LIG    1        5.413  -7.683  -7.613  0.00  0.00    +0.140 C 
ATOM     17  N   LIG    1        2.871  -7.647  -7.707  0.00  0.00    -0.410 N 
BRANCH  17  18
ATOM     18  C   LIG    1        2.727  -8.841  -8.544  0.00  0.00    +0.170 C 
ATOM     19  C   LIG    1        1.739  -9.913  -8.081  0.00  0.00    +0.050 C 
ATOM     20  C   LIG    1        3.245 -10.165  -7.979  0.00  0.00    +0.040 C 
ENDBRANCH  17  18
ENDBRANCH   9  14
ENDBRANCH   1  10
BRANCH   5  21
ATOM     21  C   LIG    1        3.609  -0.745   0.003  0.00  0.00    +0.220 C 
BRANCH  21  22
ATOM     22  C   LIG    1        2.267  -0.061   0.050  0.00  0.00    -0.080 A 
ATOM     23  C   LIG    1        1.108  -0.814   0.072  0.00  0.00    +0.000 A 
ATOM     24  C   LIG    1       -0.123  -0.187   0.116  0.00  0.00    +0.000 A 
ATOM     25  C   LIG    1       -0.195   1.193   0.138  0.00  0.00    +0.000 A 
ATOM     26  C   LIG    1        0.964   1.946   0.116  0.00  0.00    +0.000 A 
ATOM     27  C   LIG    1        2.195   1.319   0.071  0.00  0.00    +0.020 A 
ENDBRANCH  21  22
ENDBRANCH   5  21
TORSDOF 5
