REMARK  Name = ZINCvU0000000B81.0
REMARK                            x       y       z     vdW  Elec       q    Type
REMARK                         _______ _______ _______ _____ _____    ______ ____
ROOT
ATOM      1  S   LIG    1       -1.167   4.734   6.077  0.00  0.00    +0.090 S 
ENDROOT
BRANCH   1   3
ATOM      2  N   LIG    1       -0.772   3.928   3.426  0.00  0.00    -0.460 N 
ATOM      3  C   LIG    1       -1.610   4.112   4.489  0.00  0.00    +0.140 A 
ATOM      4  N   LIG    1       -2.808   3.737   4.104  0.00  0.00    -0.290 NA
ATOM      5  N   LIG    1       -2.769   3.342   2.881  0.00  0.00    -0.250 NA
ATOM      6  C   LIG    1       -1.554   3.431   2.420  0.00  0.00    +0.200 A 
BRANCH   2   7
ATOM      7  C   LIG    1        0.665   4.206   3.375  0.00  0.00    +0.300 C 
BRANCH   7   8
ATOM      8  C   LIG    1        0.889   5.645   2.907  0.00  0.00    +0.010 C 
BRANCH   8  10
ATOM      9  C   LIG    1        2.615   7.375   2.386  0.00  0.00    +0.020 C 
ATOM     10  C   LIG    1        2.391   5.936   2.853  0.00  0.00    +0.020 C 
ENDBRANCH   8  10
ENDBRANCH   7   8
ENDBRANCH   2   7
BRANCH   6  11
ATOM     11  C   LIG    1       -1.096   3.060   1.033  0.00  0.00    +0.240 C 
BRANCH  11  12
ATOM     12  N   LIG    1       -2.048   3.587   0.046  0.00  0.00    -0.530 NA
ATOM     13  C   LIG    1       -1.692   3.153  -1.312  0.00  0.00    +0.210 C 
ATOM     14  C   LIG    1       -2.134   5.051   0.126  0.00  0.00    +0.200 C 
ENDBRANCH  11  12
BRANCH  11  15
ATOM     15  C   LIG    1       -1.023   1.537   0.910  0.00  0.00    +0.050 C 
ATOM     16  C   LIG    1       -0.004   0.992   1.913  0.00  0.00    +0.020 C 
ENDBRANCH  11  15
ENDBRANCH   6  11
ENDBRANCH   1   3
BRANCH   1  17
ATOM     17  C   LIG    1       -2.779   4.678   6.897  0.00  0.00    +0.120 C 
BRANCH  17  18
ATOM     18  C   LIG    1       -2.640   5.180   8.312  0.00  0.00    +0.540 C 
ATOM     19  N   LIG    1       -3.719   5.228   9.118  0.00  0.00    -0.660 N 
ATOM     20  H   LIG    1       -4.566   4.862   8.818  0.00  0.00    +0.420 HD
ATOM     21  O   LIG    1       -1.558   5.540   8.724  0.00  0.00    -0.500 OA
BRANCH  19  22
ATOM     22  C   LIG    1       -3.618   5.808  10.388  0.00  0.00    +0.160 A 
ATOM     23  C   LIG    1       -2.768   6.885  10.596  0.00  0.00    +0.100 A 
ATOM     24  C   LIG    1       -2.674   7.458  11.849  0.00  0.00    -0.160 A 
ATOM     25  C   LIG    1       -3.417   6.953  12.900  0.00  0.00    +0.080 A 
ATOM     26  C   LIG    1       -4.262   5.877  12.699  0.00  0.00    +0.060 A 
ATOM     27  C   LIG    1       -4.364   5.302  11.446  0.00  0.00    -0.030 A 
ATOM     28 CL   LIG    1       -5.423   3.950  11.194  0.00  0.00    -0.040 Cl
BRANCH  24  29
ATOM     29  C   LIG    1       -1.756   8.632  12.073  0.00  0.00    +0.510 C 
ATOM     30  F   LIG    1       -2.146   9.693  11.249  0.00  0.00    -0.170 F 
ATOM     31  F   LIG    1       -0.442   8.262  11.767  0.00  0.00    -0.170 F 
ATOM     32  F   LIG    1       -1.827   9.032  13.412  0.00  0.00    -0.170 F 
ENDBRANCH  24  29
ENDBRANCH  19  22
ENDBRANCH  17  18
ENDBRANCH   1  17
TORSDOF 11
