REMARK  Name = ZINCvU0000000JGw.0
REMARK                            x       y       z     vdW  Elec       q    Type
REMARK                         _______ _______ _______ _____ _____    ______ ____
ROOT
ATOM      1  O   LIG    1        1.077  -1.063   1.335  0.00  0.00    -0.460 OA
ATOM      2  C   LIG    1        0.086  -0.364   1.331  0.00  0.00    +0.530 C 
ATOM      3  N   LIG    1       -1.087  -0.859   0.888  0.00  0.00    -0.540 N 
ATOM      4  C   LIG    1       -2.250  -0.113   1.097  0.00  0.00    +0.150 A 
ATOM      5  C   LIG    1       -2.216   0.892   2.060  0.00  0.00    -0.030 A 
ATOM      6  C   LIG    1       -3.333   1.666   2.304  0.00  0.00    +0.060 A 
ATOM      7  C   LIG    1       -4.498   1.448   1.592  0.00  0.00    +0.010 A 
ATOM      8  C   LIG    1       -4.545   0.453   0.636  0.00  0.00    +0.070 A 
ATOM      9  C   LIG    1       -3.425  -0.333   0.386  0.00  0.00    -0.120 A 
ATOM     10  S   LIG    1       -3.530  -1.600  -0.837  0.00  0.00    -0.100 S 
ATOM     11  C   LIG    1       -1.784  -1.993  -1.150  0.00  0.00    +0.110 C 
ATOM     12  C   LIG    1       -1.087  -2.150   0.205  0.00  0.00    +0.290 C 
ENDROOT
BRANCH  12  13
ATOM     13  C   LIG    1        0.332  -2.609  -0.009  0.00  0.00    -0.050 A 
ATOM     14  C   LIG    1        1.148  -1.940  -0.902  0.00  0.00    +0.010 A 
ATOM     15  C   LIG    1        2.451  -2.359  -1.095  0.00  0.00    +0.010 A 
ATOM     16  C   LIG    1        2.936  -3.452  -0.400  0.00  0.00    +0.000 A 
ATOM     17  C   LIG    1        2.119  -4.124   0.489  0.00  0.00    +0.010 A 
ATOM     18  C   LIG    1        0.817  -3.703   0.685  0.00  0.00    +0.020 A 
ENDBRANCH  12  13
BRANCH   2  19
ATOM     19  C   LIG    1        0.165   1.058   1.823  0.00  0.00    +0.120 C 
BRANCH  19  20
ATOM     20  S   LIG    1        1.800   1.737   1.444  0.00  0.00    +0.130 S 
BRANCH  20  21
ATOM     21  C   LIG    1        1.619   3.358   2.109  0.00  0.00    +0.120 A 
ATOM     22  N   LIG    1        0.550   3.843   2.698  0.00  0.00    -0.280 NA
ATOM     23  N   LIG    1        0.773   5.057   3.059  0.00  0.00    -0.260 NA
ATOM     24  C   LIG    1        1.991   5.397   2.716  0.00  0.00    +0.220 A 
ATOM     25  O   LIG    1        2.555   4.327   2.112  0.00  0.00    -0.200 OA
BRANCH  24  26
ATOM     26  C   LIG    1        2.632   6.707   2.951  0.00  0.00    -0.030 A 
ATOM     27  C   LIG    1        3.946   6.930   2.534  0.00  0.00    +0.050 A 
ATOM     28  C   LIG    1        4.537   8.157   2.752  0.00  0.00    +0.010 A 
ATOM     29  C   LIG    1        3.835   9.163   3.392  0.00  0.00    +0.040 A 
ATOM     30  C   LIG    1        2.534   8.947   3.812  0.00  0.00    +0.020 A 
ATOM     31  C   LIG    1        1.929   7.727   3.595  0.00  0.00    +0.080 A 
ENDBRANCH  24  26
ENDBRANCH  20  21
ENDBRANCH  19  20
ENDBRANCH   2  19
TORSDOF 5
