REMARK  Name = ZINCpk00000KfLnF.2
REMARK                            x       y       z     vdW  Elec       q    Type
REMARK                         _______ _______ _______ _____ _____    ______ ____
ROOT
ATOM      1  N   LIG    1       -0.542   2.188   1.200  0.00  0.00    -0.510 NA
ATOM      2  C   LIG    1       -0.941   3.504   0.653  0.00  0.00    +0.170 C 
ATOM      3  C   LIG    1       -1.104   3.334  -0.869  0.00  0.00    +0.030 C 
ATOM      4  C   LIG    1       -0.747   1.856  -1.150  0.00  0.00    +0.140 C 
ATOM      5  C   LIG    1        0.114   1.468   0.078  0.00  0.00    +0.180 C 
ENDROOT
BRANCH   4   6
ATOM      6  N   LIG    1        0.030   1.732  -2.390  0.00  0.00    -0.530 NA
ATOM      7  C   LIG    1       -0.737   2.222  -3.543  0.00  0.00    +0.200 C 
BRANCH   6   8
ATOM      8  C   LIG    1        0.468   0.345  -2.600  0.00  0.00    +0.320 C 
BRANCH   8   9
ATOM      9  C   LIG    1        1.458   0.298  -3.736  0.00  0.00    +0.180 A 
ATOM     10  N   LIG    1        1.178   0.123  -4.993  0.00  0.00    -0.380 NA
ATOM     11  O   LIG    1        2.195   0.138  -5.654  0.00  0.00    +0.080 OA
ATOM     12  C   LIG    1        3.252   0.320  -4.857  0.00  0.00    +0.180 A 
ATOM     13  C   LIG    1        4.695   0.393  -5.284  0.00  0.00    +0.250 C 
ATOM     14  N   LIG    1        2.793   0.423  -3.633  0.00  0.00    -0.470 NA
ENDBRANCH   8   9
ENDBRANCH   6   8
ENDBRANCH   4   6
BRANCH   1  15
ATOM     15  C   LIG    1        0.377   2.341   2.336  0.00  0.00    +0.230 C 
BRANCH  15  20
ATOM     16  C   LIG    1       -0.546   5.500   4.203  0.00  0.00    -0.140 A 
ATOM     17  C   LIG    1       -1.352   4.989   5.222  0.00  0.00    +0.040 A 
ATOM     18  C   LIG    1       -1.589   3.632   5.294  0.00  0.00    +0.000 A 
ATOM     19  C   LIG    1       -1.030   2.778   4.361  0.00  0.00    +0.060 A 
ATOM     20  C   LIG    1       -0.229   3.279   3.348  0.00  0.00    -0.090 A 
ATOM     21  C   LIG    1        0.020   4.633   3.268  0.00  0.00    +0.080 A 
BRANCH  16  25
ATOM     22  C   LIG    1       -0.576   9.228   4.945  0.00  0.00    +0.290 C 
ATOM     23  N   LIG    1       -0.832   7.788   5.028  0.00  0.00    -0.730 N 
ATOM     24  H   LIG    1       -1.392   7.435   5.737  0.00  0.00    +0.400 HD
ATOM     25  C   LIG    1       -0.288   6.954   4.120  0.00  0.00    +0.560 C 
ATOM     26  O   LIG    1        0.414   7.396   3.231  0.00  0.00    -0.530 OA
ENDBRANCH  16  25
ENDBRANCH  15  20
ENDBRANCH   1  15
TORSDOF 6
