REMARK  Name = ZINCrH000004v1xz.0
REMARK                            x       y       z     vdW  Elec       q    Type
REMARK                         _______ _______ _______ _____ _____    ______ ____
ROOT
ATOM      1  O   LIG    1       -1.543  -4.414  -1.965  0.00  0.00    -0.570 OA
ATOM      2  C   LIG    1       -0.815  -4.227  -2.921  0.00  0.00    +0.700 C 
ATOM      3  N   LIG    1        0.169  -3.308  -2.849  0.00  0.00    -0.730 N 
ATOM      4  H   LIG    1        0.750  -3.159  -3.611  0.00  0.00    +0.400 HD
ATOM      5  N   LIG    1       -0.991  -4.938  -4.052  0.00  0.00    -0.670 N 
ATOM      6  H   LIG    1       -0.465  -4.733  -4.840  0.00  0.00    +0.420 HD
ENDROOT
BRANCH   3   7
ATOM      7  C   LIG    1        0.360  -2.535  -1.619  0.00  0.00    +0.250 C 
ATOM      8  C   LIG    1        1.234  -3.331  -0.644  0.00  0.00    -0.010 C 
ATOM      9  C   LIG    1        1.486  -2.490   0.611  0.00  0.00    +0.220 C 
ATOM     10  O   LIG    1        2.114  -1.260   0.239  0.00  0.00    -0.360 OA
ATOM     11  C   LIG    1        1.348  -0.460  -0.653  0.00  0.00    +0.090 C 
ATOM     12  C   LIG    1        2.093   0.856  -0.961  0.00  0.00    +0.050 C 
ATOM     13  C   LIG    1        1.409   1.849   0.014  0.00  0.00    +0.220 C 
ATOM     14  O   LIG    1        0.029   1.421   0.021  0.00  0.00    -0.370 OA
ATOM     15  C   LIG    1        0.035  -0.018   0.011  0.00  0.00    +0.180 C 
ATOM     16  C   LIG    1        1.060  -1.212  -1.949  0.00  0.00    +0.020 C 
ENDBRANCH   3   7
BRANCH   5  17
ATOM     17  C   LIG    1       -1.935  -5.974  -4.088  0.00  0.00    +0.210 A 
ATOM     18  C   LIG    1       -2.310  -6.614  -2.918  0.00  0.00    +0.040 A 
ATOM     19  C   LIG    1       -3.245  -7.633  -2.956  0.00  0.00    -0.010 A 
ATOM     20  C   LIG    1       -3.801  -8.023  -4.161  0.00  0.00    +0.010 A 
ATOM     21  C   LIG    1       -3.428  -7.392  -5.334  0.00  0.00    +0.020 A 
ATOM     22 CL   LIG    1       -3.718  -8.430  -1.488  0.00  0.00    -0.060 Cl
ATOM     23  C   LIG    1       -2.495  -6.367  -5.304  0.00  0.00    +0.050 A 
BRANCH  23  24
ATOM     24  N   LIG    1       -2.117  -5.727  -6.490  0.00  0.00    -0.500 N 
ATOM     25  C   LIG    1       -3.253  -5.017  -7.091  0.00  0.00    +0.180 C 
ATOM     26  C   LIG    1       -2.771  -4.214  -8.302  0.00  0.00    +0.020 C 
ATOM     27  C   LIG    1       -2.143  -5.166  -9.323  0.00  0.00    +0.010 C 
ATOM     28  C   LIG    1       -0.993  -5.928  -8.658  0.00  0.00    +0.020 C 
ATOM     29  C   LIG    1       -1.526  -6.682  -7.437  0.00  0.00    +0.180 C 
ENDBRANCH  23  24
ENDBRANCH   5  17
TORSDOF 3
