REMARK  Name = ZINCpk00000eapcn.0
REMARK                            x       y       z     vdW  Elec       q    Type
REMARK                         _______ _______ _______ _____ _____    ______ ____
ROOT
ATOM      1  C   LIG    1       -0.787   2.890   1.346  0.00  0.00    +0.220 A 
ATOM      2  C   LIG    1       -0.256   3.743   0.390  0.00  0.00    -0.090 A 
ATOM      3  C   LIG    1       -0.366   5.112   0.558  0.00  0.00    +0.250 A 
ATOM      4  C   LIG    1       -1.015   5.623   1.697  0.00  0.00    -0.230 A 
ATOM      5  C   LIG    1       -1.113   7.084   1.845  0.00  0.00    +0.570 A 
ATOM      6  N   LIG    1       -0.577   7.863   0.881  0.00  0.00    -0.550 N 
ATOM      7  C   LIG    1        0.033   7.329  -0.188  0.00  0.00    +0.710 A 
ATOM      8  O   LIG    1        0.499   8.077  -1.026  0.00  0.00    -0.530 OA
ATOM      9  O   LIG    1       -1.665   7.577   2.811  0.00  0.00    -0.480 OA
ATOM     10  C   LIG    1       -1.544   4.753   2.650  0.00  0.00    +0.190 A 
ATOM     11  N   LIG    1        0.151   6.003  -0.372  0.00  0.00    -0.640 N 
ATOM     12  H   LIG    1        0.601   5.665  -1.162  0.00  0.00    +0.440 HD
ATOM     13  C   LIG    1       -1.434   3.402   2.469  0.00  0.00    -0.110 A 
ATOM     14 CL   LIG    1       -2.098   2.317   3.651  0.00  0.00    -0.040 Cl
ENDROOT
BRANCH   1  16
ATOM     15  C   LIG    1       -0.013   1.086   0.008  0.00  0.00    +0.250 C 
ATOM     16  O   LIG    1       -0.682   1.547   1.184  0.00  0.00    -0.290 OA
ENDBRANCH   1  16
BRANCH   6  17
ATOM     17  C   LIG    1       -0.662   9.321   1.006  0.00  0.00    +0.390 C 
BRANCH  17  18
ATOM     18  C   LIG    1       -1.927   9.808   0.350  0.00  0.00    -0.090 A 
ATOM     19  C   LIG    1       -3.050  10.005   1.093  0.00  0.00    +0.120 A 
ATOM     20  C   LIG    1       -4.222  10.462   0.461  0.00  0.00    +0.190 A 
ATOM     21  N   LIG    1       -5.440  10.742   0.894  0.00  0.00    -0.280 NA
ATOM     22  N   LIG    1       -6.168  11.131  -0.093  0.00  0.00    -0.250 NA
ATOM     23  C   LIG    1       -5.472  11.124  -1.200  0.00  0.00    +0.350 A 
ATOM     24  N   LIG    1       -4.216  10.701  -0.892  0.00  0.00    -0.390 N 
ATOM     25  C   LIG    1       -3.084  10.499  -1.625  0.00  0.00    +0.230 A 
ATOM     26  C   LIG    1       -1.952  10.067  -1.031  0.00  0.00    +0.040 A 
ENDBRANCH  17  18
ENDBRANCH   6  17
TORSDOF 3
