REMARK  Name = ZINCvU0000000Eyx.0
REMARK                            x       y       z     vdW  Elec       q    Type
REMARK                         _______ _______ _______ _____ _____    ______ ____
ROOT
ATOM      1  C   LIG    1       -2.222   0.538  -0.186  0.00  0.00    +0.360 C 
ENDROOT
BRANCH   1   2
ATOM      2  C   LIG    1       -3.432   1.250   0.363  0.00  0.00    -0.130 A 
ATOM      3  C   LIG    1       -3.647   2.583   0.065  0.00  0.00    +0.060 A 
ATOM      4  C   LIG    1       -4.753   3.240   0.564  0.00  0.00    +0.000 A 
ATOM      5  C   LIG    1       -5.657   2.568   1.383  0.00  0.00    +0.120 A 
ATOM      6  O   LIG    1       -6.789   3.020   1.989  0.00  0.00    -0.300 OA
ATOM      7  C   LIG    1       -7.609   1.899   2.359  0.00  0.00    +0.240 C 
ATOM      8  C   LIG    1       -6.572   0.768   2.560  0.00  0.00    +0.070 C 
ATOM      9  C   LIG    1       -5.430   1.229   1.675  0.00  0.00    -0.170 A 
ATOM     10  C   LIG    1       -4.327   0.574   1.173  0.00  0.00    +0.090 A 
ENDBRANCH   1   2
BRANCH   1  11
ATOM     11  C   LIG    1       -2.485   0.130  -1.613  0.00  0.00    -0.070 A 
ATOM     12  C   LIG    1       -1.979   0.887  -2.652  0.00  0.00    +0.050 A 
ATOM     13  C   LIG    1       -2.220   0.512  -3.962  0.00  0.00    -0.030 A 
ATOM     14  C   LIG    1       -2.966  -0.621  -4.231  0.00  0.00    +0.050 A 
ATOM     15  C   LIG    1       -3.472  -1.378  -3.192  0.00  0.00    +0.060 A 
ATOM     16 CL   LIG    1       -1.585   1.464  -5.268  0.00  0.00    -0.060 Cl
ATOM     17  C   LIG    1       -3.227  -1.007  -1.882  0.00  0.00    -0.020 A 
ATOM     18 CL   LIG    1       -3.856  -1.962  -0.576  0.00  0.00    -0.050 Cl
ENDBRANCH   1  11
BRANCH   1  20
ATOM     19  C   LIG    1        0.181   0.924  -0.086  0.00  0.00    +0.570 C 
ATOM     20  N   LIG    1       -1.065   1.435  -0.139  0.00  0.00    -0.720 N 
ATOM     21  H   LIG    1       -1.195   2.396  -0.147  0.00  0.00    +0.400 HD
ATOM     22  O   LIG    1        0.345  -0.281  -0.077  0.00  0.00    -0.500 OA
BRANCH  19  25
ATOM     23  C   LIG    1        2.829  -0.176   0.306  0.00  0.00    +0.150 C 
ATOM     24  C   LIG    1        2.632   1.310   0.143  0.00  0.00    +0.050 A 
ATOM     25  C   LIG    1        1.350   1.828  -0.046  0.00  0.00    -0.150 A 
ATOM     26  C   LIG    1        1.176   3.206  -0.190  0.00  0.00    +0.110 A 
ATOM     27  C   LIG    1        2.270   4.044  -0.151  0.00  0.00    +0.030 A 
ATOM     28  C   LIG    1        3.539   3.523   0.030  0.00  0.00    +0.140 A 
ATOM     29  C   LIG    1        3.719   2.159   0.174  0.00  0.00    -0.060 A 
BRANCH  29  30
ATOM     30  N   LIG    1        5.080   1.610   0.367  0.00  0.00    +0.030 N 
ATOM     31  O   LIG    1        5.255   0.404   0.370  0.00  0.00    -0.150 OA
ATOM     32  O   LIG    1        6.024   2.363   0.524  0.00  0.00    -0.160 OA
ENDBRANCH  29  30
ENDBRANCH  19  25
ENDBRANCH   1  20
TORSDOF 5
