REMARK  Name = ZINCrH000004tsV9.0
REMARK                            x       y       z     vdW  Elec       q    Type
REMARK                         _______ _______ _______ _____ _____    ______ ____
ROOT
ATOM      1  N   LIG    1        5.436  -3.045  -1.450  0.00  0.00    -0.470 N 
ATOM      2  C   LIG    1        5.128  -4.147  -2.222  0.00  0.00    +0.060 A 
ATOM      3  C   LIG    1        4.390  -5.302  -2.006  0.00  0.00    +0.010 A 
ATOM      4  C   LIG    1        4.265  -6.232  -3.017  0.00  0.00    +0.040 A 
ATOM      5  C   LIG    1        4.867  -6.016  -4.249  0.00  0.00    +0.000 A 
ATOM      6  C   LIG    1        5.592  -4.882  -4.481  0.00  0.00    +0.070 A 
ATOM      7  C   LIG    1        5.732  -3.926  -3.471  0.00  0.00    +0.040 A 
ATOM      8  N   LIG    1        6.372  -2.731  -3.395  0.00  0.00    -0.460 NA
ATOM      9  C   LIG    1        6.198  -2.216  -2.213  0.00  0.00    +0.280 A 
ENDROOT
BRANCH   1  10
ATOM     10  C   LIG    1        5.024  -2.813  -0.063  0.00  0.00    +0.370 C 
BRANCH  10  14
ATOM     11  C   LIG    1        1.292  -0.726  -0.014  0.00  0.00    -0.130 A 
ATOM     12  C   LIG    1        2.493  -0.015  -0.028  0.00  0.00    +0.050 A 
ATOM     13  C   LIG    1        3.694  -0.694  -0.038  0.00  0.00    +0.020 A 
ATOM     14  C   LIG    1        3.709  -2.078  -0.046  0.00  0.00    -0.090 A 
ATOM     15  C   LIG    1        2.522  -2.789  -0.037  0.00  0.00    +0.030 A 
ATOM     16  C   LIG    1        1.315  -2.121  -0.022  0.00  0.00    +0.090 A 
BRANCH  11  20
ATOM     17  N   LIG    1       -0.016   1.344   0.009  0.00  0.00    -0.850 N 
ATOM     18  H   LIG    1       -0.863   1.817   0.016  0.00  0.00    +0.410 HD
ATOM     19  H   LIG    1        0.817   1.840   0.004  0.00  0.00    +0.400 HD
ATOM     20  C   LIG    1        0.002  -0.004   0.002  0.00  0.00    +0.560 C 
ATOM     21  O   LIG    1       -1.042  -0.626   0.009  0.00  0.00    -0.530 OA
ENDBRANCH  11  20
ENDBRANCH  10  14
ENDBRANCH   1  10
BRANCH   9  22
ATOM     22  C   LIG    1        6.760  -0.894  -1.756  0.00  0.00    +0.320 C 
BRANCH  22  23
ATOM     23  O   LIG    1        8.050  -1.099  -1.177  0.00  0.00    -0.310 OA
BRANCH  23  24
ATOM     24  C   LIG    1        8.699   0.000  -0.711  0.00  0.00    +0.130 A 
ATOM     25  C   LIG    1        8.108   1.251  -0.815  0.00  0.00    -0.080 A 
ATOM     26  C   LIG    1        8.768   2.367  -0.336  0.00  0.00    +0.050 A 
ATOM     27  C   LIG    1       10.020   2.238   0.237  0.00  0.00    -0.030 A 
ATOM     28  C   LIG    1       10.613   0.993   0.336  0.00  0.00    +0.050 A 
ATOM     29  C   LIG    1        9.955  -0.126  -0.137  0.00  0.00    -0.020 A 
ENDBRANCH  23  24
ENDBRANCH  22  23
ENDBRANCH   9  22
TORSDOF 6
