REMARK  Name = ZINCkj000005hoVg.1
REMARK                            x       y       z     vdW  Elec       q    Type
REMARK                         _______ _______ _______ _____ _____    ______ ____
ROOT
ATOM      1  C   LIG    1        1.329   1.188   1.448  0.00  0.00    +0.320 C 
ATOM      2  N   LIG    1       -0.002   0.788   0.973  0.00  0.00    -0.390 N 
ATOM      3  C   LIG    1       -1.026   1.333   1.874  0.00  0.00    +0.270 C 
ATOM      4  C   LIG    1       -2.406   0.842   1.434  0.00  0.00    +0.080 C 
ATOM      5  C   LIG    1       -2.681   1.309   0.004  0.00  0.00    +0.240 C 
ATOM      6  C   LIG    1       -1.561   0.823  -0.920  0.00  0.00    -0.010 C 
ATOM      7  C   LIG    1       -1.781   1.402  -2.321  0.00  0.00    +0.050 C 
ATOM      8  C   LIG    1       -1.725   2.930  -2.256  0.00  0.00    +0.010 C 
ATOM      9  C   LIG    1       -2.843   3.441  -1.342  0.00  0.00    +0.300 C 
ATOM     10  N   LIG    1       -2.729   2.775  -0.037  0.00  0.00    -0.590 N 
ATOM     11  C   LIG    1       -2.670   3.497   1.100  0.00  0.00    +0.570 C 
ATOM     12  O   LIG    1       -2.552   2.935   2.171  0.00  0.00    -0.510 OA
ATOM     13  C   LIG    1       -0.212   1.306  -0.384  0.00  0.00    +0.250 C 
ATOM     14  H   LIG    1       -0.066  -0.219   0.962  0.00  0.00    +0.420 HD
ENDROOT
BRANCH  11  15
ATOM     15  C   LIG    1       -2.748   4.972   1.044  0.00  0.00    +0.030 A 
ATOM     16  N   LIG    1       -3.295   5.564  -0.012  0.00  0.00    -0.440 NA
ATOM     17  C   LIG    1       -3.388   6.872  -0.099  0.00  0.00    +0.270 A 
ATOM     18  C   LIG    1       -2.906   7.693   0.911  0.00  0.00    +0.030 A 
ATOM     19  C   LIG    1       -2.323   7.124   2.029  0.00  0.00    +0.040 A 
ATOM     20  C   LIG    1       -2.240   5.736   2.101  0.00  0.00    +0.120 A 
BRANCH  20  21
ATOM     21  O   LIG    1       -1.677   5.133   3.178  0.00  0.00    -0.470 OA
ATOM     22  H   LIG    1       -0.725   4.985   3.093  0.00  0.00    +0.390 HD
ENDBRANCH  20  21
ENDBRANCH  11  15
TORSDOF 2
