REMARK  Name = ZINCkj000005hoVg.0
REMARK                            x       y       z     vdW  Elec       q    Type
REMARK                         _______ _______ _______ _____ _____    ______ ____
ROOT
ATOM      1  C   LIG    1        1.073  -0.387  -3.602  0.00  0.00    +0.310 C 
ATOM      2  N   LIG    1        0.283   0.071  -2.451  0.00  0.00    -0.390 N 
ATOM      3  C   LIG    1       -0.961  -0.704  -2.372  0.00  0.00    +0.270 C 
ATOM      4  C   LIG    1       -1.744  -0.290  -1.125  0.00  0.00    +0.040 C 
ATOM      5  C   LIG    1       -2.080   1.202  -1.208  0.00  0.00    +0.260 C 
ATOM      6  C   LIG    1       -0.784   2.000  -1.379  0.00  0.00    +0.000 C 
ATOM      7  C   LIG    1        0.088   1.829  -0.135  0.00  0.00    +0.010 C 
ATOM      8  C   LIG    1       -0.655   2.368   1.090  0.00  0.00    +0.020 C 
ATOM      9  C   LIG    1       -1.948   1.573   1.290  0.00  0.00    +0.290 C 
ATOM     10  N   LIG    1       -2.727   1.616   0.045  0.00  0.00    -0.590 N 
ATOM     11  C   LIG    1       -4.010   2.029   0.051  0.00  0.00    +0.580 C 
ATOM     12  O   LIG    1       -4.600   2.198  -0.999  0.00  0.00    -0.510 OA
ATOM     13  C   LIG    1       -0.031   1.496  -2.610  0.00  0.00    +0.270 C 
ATOM     14  H   LIG    1        0.816  -0.062  -1.604  0.00  0.00    +0.420 HD
ENDROOT
BRANCH  11  15
ATOM     15  C   LIG    1       -4.701   2.276   1.335  0.00  0.00    +0.030 A 
ATOM     16  N   LIG    1       -4.106   1.953   2.477  0.00  0.00    -0.440 NA
ATOM     17  C   LIG    1       -4.685   2.156   3.639  0.00  0.00    +0.260 A 
ATOM     18  C   LIG    1       -5.950   2.720   3.719  0.00  0.00    +0.030 A 
ATOM     19  C   LIG    1       -6.612   3.074   2.557  0.00  0.00    +0.040 A 
ATOM     20  C   LIG    1       -5.975   2.854   1.338  0.00  0.00    +0.130 A 
BRANCH  20  21
ATOM     21  O   LIG    1       -6.583   3.190   0.173  0.00  0.00    -0.470 OA
ATOM     22  H   LIG    1       -7.124   2.483  -0.206  0.00  0.00    +0.400 HD
ENDBRANCH  20  21
ENDBRANCH  11  15
TORSDOF 2
