REMARK  Name = ZINCpk00000ebrHB.0
REMARK                            x       y       z     vdW  Elec       q    Type
REMARK                         _______ _______ _______ _____ _____    ______ ____
ROOT
ATOM      1  O   LIG    1       -3.897   0.230   2.182  0.00  0.00    -0.540 OA
ATOM      2  C   LIG    1       -2.706   0.481   2.208  0.00  0.00    +0.550 C 
ATOM      3  N   LIG    1       -2.140   1.168   1.196  0.00  0.00    -0.610 N 
ATOM      4  C   LIG    1       -0.730   1.575   1.264  0.00  0.00    +0.270 C 
ATOM      5  C   LIG    1       -0.012   1.076   0.006  0.00  0.00    +0.020 C 
ATOM      6  C   LIG    1       -0.753   1.581  -1.234  0.00  0.00    +0.020 C 
ATOM      7  C   LIG    1       -2.179   1.025  -1.240  0.00  0.00    +0.260 C 
ATOM      8  C   LIG    1       -2.922   1.524   0.004  0.00  0.00    +0.280 C 
ENDROOT
BRANCH   7   9
ATOM      9  N   LIG    1       -2.877   1.484  -2.443  0.00  0.00    -0.630 N 
ATOM     10  C   LIG    1       -3.440   0.613  -3.486  0.00  0.00    +0.250 C 
ATOM     11  C   LIG    1       -4.053   1.598  -4.500  0.00  0.00    +0.250 C 
ATOM     12  N   LIG    1       -3.762   2.921  -3.926  0.00  0.00    -0.740 N 
ATOM     13  H   LIG    1       -4.010   3.771  -4.320  0.00  0.00    +0.430 HD
ATOM     14  C   LIG    1       -3.100   2.763  -2.772  0.00  0.00    +0.700 C 
ATOM     15  O   LIG    1       -2.734   3.697  -2.085  0.00  0.00    -0.580 OA
ENDBRANCH   7   9
BRANCH   2  16
ATOM     16  C   LIG    1       -1.890   0.037   3.337  0.00  0.00    -0.080 C 
ATOM     17  C   LIG    1       -2.432  -0.741   4.298  0.00  0.00    +0.130 C 
BRANCH  17  18
ATOM     18  C   LIG    1       -1.611  -1.187   5.432  0.00  0.00    -0.070 A 
ATOM     19  C   LIG    1       -0.267  -0.808   5.519  0.00  0.00    +0.050 A 
ATOM     20  C   LIG    1        0.499  -1.228   6.583  0.00  0.00    +0.040 A 
ATOM     21  C   LIG    1       -0.056  -2.027   7.573  0.00  0.00    +0.050 A 
ATOM     22  O   LIG    1        0.482  -2.562   8.707  0.00  0.00    -0.310 OA
ATOM     23  C   LIG    1       -0.422  -3.609   9.105  0.00  0.00    +0.440 C 
ATOM     24  O   LIG    1       -1.693  -3.184   8.579  0.00  0.00    -0.310 OA
ATOM     25  C   LIG    1       -1.397  -2.409   7.494  0.00  0.00    +0.030 A 
ATOM     26  C   LIG    1       -2.173  -1.989   6.433  0.00  0.00    +0.060 A 
ENDBRANCH  17  18
ENDBRANCH   2  16
TORSDOF 3
