REMARK  Name = ZINCpe00000gM28M.0
REMARK                            x       y       z     vdW  Elec       q    Type
REMARK                         _______ _______ _______ _____ _____    ______ ____
ROOT
ATOM      1  N   LIG    1       -1.341  -1.827  -0.037  0.00  0.00    -0.710 N 
ATOM      2  H   LIG    1       -0.520  -2.339   0.028  0.00  0.00    +0.410 HD
ATOM      3  C   LIG    1       -1.293  -0.482  -0.100  0.00  0.00    +0.560 C 
ATOM      4  O   LIG    1       -2.322   0.160  -0.182  0.00  0.00    -0.510 OA
ENDROOT
BRANCH   3   5
ATOM      5  C   LIG    1        0.009   0.213  -0.070  0.00  0.00    -0.120 A 
ATOM      6  C   LIG    1        0.909  -0.029   0.969  0.00  0.00    +0.070 A 
ATOM      7  C   LIG    1        2.125   0.623   0.992  0.00  0.00    +0.030 A 
ATOM      8  C   LIG    1        2.457   1.516  -0.011  0.00  0.00    +0.070 A 
ATOM      9  C   LIG    1        1.575   1.765  -1.046  0.00  0.00    +0.010 A 
ATOM     10  C   LIG    1        0.349   1.119  -1.084  0.00  0.00    +0.170 A 
BRANCH  10  11
ATOM     11  N   LIG    1       -0.542   1.365  -2.134  0.00  0.00    -0.340 N 
ATOM     12  C   LIG    1       -0.420   2.287  -3.115  0.00  0.00    +0.460 A 
ATOM     13  N   LIG    1       -1.472   2.176  -3.883  0.00  0.00    -0.330 NA
ATOM     14  N   LIG    1       -2.251   1.249  -3.455  0.00  0.00    -0.040 NA
ATOM     15  N   LIG    1       -1.754   0.703  -2.398  0.00  0.00    -0.030 NA
ENDBRANCH  10  11
ENDBRANCH   3   5
BRANCH   1  16
ATOM     16  C   LIG    1       -2.634  -2.516  -0.068  0.00  0.00    +0.280 C 
BRANCH  16  17
ATOM     17  C   LIG    1       -2.417  -4.016   0.141  0.00  0.00    +0.100 C 
ATOM     18  C   LIG    1       -3.772  -4.720   0.234  0.00  0.00    +0.020 C 
BRANCH  17  19
ATOM     19  N   LIG    1       -1.665  -4.234   1.384  0.00  0.00    -0.520 NA
ATOM     20  C   LIG    1       -1.363  -5.661   1.573  0.00  0.00    +0.150 C 
ATOM     21  C   LIG    1       -0.530  -5.835   2.846  0.00  0.00    +0.220 C 
ATOM     22  O   LIG    1       -1.242  -5.281   3.956  0.00  0.00    -0.380 OA
ATOM     23  C   LIG    1       -1.553  -3.893   3.805  0.00  0.00    +0.230 C 
ATOM     24  C   LIG    1       -2.396  -3.699   2.542  0.00  0.00    +0.150 C 
ENDBRANCH  17  19
BRANCH  17  26
ATOM     25  C   LIG    1       -2.345  -4.246  -2.346  0.00  0.00    +0.020 C 
ATOM     26  C   LIG    1       -1.627  -4.586  -1.039  0.00  0.00    +0.030 C 
ENDBRANCH  17  26
ENDBRANCH  16  17
ENDBRANCH   1  16
TORSDOF 6
