REMARK  Name = ZINCrg00000fRr9G.0
REMARK                            x       y       z     vdW  Elec       q    Type
REMARK                         _______ _______ _______ _____ _____    ______ ____
ROOT
ATOM      1  N   LIG    1        4.800  -0.265  -1.112  0.00  0.00    -0.730 N 
ATOM      2  H   LIG    1        4.053  -0.872  -0.993  0.00  0.00    +0.400 HD
ATOM      3  C   LIG    1        4.576   1.037  -1.379  0.00  0.00    +0.520 C 
ATOM      4  O   LIG    1        5.510   1.795  -1.528  0.00  0.00    -0.530 OA
ENDROOT
BRANCH   3   5
ATOM      5  C   LIG    1        3.163   1.550  -1.491  0.00  0.00    -0.020 C 
ATOM      6  C   LIG    1        3.187   3.050  -1.792  0.00  0.00    +0.060 C 
ATOM      7  C   LIG    1        1.754   3.566  -1.940  0.00  0.00    +0.030 C 
ATOM      8  C   LIG    1        1.000   3.348  -0.629  0.00  0.00    +0.280 C 
ATOM      9  N   LIG    1        1.096   1.931  -0.252  0.00  0.00    -0.600 N 
ATOM     10  C   LIG    1       -0.014   1.213   0.009  0.00  0.00    +0.610 C 
ATOM     11  O   LIG    1        0.065   0.011   0.184  0.00  0.00    -0.520 OA
ATOM     12  C   LIG    1        2.425   1.310  -0.170  0.00  0.00    +0.300 C 
BRANCH  10  13
ATOM     13  C   LIG    1       -1.319   1.879   0.075  0.00  0.00    -0.090 A 
ATOM     14  C   LIG    1       -2.532   1.259   0.179  0.00  0.00    +0.050 A 
ATOM     15  C   LIG    1       -3.502   2.273   0.214  0.00  0.00    -0.060 A 
ATOM     16  C   LIG    1       -2.848   3.452   0.122  0.00  0.00    +0.200 A 
ATOM     17  O   LIG    1       -1.533   3.210   0.038  0.00  0.00    -0.160 OA
ENDBRANCH  10  13
ENDBRANCH   3   5
BRANCH   1  21
ATOM     18  N   LIG    1        8.199  -2.711  -1.325  0.00  0.00    -1.000 NA
ATOM     19  C   LIG    1        7.633  -2.516   0.016  0.00  0.00    +0.300 C 
ATOM     20  C   LIG    1        6.192  -2.017  -0.124  0.00  0.00    +0.010 C 
ATOM     21  C   LIG    1        6.173  -0.764  -1.002  0.00  0.00    +0.240 C 
ATOM     22  C   LIG    1        6.703  -1.109  -2.396  0.00  0.00    +0.000 C 
ATOM     23  C   LIG    1        8.151  -1.597  -2.281  0.00  0.00    +0.300 C 
BRANCH  18  24
ATOM     24  S   LIG    1        8.879  -4.160  -1.752  0.00  0.00    +2.610 S 
ATOM     25  O   LIG    1        9.308  -4.722  -0.519  0.00  0.00    -0.950 OA
ATOM     26  O   LIG    1        9.814  -3.822  -2.768  0.00  0.00    -0.950 OA
BRANCH  24  28
ATOM     27  C   LIG    1        8.011  -6.495  -2.881  0.00  0.00    +0.070 C 
ATOM     28  C   LIG    1        7.504  -5.119  -2.445  0.00  0.00    -0.370 C 
ENDBRANCH  24  28
ENDBRANCH  18  24
ENDBRANCH   1  21
TORSDOF 5
