REMARK  Name = ZINCrD00000hQ5Kp.0
REMARK                            x       y       z     vdW  Elec       q    Type
REMARK                         _______ _______ _______ _____ _____    ______ ____
ROOT
ATOM      1  C   LIG    1        4.793   3.998   0.192  0.00  0.00    -0.120 A 
ATOM      2  C   LIG    1        4.770   5.394   0.200  0.00  0.00    +0.040 A 
ATOM      3  C   LIG    1        5.950   6.104   0.298  0.00  0.00    +0.040 A 
ATOM      4  C   LIG    1        7.157   5.437   0.388  0.00  0.00    +0.040 A 
ATOM      5  C   LIG    1        7.191   4.047   0.382  0.00  0.00    +0.140 A 
ATOM      6  C   LIG    1        6.011   3.325   0.289  0.00  0.00    +0.070 A 
ENDROOT
BRANCH   1   8
ATOM      7  O   LIG    1        3.554   2.021   0.082  0.00  0.00    -0.510 OA
ATOM      8  C   LIG    1        3.531   3.236   0.088  0.00  0.00    +0.560 C 
ATOM      9  N   LIG    1        2.355   3.888   0.001  0.00  0.00    -0.670 N 
ATOM     10  H   LIG    1        2.341   4.856  -0.071  0.00  0.00    +0.410 HD
BRANCH   9  11
ATOM     11  C   LIG    1        1.155   3.171   0.014  0.00  0.00    +0.150 A 
ATOM     12  C   LIG    1        1.050   2.004   0.759  0.00  0.00    +0.050 A 
ATOM     13  C   LIG    1       -0.138   1.298   0.771  0.00  0.00    +0.040 A 
ATOM     14  C   LIG    1       -1.219   1.749   0.036  0.00  0.00    +0.060 A 
ATOM     15  C   LIG    1       -1.119   2.914  -0.703  0.00  0.00    -0.160 A 
ATOM     16  C   LIG    1        0.065   3.624  -0.718  0.00  0.00    +0.040 A 
BRANCH  15  17
ATOM     17  C   LIG    1       -2.302   3.405  -1.497  0.00  0.00    +0.510 C 
ATOM     18  F   LIG    1       -2.258   4.800  -1.585  0.00  0.00    -0.180 F 
ATOM     19  F   LIG    1       -3.485   3.014  -0.861  0.00  0.00    -0.170 F 
ATOM     20  F   LIG    1       -2.261   2.855  -2.783  0.00  0.00    -0.170 F 
ENDBRANCH  15  17
ENDBRANCH   9  11
ENDBRANCH   1   8
BRANCH   5  21
ATOM     21  N   LIG    1        8.414   3.378   0.473  0.00  0.00    -1.070 N 
ATOM     22  H   LIG    1        8.602   2.629  -0.113  0.00  0.00    +0.430 HD
BRANCH  21  23
ATOM     23  S   LIG    1        9.543   3.865   1.583  0.00  0.00    +2.800 S 
ATOM     24  O   LIG    1        9.661   5.274   1.444  0.00  0.00    -0.960 OA
ATOM     25  O   LIG    1       10.644   2.977   1.452  0.00  0.00    -0.960 OA
BRANCH  23  26
ATOM     26  N   LIG    1        8.901   3.595   3.086  0.00  0.00    -1.040 NA
ATOM     27  C   LIG    1        8.095   4.364   4.046  0.00  0.00    +0.280 C 
ATOM     28  C   LIG    1        8.723   3.526   5.165  0.00  0.00    +0.040 C 
ATOM     29  C   LIG    1        8.892   2.485   4.050  0.00  0.00    +0.290 C 
ENDBRANCH  23  26
ENDBRANCH  21  23
ENDBRANCH   5  21
TORSDOF 6
