REMARK  Name = ZINCpk00001AZiQb.0
REMARK                            x       y       z     vdW  Elec       q    Type
REMARK                         _______ _______ _______ _____ _____    ______ ____
ROOT
ATOM      1  N   LIG    1        3.650   9.890   1.307  0.00  0.00    -0.510 NA
ATOM      2  C   LIG    1        4.881   9.088   1.315  0.00  0.00    +0.170 C 
ATOM      3  C   LIG    1        4.884   8.151   0.102  0.00  0.00    +0.290 C 
ATOM      4  N   LIG    1        3.635   7.375   0.108  0.00  0.00    -0.610 N 
ATOM      5  C   LIG    1        2.363   8.103   0.230  0.00  0.00    +0.300 C 
ATOM      6  C   LIG    1        3.655   6.031  -0.001  0.00  0.00    +0.550 C 
ATOM      7  O   LIG    1        2.612   5.412  -0.086  0.00  0.00    -0.540 OA
ATOM      8  C   LIG    1        2.459   9.041   1.444  0.00  0.00    +0.170 C 
ENDROOT
BRANCH   6   9
ATOM      9  C   LIG    1        4.935   5.316  -0.018  0.00  0.00    -0.080 C 
ATOM     10  C   LIG    1        4.955   3.969  -0.018  0.00  0.00    +0.120 C 
BRANCH  10  11
ATOM     11  C   LIG    1        6.240   3.251  -0.035  0.00  0.00    -0.050 A 
ATOM     12  C   LIG    1        6.261   1.853  -0.035  0.00  0.00    +0.040 A 
ATOM     13  C   LIG    1        7.463   1.183  -0.051  0.00  0.00    +0.080 A 
ATOM     14  C   LIG    1        8.662   1.899  -0.060  0.00  0.00    -0.130 A 
ATOM     15  C   LIG    1        8.643   3.295  -0.066  0.00  0.00    +0.040 A 
ATOM     16  C   LIG    1        7.442   3.967  -0.050  0.00  0.00    +0.020 A 
BRANCH  14  17
ATOM     17  C   LIG    1        9.953   1.178  -0.070  0.00  0.00    +0.560 C 
ATOM     18  O   LIG    1        9.971  -0.038  -0.070  0.00  0.00    -0.540 OA
ATOM     19  N   LIG    1       11.111   1.868  -0.079  0.00  0.00    -0.850 N 
ATOM     20  H   LIG    1       11.958   1.395  -0.085  0.00  0.00    +0.410 HD
ATOM     21  H   LIG    1       11.097   2.838  -0.079  0.00  0.00    +0.400 HD
ENDBRANCH  14  17
ENDBRANCH  10  11
ENDBRANCH   6   9
BRANCH   1  22
ATOM     22  C   LIG    1        3.686  10.919   2.354  0.00  0.00    +0.310 C 
BRANCH  22  24
ATOM     23  C   LIG    1        2.486  12.883   3.326  0.00  0.00    +0.030 C 
ATOM     24  C   LIG    1        2.449  11.811   2.235  0.00  0.00    -0.010 C 
ATOM     25  C   LIG    1        2.434  12.483   0.860  0.00  0.00    +0.050 C 
ENDBRANCH  22  24
BRANCH  22  26
ATOM     26  C   LIG    1        3.700  10.274   3.677  0.00  0.00    +0.170 C 
ATOM     27  N   LIG    1        3.711   9.775   4.697  0.00  0.00    -0.420 NA
ENDBRANCH  22  26
ENDBRANCH   1  22
TORSDOF 6
