REMARK  Name = ZINCqH0000051HK5.1
REMARK                            x       y       z     vdW  Elec       q    Type
REMARK                         _______ _______ _______ _____ _____    ______ ____
ROOT
ATOM      1  N   LIG    1        3.630  -0.643  -0.037  0.00  0.00    -1.050 N 
ATOM      2  H   LIG    1        3.724  -1.440  -0.580  0.00  0.00    +0.430 HD
ENDROOT
BRANCH   1   3
ATOM      3  C   LIG    1        2.368  -0.067   0.149  0.00  0.00    +0.140 A 
ATOM      4  C   LIG    1        2.237   1.311   0.233  0.00  0.00    +0.030 A 
ATOM      5  C   LIG    1        0.990   1.877   0.417  0.00  0.00    +0.020 A 
ATOM      6  C   LIG    1       -0.130   1.073   0.517  0.00  0.00    +0.040 A 
ATOM      7  C   LIG    1       -0.008  -0.302   0.435  0.00  0.00    -0.050 A 
ATOM      8  C   LIG    1        1.238  -0.877   0.251  0.00  0.00    +0.110 A 
BRANCH   8   9
ATOM      9  O   LIG    1        1.360  -2.229   0.169  0.00  0.00    -0.300 OA
BRANCH   9  10
ATOM     10  C   LIG    1        0.160  -2.997   0.282  0.00  0.00    +0.230 C 
BRANCH  10  11
ATOM     11  C   LIG    1        0.493  -4.486   0.168  0.00  0.00    +0.470 C 
ATOM     12  F   LIG    1        1.092  -4.735  -1.072  0.00  0.00    -0.170 F 
ATOM     13  F   LIG    1       -0.681  -5.237   0.278  0.00  0.00    -0.170 F 
ATOM     14  F   LIG    1        1.375  -4.846   1.192  0.00  0.00    -0.170 F 
ENDBRANCH  10  11
ENDBRANCH   9  10
ENDBRANCH   8   9
ENDBRANCH   1   3
BRANCH   1  16
ATOM     15  O   LIG    1        6.047  -0.844   0.417  0.00  0.00    -0.950 OA
ATOM     16  S   LIG    1        4.963   0.039   0.671  0.00  0.00    +2.700 S 
ATOM     17  O   LIG    1        4.967   1.407   0.286  0.00  0.00    -0.950 OA
BRANCH  16  18
ATOM     18  C   LIG    1        4.699   0.013   2.413  0.00  0.00    -0.710 A 
ATOM     19  C   LIG    1        4.083   1.083   3.035  0.00  0.00    +0.160 A 
ATOM     20  C   LIG    1        3.874   1.061   4.399  0.00  0.00    -0.030 A 
ATOM     21  C   LIG    1        4.290  -0.031   5.153  0.00  0.00    +0.190 A 
ATOM     22  O   LIG    1        4.077  -0.012   6.495  0.00  0.00    -0.310 OA
ATOM     23  C   LIG    1        4.156  -1.251   7.201  0.00  0.00    +0.240 C 
ATOM     24  C   LIG    1        5.456  -1.957   6.795  0.00  0.00    +0.010 C 
ATOM     25  C   LIG    1        5.370  -2.306   5.307  0.00  0.00    +0.090 C 
ATOM     26  C   LIG    1        4.909  -1.100   4.528  0.00  0.00    -0.180 A 
ATOM     27  C   LIG    1        5.112  -1.074   3.159  0.00  0.00    +0.160 A 
ENDBRANCH  16  18
ENDBRANCH   1  16
TORSDOF 6
