REMARK  Name = ZINCrD00000l0Yii.0
REMARK                            x       y       z     vdW  Elec       q    Type
REMARK                         _______ _______ _______ _____ _____    ______ ____
ROOT
ATOM      1  C   LIG    1       -0.742   1.585  -1.213  0.00  0.00    +0.510 C 
ATOM      2  N   LIG    1       -0.288   1.272  -2.443  0.00  0.00    -0.620 N 
ATOM      3  C   LIG    1        0.902   0.454  -2.738  0.00  0.00    +0.260 C 
ATOM      4  C   LIG    1        0.649  -0.118  -4.155  0.00  0.00    +0.050 C 
ATOM      5  C   LIG    1       -0.057   1.076  -4.851  0.00  0.00    +0.060 C 
ATOM      6  C   LIG    1       -0.903   1.686  -3.713  0.00  0.00    +0.320 C 
ATOM      7  O   LIG    1       -1.736   2.268  -1.088  0.00  0.00    -0.510 OA
ENDROOT
BRANCH   6   8
ATOM      8  C   LIG    1       -0.895   3.189  -3.821  0.00  0.00    +0.090 A 
ATOM      9  N   LIG    1       -1.894   3.888  -4.208  0.00  0.00    -0.450 NA
ATOM     10  C   LIG    1       -1.745   5.225  -4.256  0.00  0.00    +0.080 A 
ATOM     11  C   LIG    1       -2.667   6.221  -4.638  0.00  0.00    +0.080 A 
ATOM     12  C   LIG    1       -2.312   7.535  -4.614  0.00  0.00    +0.030 A 
ATOM     13  C   LIG    1       -1.040   7.920  -4.216  0.00  0.00    +0.040 A 
ATOM     14  C   LIG    1       -0.118   6.970  -3.838  0.00  0.00    +0.060 A 
ATOM     15  C   LIG    1       -0.464   5.620  -3.855  0.00  0.00    -0.180 A 
ATOM     16  S   LIG    1        0.446   4.172  -3.436  0.00  0.00    +0.100 S 
ENDBRANCH   6   8
BRANCH   1  17
ATOM     17  C   LIG    1       -0.013   1.086   0.008  0.00  0.00    +0.340 C 
BRANCH  17  19
ATOM     18  C   LIG    1       -0.401   2.888   1.752  0.00  0.00    +0.320 C 
ATOM     19  N   LIG    1       -0.698   1.558   1.213  0.00  0.00    -0.980 NA
BRANCH  19  20
ATOM     20  S   LIG    1       -1.810   0.590   1.967  0.00  0.00    +2.720 S 
ATOM     21  O   LIG    1       -2.283  -0.319   0.983  0.00  0.00    -0.940 OA
ATOM     22  O   LIG    1       -2.665   1.456   2.700  0.00  0.00    -0.940 OA
BRANCH  20  23
ATOM     23  C   LIG    1       -0.940  -0.375   3.157  0.00  0.00    -0.800 A 
ATOM     24  C   LIG    1       -0.726  -0.022   4.426  0.00  0.00    +0.170 A 
ATOM     25  C   LIG    1       -0.016  -0.943   5.176  0.00  0.00    -0.010 A 
ATOM     26  C   LIG    1        0.347  -2.044   4.517  0.00  0.00    +0.010 A 
ATOM     27  S   LIG    1       -0.226  -1.954   2.857  0.00  0.00    +0.210 S 
ENDBRANCH  20  23
ENDBRANCH  19  20
ENDBRANCH  17  19
ENDBRANCH   1  17
TORSDOF 5
