REMARK  Name = ZINCrH000004tyjB.0
REMARK                            x       y       z     vdW  Elec       q    Type
REMARK                         _______ _______ _______ _____ _____    ______ ____
ROOT
ATOM      1  C   LIG    1       -5.310   1.793   0.759  0.00  0.00    +0.610 C 
ATOM      2  N   LIG    1       -6.154   2.843   0.705  0.00  0.00    -0.610 N 
ATOM      3  C   LIG    1       -5.780   4.256   0.900  0.00  0.00    +0.250 C 
ATOM      4  C   LIG    1       -7.084   4.954   1.355  0.00  0.00    +0.040 C 
ATOM      5  C   LIG    1       -8.151   4.208   0.510  0.00  0.00    +0.030 C 
ATOM      6  C   LIG    1       -7.600   2.768   0.450  0.00  0.00    +0.240 C 
ATOM      7  O   LIG    1       -5.738   0.661   0.628  0.00  0.00    -0.510 OA
ENDROOT
BRANCH   1   9
ATOM      8  C   LIG    1       -3.022   1.022   1.201  0.00  0.00    +0.310 A 
ATOM      9  C   LIG    1       -3.925   2.007   0.967  0.00  0.00    -0.370 A 
ATOM     10  S   LIG    1       -3.151   3.580   0.956  0.00  0.00    +0.180 S 
ATOM     11  C   LIG    1       -1.565   2.889   1.276  0.00  0.00    +0.080 A 
ATOM     12  N   LIG    1       -0.381   3.491   1.417  0.00  0.00    -0.460 NA
ATOM     13  C   LIG    1        0.721   2.819   1.657  0.00  0.00    +0.320 A 
ATOM     14  C   LIG    1        0.707   1.438   1.776  0.00  0.00    -0.030 A 
ATOM     15  C   LIG    1       -0.483   0.759   1.640  0.00  0.00    +0.120 A 
ATOM     16  C   LIG    1       -1.660   1.496   1.376  0.00  0.00    -0.170 A 
BRANCH   8  17
ATOM     17  N   LIG    1       -3.369  -0.320   1.261  0.00  0.00    -0.820 N 
ATOM     18  H   LIG    1       -2.688  -0.990   1.431  0.00  0.00    +0.400 HD
ATOM     19  H   LIG    1       -4.292  -0.589   1.134  0.00  0.00    +0.420 HD
ENDBRANCH   8  17
ENDBRANCH   1   9
BRANCH   6  20
ATOM     20  C   LIG    1       -7.853   2.171  -0.935  0.00  0.00    -0.020 C 
BRANCH  20  21
ATOM     21  C   LIG    1       -7.460   0.693  -0.933  0.00  0.00    +0.280 C 
BRANCH  21  22
ATOM     22  C   LIG    1       -8.026   0.021  -2.158  0.00  0.00    -0.120 A 
ATOM     23  C   LIG    1       -9.351  -0.372  -2.180  0.00  0.00    +0.040 A 
ATOM     24  C   LIG    1       -9.873  -0.983  -3.305  0.00  0.00    -0.010 A 
ATOM     25  C   LIG    1       -9.064  -1.212  -4.405  0.00  0.00    +0.090 A 
ATOM     26  C   LIG    1       -7.736  -0.823  -4.380  0.00  0.00    -0.010 A 
ATOM     27  F   LIG    1       -9.571  -1.815  -5.503  0.00  0.00    -0.140 F 
ATOM     28  C   LIG    1       -7.218  -0.207  -3.256  0.00  0.00    +0.050 A 
ENDBRANCH  21  22
BRANCH  21  29
ATOM     29  O   LIG    1       -7.981   0.063   0.239  0.00  0.00    -0.520 OA
ATOM     30  H   LIG    1       -8.945   0.102   0.311  0.00  0.00    +0.350 HD
ENDBRANCH  21  29
ENDBRANCH  20  21
ENDBRANCH   6  20
TORSDOF 6
