REMARK  Name = ZINCpe000000Yq5q.0
REMARK                            x       y       z     vdW  Elec       q    Type
REMARK                         _______ _______ _______ _____ _____    ______ ____
ROOT
ATOM      1  C   LIG    1        0.008   7.816  -0.172  0.00  0.00    +0.060 C 
ENDROOT
BRANCH   1   2
ATOM      2  C   LIG    1       -0.272   6.339  -0.063  0.00  0.00    +0.520 C 
ATOM      3  N   LIG    1        0.750   5.465   0.024  0.00  0.00    -0.670 N 
ATOM      4  H   LIG    1        1.661   5.789   0.094  0.00  0.00    +0.420 HD
ATOM      5  O   LIG    1       -1.417   5.938  -0.054  0.00  0.00    -0.510 OA
BRANCH   3   6
ATOM      6  C   LIG    1        0.495   4.087   0.014  0.00  0.00    +0.160 A 
ATOM      7  C   LIG    1        1.301   3.227   0.746  0.00  0.00    +0.010 A 
ATOM      8  C   LIG    1        1.048   1.868   0.742  0.00  0.00    +0.060 A 
ATOM      9  C   LIG    1       -0.004   1.360  -0.002  0.00  0.00    +0.020 A 
ATOM     10  O   LIG    1       -0.455   0.082  -0.176  0.00  0.00    -0.310 OA
ATOM     11  C   LIG    1       -1.293   0.125  -1.346  0.00  0.00    +0.430 C 
ATOM     12  O   LIG    1       -1.773   1.483  -1.373  0.00  0.00    -0.310 OA
ATOM     13  C   LIG    1       -0.815   2.221  -0.739  0.00  0.00    +0.050 A 
ATOM     14  C   LIG    1       -0.564   3.582  -0.729  0.00  0.00    +0.050 A 
ENDBRANCH   3   6
ENDBRANCH   1   2
BRANCH   1  15
ATOM     15  C   LIG    1       -1.315   8.581  -0.257  0.00  0.00    +0.330 C 
BRANCH  15  23
ATOM     16  C   LIG    1       -0.075  14.962  -1.698  0.00  0.00    +0.380 C 
ATOM     17  N   LIG    1       -0.287  14.027  -0.591  0.00  0.00    -0.350 N 
ATOM     18  N   LIG    1       -0.273  14.351   0.771  0.00  0.00    -0.270 NA
ATOM     19  C   LIG    1       -0.497  13.277   1.477  0.00  0.00    +0.330 A 
ATOM     20  C   LIG    1       -0.669  12.195   0.594  0.00  0.00    -0.340 A 
ATOM     21  C   LIG    1       -0.946  10.768   0.759  0.00  0.00    +0.570 A 
ATOM     22  O   LIG    1       -1.080  10.274   1.865  0.00  0.00    -0.510 OA
ATOM     23  N   LIG    1       -1.043  10.016  -0.362  0.00  0.00    -0.550 N 
ATOM     24  C   LIG    1       -0.895  10.588  -1.584  0.00  0.00    +0.630 A 
ATOM     25  N   LIG    1       -0.653  11.855  -1.750  0.00  0.00    -0.530 NA
ATOM     26  C   LIG    1       -0.532  12.696  -0.710  0.00  0.00    +0.330 A 
ENDBRANCH  15  23
ENDBRANCH   1  15
TORSDOF 4
