REMARK  Name = ZINCrD000006Q5eV.0
REMARK                            x       y       z     vdW  Elec       q    Type
REMARK                         _______ _______ _______ _____ _____    ______ ____
ROOT
ATOM      1  N   LIG    1        2.599   0.828  -2.444  0.00  0.00    -0.610 N 
ATOM      2  H   LIG    1        1.759   1.297  -2.568  0.00  0.00    +0.430 HD
ATOM      3  C   LIG    1        3.310   0.425  -3.516  0.00  0.00    +0.570 C 
ATOM      4  O   LIG    1        4.362  -0.163  -3.361  0.00  0.00    -0.470 OA
ENDROOT
BRANCH   3   5
ATOM      5  C   LIG    1        2.808   0.697  -4.883  0.00  0.00    +0.090 A 
ATOM      6  C   LIG    1        3.549   0.283  -5.941  0.00  0.00    -0.020 A 
ATOM      7  C   LIG    1        3.048   0.568  -7.296  0.00  0.00    +0.420 A 
ATOM      8  C   LIG    1        1.938   1.538  -7.383  0.00  0.00    -0.220 A 
ATOM      9  C   LIG    1        1.551   2.095  -8.601  0.00  0.00    +0.120 A 
ATOM     10  C   LIG    1        0.519   3.007  -8.632  0.00  0.00    +0.000 A 
ATOM     11  C   LIG    1       -0.130   3.369  -7.460  0.00  0.00    +0.090 A 
ATOM     12  C   LIG    1        0.240   2.822  -6.251  0.00  0.00    +0.010 A 
ATOM     13  C   LIG    1        1.277   1.896  -6.195  0.00  0.00    +0.150 A 
ATOM     14  O   LIG    1        3.523   0.040  -8.285  0.00  0.00    -0.430 OA
ATOM     15  O   LIG    1        1.645   1.347  -5.022  0.00  0.00    -0.220 OA
ENDBRANCH   3   5
BRANCH   1  17
ATOM     16  C   LIG    1        2.426   0.940  -0.016  0.00  0.00    -0.190 A 
ATOM     17  C   LIG    1        3.068   0.574  -1.167  0.00  0.00    +0.030 A 
ATOM     18  S   LIG    1        4.524  -0.235  -0.814  0.00  0.00    +0.300 S 
ATOM     19  C   LIG    1        4.278  -0.097   0.920  0.00  0.00    -0.240 A 
ATOM     20  C   LIG    1        5.228  -0.628   1.976  0.00  0.00    +0.120 C 
ATOM     21  C   LIG    1        4.895   0.035   3.315  0.00  0.00    +0.020 C 
ATOM     22  C   LIG    1        3.390  -0.087   3.572  0.00  0.00    +0.020 C 
ATOM     23  C   LIG    1        2.638   0.822   2.598  0.00  0.00    +0.090 C 
ATOM     24  C   LIG    1        3.134   0.544   1.188  0.00  0.00    -0.050 A 
BRANCH  16  28
ATOM     25  C   LIG    1       -1.290   1.681   0.017  0.00  0.00    +0.280 C 
ATOM     26  N   LIG    1       -0.011   0.966   0.007  0.00  0.00    -0.730 N 
ATOM     27  H   LIG    1        0.002  -0.004   0.002  0.00  0.00    +0.400 HD
ATOM     28  C   LIG    1        1.147   1.655   0.000  0.00  0.00    +0.580 C 
ATOM     29  O   LIG    1        1.130   2.873   0.007  0.00  0.00    -0.520 OA
ENDBRANCH  16  28
ENDBRANCH   1  17
TORSDOF 3
