REMARK  Name = ZINCpe00000MJJ1L.1
REMARK                            x       y       z     vdW  Elec       q    Type
REMARK                         _______ _______ _______ _____ _____    ______ ____
ROOT
ATOM      1  C   LIG    1        0.045   0.188  -0.251  0.00  0.00    +0.630 C 
ATOM      2  N   LIG    1       -1.066  -0.562  -0.116  0.00  0.00    -0.610 N 
ATOM      3  C   LIG    1       -2.429  -0.048   0.079  0.00  0.00    +0.300 C 
ATOM      4  C   LIG    1       -3.373  -1.267   0.151  0.00  0.00    +0.260 C 
ATOM      5  C   LIG    1       -2.562  -2.379  -0.565  0.00  0.00    +0.140 C 
ATOM      6  C   LIG    1       -1.115  -2.036  -0.134  0.00  0.00    +0.280 C 
ATOM      7  O   LIG    1        1.128  -0.348  -0.403  0.00  0.00    -0.540 OA
ENDROOT
BRANCH   1  12
ATOM      8  C   LIG    1        4.664   3.387  -0.809  0.00  0.00    +0.110 C 
ATOM      9  C   LIG    1        3.176   3.520  -0.611  0.00  0.00    -0.070 A 
ATOM     10  C   LIG    1        2.393   2.407  -0.524  0.00  0.00    +0.070 A 
ATOM     11  C   LIG    1        1.012   2.555  -0.340  0.00  0.00    +0.100 A 
ATOM     12  C   LIG    1       -0.049   1.648  -0.214  0.00  0.00    -0.080 A 
ATOM     13  N   LIG    1       -1.174   2.375  -0.060  0.00  0.00    -0.420 NA
ATOM     14  C   LIG    1       -0.882   3.644  -0.073  0.00  0.00    +0.370 A 
ATOM     15  N   LIG    1        0.459   3.808  -0.247  0.00  0.00    -0.370 N 
ATOM     16  C   LIG    1        1.254   4.914  -0.335  0.00  0.00    +0.230 A 
ATOM     17  C   LIG    1        2.587   4.790  -0.513  0.00  0.00    +0.030 A 
ENDBRANCH   1  12
BRANCH   4  18
ATOM     18  N   LIG    1       -3.638  -1.633   1.545  0.00  0.00    -0.260 N 
ATOM     19  C   LIG    1       -2.797  -1.445   2.588  0.00  0.00    +0.140 A 
ATOM     20  C   LIG    1       -3.437  -1.925   3.680  0.00  0.00    +0.140 A 
ATOM     21  N   LIG    1       -4.622  -2.378   3.257  0.00  0.00    -0.270 NA
ATOM     22  N   LIG    1       -4.713  -2.185   1.988  0.00  0.00    -0.070 NA
ENDBRANCH   4  18
BRANCH   5  23
ATOM     23  N   LIG    1       -2.954  -3.710  -0.082  0.00  0.00    -0.530 NA
ATOM     24  C   LIG    1       -1.964  -4.724  -0.472  0.00  0.00    +0.190 C 
ATOM     25  C   LIG    1       -4.294  -4.071  -0.562  0.00  0.00    +0.200 C 
ENDBRANCH   5  23
TORSDOF 3
