REMARK  Name = ZINCqH0000004v2R.0
REMARK                            x       y       z     vdW  Elec       q    Type
REMARK                         _______ _______ _______ _____ _____    ______ ____
ROOT
ATOM      1  N   LIG    1       -1.173   1.386  -3.487  0.00  0.00    -0.740 N 
ATOM      2  H   LIG    1       -1.640   2.229  -3.377  0.00  0.00    +0.400 HD
ATOM      3  C   LIG    1       -0.401   0.910  -2.490  0.00  0.00    +0.710 C 
ATOM      4  N   LIG    1       -0.277   1.605  -1.342  0.00  0.00    -0.730 N 
ATOM      5  H   LIG    1       -0.744   2.448  -1.233  0.00  0.00    +0.400 HD
ATOM      6  O   LIG    1        0.185  -0.147  -2.627  0.00  0.00    -0.590 OA
ENDROOT
BRANCH   4   7
ATOM      7  C   LIG    1        0.563   1.087  -0.259  0.00  0.00    +0.300 C 
ATOM      8  C   LIG    1        0.117   1.677   1.096  0.00  0.00    +0.050 C 
ATOM      9  C   LIG    1        1.023   2.919   1.231  0.00  0.00    +0.080 C 
ATOM     10  C   LIG    1        2.258   2.598   0.417  0.00  0.00    -0.110 A 
ATOM     11  C   LIG    1        3.519   3.183   0.424  0.00  0.00    +0.110 A 
ATOM     12  C   LIG    1        4.508   2.713  -0.425  0.00  0.00    -0.010 A 
ATOM     13  C   LIG    1        4.240   1.661  -1.279  0.00  0.00    +0.020 A 
ATOM     14  C   LIG    1        2.986   1.080  -1.285  0.00  0.00    +0.040 A 
ATOM     15  C   LIG    1        1.994   1.546  -0.439  0.00  0.00    -0.100 A 
BRANCH  11  16
ATOM     16  O   LIG    1        3.781   4.219   1.264  0.00  0.00    -0.500 OA
ATOM     17  H   LIG    1        3.595   5.089   0.886  0.00  0.00    +0.390 HD
ENDBRANCH  11  16
ENDBRANCH   4   7
BRANCH   1  18
ATOM     18  C   LIG    1       -1.308   0.631  -4.735  0.00  0.00    +0.270 C 
BRANCH  18  19
ATOM     19  C   LIG    1       -2.319   1.329  -5.647  0.00  0.00    +0.170 C 
BRANCH  19  20
ATOM     20  C   LIG    1       -2.466   0.545  -6.925  0.00  0.00    -0.090 A 
ATOM     21  C   LIG    1       -1.652   0.827  -8.007  0.00  0.00    +0.040 A 
ATOM     22  C   LIG    1       -1.783   0.105  -9.178  0.00  0.00    +0.050 A 
ATOM     23  C   LIG    1       -2.736  -0.893  -9.272  0.00  0.00    -0.090 A 
ATOM     24  C   LIG    1       -3.554  -1.172  -8.191  0.00  0.00    +0.050 A 
ATOM     25 BR   LIG    1       -2.922  -1.876 -10.876  0.00  0.00    -0.050 Br
ATOM     26  C   LIG    1       -3.419  -0.453  -7.019  0.00  0.00    +0.030 A 
ENDBRANCH  19  20
BRANCH  19  28
ATOM     27  C   LIG    1       -2.847   3.446  -6.864  0.00  0.00    +0.040 C 
ATOM     28  C   LIG    1       -1.826   2.741  -5.968  0.00  0.00    +0.040 C 
ENDBRANCH  19  28
BRANCH  19  29
ATOM     29  O   LIG    1       -3.583   1.404  -4.986  0.00  0.00    -0.540 OA
ATOM     30  H   LIG    1       -3.957   0.543  -4.752  0.00  0.00    +0.380 HD
ENDBRANCH  19  29
ENDBRANCH  18  19
ENDBRANCH   1  18
TORSDOF 7
