REMARK  Name = ZINCvU0000000BsQ.0
REMARK                            x       y       z     vdW  Elec       q    Type
REMARK                         _______ _______ _______ _____ _____    ______ ____
ROOT
ATOM      1  N   LIG    1        1.065   2.152  -0.055  0.00  0.00    -0.610 N 
ATOM      2  H   LIG    1        1.897   1.655  -0.096  0.00  0.00    +0.430 HD
ATOM      3  C   LIG    1       -0.112   1.494  -0.034  0.00  0.00    +0.610 C 
ATOM      4  O   LIG    1       -1.156   2.117   0.012  0.00  0.00    -0.480 OA
ENDROOT
BRANCH   1   8
ATOM      5  C   LIG    1        1.981   5.588   0.010  0.00  0.00    +0.120 A 
ATOM      6  C   LIG    1        0.702   6.000   0.063  0.00  0.00    -0.250 A 
ATOM      7  S   LIG    1       -0.337   4.576   0.058  0.00  0.00    +0.200 S 
ATOM      8  C   LIG    1        1.085   3.539  -0.018  0.00  0.00    +0.270 A 
ATOM      9  C   LIG    1        0.237   7.432   0.118  0.00  0.00    +0.160 C 
ATOM     10  N   LIG    1        2.153   4.274  -0.028  0.00  0.00    -0.490 NA
BRANCH   5  14
ATOM     11  C   LIG    1        5.247   8.309  -0.020  0.00  0.00    -0.070 A 
ATOM     12  C   LIG    1        4.186   8.516   0.844  0.00  0.00    +0.000 A 
ATOM     13  C   LIG    1        3.123   7.635   0.858  0.00  0.00    +0.030 A 
ATOM     14  C   LIG    1        3.120   6.537  -0.001  0.00  0.00    -0.020 A 
ATOM     15  C   LIG    1        4.194   6.332  -0.866  0.00  0.00    +0.040 A 
ATOM     16  C   LIG    1        5.249   7.221  -0.874  0.00  0.00    +0.000 A 
BRANCH  11  17
ATOM     17  C   LIG    1        6.405   9.274  -0.030  0.00  0.00    +0.060 C 
BRANCH  17  19
ATOM     18  C   LIG    1        8.639   9.791   0.963  0.00  0.00    +0.010 C 
ATOM     19  C   LIG    1        7.463   8.812   0.973  0.00  0.00    +0.000 C 
ENDBRANCH  17  19
ENDBRANCH  11  17
ENDBRANCH   5  14
ENDBRANCH   1   8
BRANCH   3  20
ATOM     20  C   LIG    1       -0.133   0.029  -0.074  0.00  0.00    -0.070 A 
ATOM     21  C   LIG    1       -1.249  -0.758  -0.058  0.00  0.00    +0.070 A 
ATOM     22  C   LIG    1       -0.805  -2.089  -0.109  0.00  0.00    -0.030 A 
ATOM     23  C   LIG    1        0.545  -2.056  -0.153  0.00  0.00    +0.010 A 
ATOM     24  O   LIG    1        0.946  -0.778  -0.137  0.00  0.00    -0.150 OA
BRANCH  23  25
ATOM     25  C   LIG    1        1.450  -3.259  -0.215  0.00  0.00    +0.420 C 
BRANCH  25  26
ATOM     26  N   LIG    1        1.698  -3.612  -1.616  0.00  0.00    -0.500 N 
ATOM     27  C   LIG    1        0.872  -4.487  -2.244  0.00  0.00    +0.290 A 
ATOM     28  C   LIG    1        1.078  -4.824  -3.539  0.00  0.00    -0.070 A 
ATOM     29  C   LIG    1        2.160  -4.274  -4.241  0.00  0.00    +0.120 A 
ATOM     30  C   LIG    1        2.992  -3.399  -3.607  0.00  0.00    -0.090 A 
ATOM     31  C   LIG    1        2.746  -3.067  -2.263  0.00  0.00    +0.510 A 
ATOM     32  O   LIG    1        3.482  -2.286  -1.684  0.00  0.00    -0.540 OA
ENDBRANCH  25  26
ENDBRANCH  23  25
ENDBRANCH   3  20
TORSDOF 7
