REMARK  Name = ZINCpe00000VVGga.0
REMARK                            x       y       z     vdW  Elec       q    Type
REMARK                         _______ _______ _______ _____ _____    ______ ____
ROOT
ATOM      1  C   LIG    1       -3.786   2.095   0.133  0.00  0.00    +0.220 C 
ENDROOT
BRANCH   1   2
ATOM      2  N   LIG    1       -2.637   1.417   0.749  0.00  0.00    -0.520 NA
ATOM      3  C   LIG    1       -2.989   0.883   2.074  0.00  0.00    +0.190 C 
ATOM      4  C   LIG    1       -1.904  -0.104   2.506  0.00  0.00    +0.130 C 
ATOM      5  C   LIG    1       -0.547   0.528   2.353  0.00  0.00    +0.190 A 
ATOM      6  N   LIG    1        0.495  -0.011   2.978  0.00  0.00    -0.520 NA
ATOM      7  C   LIG    1        1.700   0.508   2.863  0.00  0.00    +0.510 A 
ATOM      8  N   LIG    1        1.928   1.579   2.130  0.00  0.00    -0.550 NA
ATOM      9  C   LIG    1        0.936   2.175   1.476  0.00  0.00    +0.340 A 
ATOM     10  C   LIG    1       -0.356   1.649   1.579  0.00  0.00    -0.160 A 
ATOM     11  C   LIG    1       -1.487   2.322   0.853  0.00  0.00    +0.270 C 
BRANCH   9  12
ATOM     12  N   LIG    1        1.177   3.300   0.705  0.00  0.00    -0.490 N 
ATOM     13  C   LIG    1        2.152   3.012  -0.356  0.00  0.00    +0.230 C 
ATOM     14  C   LIG    1        1.623   4.424   1.539  0.00  0.00    +0.230 C 
ENDBRANCH   9  12
ENDBRANCH   1   2
BRANCH   1  17
ATOM     15  N   LIG    1       -6.034   1.487  -0.700  0.00  0.00    -0.650 N 
ATOM     16  H   LIG    1       -6.167   2.420  -0.933  0.00  0.00    +0.410 HD
ATOM     17  C   LIG    1       -4.858   1.084  -0.179  0.00  0.00    +0.510 C 
ATOM     18  O   LIG    1       -4.663  -0.093   0.039  0.00  0.00    -0.500 OA
BRANCH  15  26
ATOM     19  C   LIG    1       -5.630  -1.370  -1.872  0.00  0.00    +0.160 C 
ATOM     20  C   LIG    1       -6.924  -0.737  -1.431  0.00  0.00    +0.100 A 
ATOM     21  N   LIG    1       -8.105  -1.299  -1.471  0.00  0.00    -0.290 NA
ATOM     22  N   LIG    1       -9.045  -0.388  -0.975  0.00  0.00    -0.370 N 
ATOM     23  C   LIG    1       -8.384   0.747  -0.628  0.00  0.00    +0.070 A 
ATOM     24  C   LIG    1       -8.998   1.993  -0.044  0.00  0.00    +0.140 C 
ATOM     25  C   LIG    1      -10.486  -0.619  -0.847  0.00  0.00    +0.360 C 
ATOM     26  C   LIG    1       -7.069   0.556  -0.907  0.00  0.00    -0.010 A 
ENDBRANCH  15  26
ENDBRANCH   1  17
TORSDOF 4
