REMARK  Name = ZINCqH0000007rFn.1
REMARK                            x       y       z     vdW  Elec       q    Type
REMARK                         _______ _______ _______ _____ _____    ______ ____
ROOT
ATOM      1  N   LIG    1        9.242  -2.095  -0.096  0.00  0.00    -0.720 N 
ATOM      2  H   LIG    1        9.675  -1.226  -0.095  0.00  0.00    +0.400 HD
ATOM      3  C   LIG    1        7.897  -2.177  -0.084  0.00  0.00    +0.710 C 
ATOM      4  N   LIG    1        7.153  -1.053  -0.071  0.00  0.00    -0.610 N 
ATOM      5  H   LIG    1        7.586  -0.185  -0.070  0.00  0.00    +0.440 HD
ATOM      6  O   LIG    1        7.354  -3.265  -0.085  0.00  0.00    -0.540 OA
ENDROOT
BRANCH   4   7
ATOM      7  C   LIG    1        5.776  -1.137  -0.059  0.00  0.00    +0.430 A 
ATOM      8  N   LIG    1        4.927  -0.128  -0.051  0.00  0.00    -0.500 NA
ATOM      9  C   LIG    1        3.699  -0.689  -0.037  0.00  0.00    +0.240 A 
ATOM     10  N   LIG    1        3.864  -1.987  -0.045  0.00  0.00    -0.380 NA
ATOM     11  O   LIG    1        5.045  -2.261  -0.058  0.00  0.00    +0.100 OA
BRANCH   9  12
ATOM     12  C   LIG    1        2.402   0.033  -0.021  0.00  0.00    -0.030 A 
ATOM     13  C   LIG    1        1.205  -0.680  -0.013  0.00  0.00    +0.050 A 
ATOM     14  C   LIG    1        0.002  -0.004   0.002  0.00  0.00    +0.010 A 
ATOM     15  C   LIG    1       -0.017   1.379   0.010  0.00  0.00    +0.030 A 
ATOM     16  C   LIG    1        1.169   2.092   0.002  0.00  0.00    +0.010 A 
ATOM     17  C   LIG    1        2.377   1.426  -0.013  0.00  0.00    +0.070 A 
ENDBRANCH   9  12
ENDBRANCH   4   7
BRANCH   1  18
ATOM     18  C   LIG    1       10.051  -3.316  -0.110  0.00  0.00    +0.320 C 
ATOM     19  C   LIG    1       10.214  -3.803  -1.551  0.00  0.00    +0.050 C 
BRANCH  18  23
ATOM     20  C   LIG    1       13.898  -2.495   1.562  0.00  0.00    +0.100 A 
ATOM     21  C   LIG    1       13.292  -1.570   0.726  0.00  0.00    -0.040 A 
ATOM     22  C   LIG    1       12.050  -1.841   0.183  0.00  0.00    +0.050 A 
ATOM     23  C   LIG    1       11.407  -3.027   0.480  0.00  0.00    -0.110 A 
ATOM     24  C   LIG    1       12.008  -3.953   1.314  0.00  0.00    +0.050 A 
ATOM     25  C   LIG    1       13.253  -3.690   1.856  0.00  0.00    +0.080 A 
ATOM     26  F   LIG    1       13.841  -4.593   2.670  0.00  0.00    -0.130 F 
BRANCH  20  28
ATOM     27  C   LIG    1       15.726  -0.985   1.748  0.00  0.00    +0.250 C 
ATOM     28  O   LIG    1       15.122  -2.233   2.094  0.00  0.00    -0.310 OA
ENDBRANCH  20  28
ENDBRANCH  18  23
ENDBRANCH   1  18
TORSDOF 5
