REMARK  Name = ZINCBI0000000jkU.0
REMARK                            x       y       z     vdW  Elec       q    Type
REMARK                         _______ _______ _______ _____ _____    ______ ____
ROOT
ATOM      1  C   LIG    1        6.487   5.277  -4.025  0.00  0.00    +0.240 C 
ENDROOT
BRANCH   1   2
ATOM      2  C   LIG    1        7.390   6.044  -4.956  0.00  0.00    +0.520 C 
ATOM      3  N   LIG    1        7.651   7.346  -4.721  0.00  0.00    -0.670 N 
ATOM      4  H   LIG    1        7.196   7.809  -4.001  0.00  0.00    +0.420 HD
ATOM      5  O   LIG    1        7.882   5.491  -5.917  0.00  0.00    -0.490 OA
BRANCH   3   6
ATOM      6  C   LIG    1        8.581   8.029  -5.517  0.00  0.00    +0.150 A 
ATOM      7  C   LIG    1        9.564   7.323  -6.196  0.00  0.00    +0.050 A 
ATOM      8  C   LIG    1       10.480   7.995  -6.981  0.00  0.00    -0.010 A 
ATOM      9  C   LIG    1       10.417   9.378  -7.090  0.00  0.00    +0.070 A 
ATOM     10  C   LIG    1        9.433  10.085  -6.410  0.00  0.00    +0.020 A 
ATOM     11  C   LIG    1        8.514   9.411  -5.631  0.00  0.00    -0.090 A 
ATOM     12  C   LIG    1        7.442  10.177  -4.899  0.00  0.00    +0.110 C 
BRANCH   9  13
ATOM     13  N   LIG    1       11.344  10.060  -7.885  0.00  0.00    -0.480 N 
ATOM     14  C   LIG    1       10.666  10.875  -8.903  0.00  0.00    +0.220 C 
ATOM     15  C   LIG    1       11.711  11.649  -9.711  0.00  0.00    +0.280 C 
ATOM     16  N   LIG    1       12.634  10.703 -10.352  0.00  0.00    -0.390 N 
ATOM     17  C   LIG    1       13.321   9.913  -9.321  0.00  0.00    +0.280 C 
ATOM     18  C   LIG    1       13.625  11.445 -11.142  0.00  0.00    +0.320 C 
ATOM     19  H   LIG    1       12.115  10.085 -10.958  0.00  0.00    +0.420 HD
ATOM     20  C   LIG    1       12.290   9.125  -8.510  0.00  0.00    +0.220 C 
ENDBRANCH   9  13
ENDBRANCH   3   6
ENDBRANCH   1   2
BRANCH   1  21
ATOM     21  O   LIG    1        6.366   3.928  -4.483  0.00  0.00    -0.290 OA
BRANCH  21  25
ATOM     22  C   LIG    1        3.979   1.400  -2.256  0.00  0.00    +0.140 A 
ATOM     23  C   LIG    1        4.136   2.725  -1.872  0.00  0.00    +0.010 A 
ATOM     24  C   LIG    1        4.939   3.568  -2.614  0.00  0.00    -0.040 A 
ATOM     25  C   LIG    1        5.580   3.095  -3.749  0.00  0.00    +0.100 A 
ATOM     26  C   LIG    1        5.420   1.774  -4.137  0.00  0.00    +0.030 A 
ATOM     27  C   LIG    1        4.621   0.927  -3.393  0.00  0.00    +0.040 A 
BRANCH  22  28
ATOM     28  N   LIG    1        3.169   0.543  -1.502  0.00  0.00    -0.940 N 
ATOM     29  C   LIG    1        2.522  -0.605  -2.142  0.00  0.00    +0.320 C 
BRANCH  28  30
ATOM     30  S   LIG    1        2.943   0.827   0.114  0.00  0.00    +2.690 S 
ATOM     31  O   LIG    1        2.637  -0.429   0.703  0.00  0.00    -0.940 OA
ATOM     32  O   LIG    1        4.031   1.639   0.535  0.00  0.00    -0.940 OA
BRANCH  30  37
ATOM     33  C   LIG    1       -2.019   4.217   0.651  0.00  0.00    +0.100 C 
ATOM     34  C   LIG    1       -0.780   3.370   0.517  0.00  0.00    -0.020 A 
ATOM     35  C   LIG    1       -0.890   1.998   0.391  0.00  0.00    +0.000 A 
ATOM     36  C   LIG    1        0.247   1.221   0.274  0.00  0.00    +0.130 A 
ATOM     37  C   LIG    1        1.494   1.817   0.271  0.00  0.00    -0.690 A 
ATOM     38  C   LIG    1        1.604   3.190   0.392  0.00  0.00    +0.120 A 
ATOM     39  C   LIG    1        0.467   3.966   0.515  0.00  0.00    -0.010 A 
ENDBRANCH  30  37
ENDBRANCH  28  30
ENDBRANCH  22  28
ENDBRANCH  21  25
ENDBRANCH   1  21
TORSDOF 8
