REMARK  Name = ZINCqH0000008lr2.0
REMARK                            x       y       z     vdW  Elec       q    Type
REMARK                         _______ _______ _______ _____ _____    ______ ____
ROOT
ATOM      1  N   LIG    1        7.418   1.009  -0.062  0.00  0.00    -0.730 N 
ATOM      2  H   LIG    1        7.435   0.039  -0.067  0.00  0.00    +0.400 HD
ATOM      3  C   LIG    1        6.239   1.662  -0.048  0.00  0.00    +0.520 C 
ATOM      4  O   LIG    1        6.216   2.874  -0.041  0.00  0.00    -0.540 OA
ENDROOT
BRANCH   1   6
ATOM      5  C   LIG    1        9.031   2.143  -1.508  0.00  0.00    +0.040 C 
ATOM      6  C   LIG    1        8.673   1.765  -0.070  0.00  0.00    +0.280 C 
BRANCH   6   7
ATOM      7  C   LIG    1        9.773   0.917   0.516  0.00  0.00    -0.060 A 
ATOM      8  C   LIG    1        9.841  -0.430   0.215  0.00  0.00    +0.010 A 
ATOM      9  C   LIG    1       10.849  -1.211   0.751  0.00  0.00    +0.060 A 
ATOM     10  C   LIG    1       11.790  -0.646   1.588  0.00  0.00    +0.000 A 
ATOM     11  C   LIG    1       11.725   0.707   1.892  0.00  0.00    +0.140 A 
ATOM     12  C   LIG    1       10.715   1.489   1.349  0.00  0.00    +0.020 A 
BRANCH  11  13
ATOM     13  N   LIG    1       12.679   1.283   2.743  0.00  0.00    -0.410 N 
ATOM     14  C   LIG    1       13.729   0.639   3.345  0.00  0.00    +0.130 A 
ATOM     15  C   LIG    1       14.389   1.562   4.069  0.00  0.00    +0.160 A 
ATOM     16  N   LIG    1       13.764   2.739   3.917  0.00  0.00    -0.480 NA
ATOM     17  C   LIG    1       12.742   2.586   3.121  0.00  0.00    +0.400 A 
ENDBRANCH  11  13
ENDBRANCH   6   7
ENDBRANCH   1   6
BRANCH   3  18
ATOM     18  C   LIG    1        4.947   0.885  -0.040  0.00  0.00    +0.070 C 
BRANCH  18  19
ATOM     19  C   LIG    1        3.767   1.858  -0.024  0.00  0.00    +0.070 C 
BRANCH  19  20
ATOM     20  C   LIG    1        2.475   1.081  -0.015  0.00  0.00    +0.400 C 
ATOM     21  O   LIG    1        2.497  -0.132  -0.022  0.00  0.00    -0.450 OA
BRANCH  20  22
ATOM     22  C   LIG    1        1.188   1.793   0.000  0.00  0.00    -0.170 A 
ATOM     23  C   LIG    1       -0.013   1.076   0.008  0.00  0.00    +0.070 A 
ATOM     24  C   LIG    1       -1.215   1.751   0.017  0.00  0.00    +0.000 A 
ATOM     25  C   LIG    1       -1.236   3.135   0.031  0.00  0.00    +0.040 A 
ATOM     26  C   LIG    1       -0.052   3.852   0.023  0.00  0.00    +0.000 A 
ATOM     27  C   LIG    1        1.158   3.192   0.008  0.00  0.00    +0.060 A 
ENDBRANCH  20  22
ENDBRANCH  19  20
ENDBRANCH  18  19
ENDBRANCH   3  18
TORSDOF 7
