REMARK  Name = ZINCb80000001tXI.0
REMARK                            x       y       z     vdW  Elec       q    Type
REMARK                         _______ _______ _______ _____ _____    ______ ____
ROOT
ATOM      1  C   LIG    1       -1.330   1.944   0.019  0.00  0.00    +0.190 C 
ENDROOT
BRANCH   1   2
ATOM      2  C   LIG    1       -2.462   0.950   0.019  0.00  0.00    -0.020 A 
ATOM      3  C   LIG    1       -3.066   0.408   1.104  0.00  0.00    -0.050 A 
ATOM      4  C   LIG    1       -4.048  -0.449   0.556  0.00  0.00    +0.020 A 
ATOM      5  N   LIG    1       -3.945  -0.346  -0.738  0.00  0.00    -0.360 NA
ATOM      6  C   LIG    1       -5.021  -1.310   1.319  0.00  0.00    +0.160 C 
ATOM      7  O   LIG    1       -3.073   0.430  -1.055  0.00  0.00    +0.110 OA
ENDBRANCH   1   2
BRANCH   1  11
ATOM      8  C   LIG    1        2.422   1.183  -0.015  0.00  0.00    +0.290 C 
ATOM      9  N   LIG    1        1.143   1.898   0.001  0.00  0.00    -0.730 N 
ATOM     10  H   LIG    1        1.130   2.868   0.007  0.00  0.00    +0.400 HD
ATOM     11  C   LIG    1       -0.014   1.209   0.009  0.00  0.00    +0.510 C 
ATOM     12  O   LIG    1        0.002  -0.004   0.002  0.00  0.00    -0.530 OA
ENDBRANCH   1  11
TORSDOF 2
