REMARK  Name = ZINCkj00000dDPSz.1
REMARK                            x       y       z     vdW  Elec       q    Type
REMARK                         _______ _______ _______ _____ _____    ______ ____
ROOT
ATOM      1  C   LIG    1       -4.176   1.722   2.542  0.00  0.00    +0.500 C 
ATOM      2  N   LIG    1       -2.865   1.982   2.369  0.00  0.00    -0.730 N 
ATOM      3  H   LIG    1       -2.377   2.481   3.043  0.00  0.00    +0.410 HD
ATOM      4  O   LIG    1       -4.786   1.098   1.699  0.00  0.00    -0.500 OA
ENDROOT
BRANCH   1   5
ATOM      5  C   LIG    1       -4.884   2.206   3.780  0.00  0.00    +0.380 C 
BRANCH   5  12
ATOM      6  C   LIG    1       -7.194   3.870   2.553  0.00  0.00    +0.150 C 
ATOM      7  C   LIG    1       -7.305   2.513   3.199  0.00  0.00    +0.090 A 
ATOM      8  C   LIG    1       -8.440   1.791   3.348  0.00  0.00    -0.110 A 
ATOM      9  C   LIG    1       -8.109   0.599   4.000  0.00  0.00    +0.090 A 
ATOM     10  N   LIG    1       -6.821   0.602   4.230  0.00  0.00    -0.290 NA
ATOM     11  C   LIG    1       -9.070  -0.500   4.374  0.00  0.00    +0.150 C 
ATOM     12  N   LIG    1       -6.291   1.799   3.730  0.00  0.00    -0.370 N 
ENDBRANCH   5  12
ENDBRANCH   1   5
BRANCH   2  13
ATOM     13  C   LIG    1       -2.177   1.511   1.165  0.00  0.00    +0.280 C 
BRANCH  13  14
ATOM     14  C   LIG    1       -0.708   1.936   1.218  0.00  0.00    +0.260 C 
BRANCH  14  15
ATOM     15  N   LIG    1       -0.018   1.464   0.010  0.00  0.00    -0.380 N 
ATOM     16  C   LIG    1        0.002  -0.004   0.002  0.00  0.00    +0.250 C 
ATOM     17  C   LIG    1        0.648  -0.502  -1.293  0.00  0.00    +0.050 C 
ATOM     18  C   LIG    1        2.081   0.030  -1.379  0.00  0.00    +0.040 C 
ATOM     19  C   LIG    1        2.054   1.559  -1.295  0.00  0.00    -0.020 C 
ATOM     20  C   LIG    1        3.486   2.097  -1.303  0.00  0.00    +0.070 C 
ATOM     21  C   LIG    1        1.356   1.980  -0.000  0.00  0.00    +0.260 C 
ATOM     22  H   LIG    1       -0.508   1.797  -0.807  0.00  0.00    +0.430 HD
ENDBRANCH  14  15
ENDBRANCH  13  14
ENDBRANCH   2  13
TORSDOF 5
