REMARK  Name = ZINCkj00000dDPSz.0
REMARK                            x       y       z     vdW  Elec       q    Type
REMARK                         _______ _______ _______ _____ _____    ______ ____
ROOT
ATOM      1  C   LIG    1        1.900   3.633   1.424  0.00  0.00    +0.500 C 
ATOM      2  N   LIG    1        2.291   4.898   1.674  0.00  0.00    -0.730 N 
ATOM      3  H   LIG    1        2.469   5.505   0.938  0.00  0.00    +0.410 HD
ATOM      4  O   LIG    1        1.678   2.874   2.344  0.00  0.00    -0.500 OA
ENDROOT
BRANCH   1   5
ATOM      5  C   LIG    1        1.739   3.160   0.002  0.00  0.00    +0.380 C 
BRANCH   5  12
ATOM      6  C   LIG    1        3.626   0.702  -0.030  0.00  0.00    +0.140 C 
ATOM      7  C   LIG    1        2.119   0.681  -0.015  0.00  0.00    +0.090 A 
ATOM      8  C   LIG    1        1.337  -0.423  -0.013  0.00  0.00    -0.110 A 
ATOM      9  C   LIG    1        0.002  -0.004   0.002  0.00  0.00    +0.090 A 
ATOM     10  N   LIG    1       -0.016   1.304   0.009  0.00  0.00    -0.290 NA
ATOM     11  C   LIG    1       -1.206  -0.904   0.008  0.00  0.00    +0.150 C 
ATOM     12  N   LIG    1        1.309   1.760  -0.001  0.00  0.00    -0.370 N 
ENDBRANCH   5  12
ENDBRANCH   1   5
BRANCH   2  13
ATOM     13  C   LIG    1        2.448   5.358   3.056  0.00  0.00    +0.280 C 
BRANCH  13  14
ATOM     14  C   LIG    1        2.897   6.820   3.059  0.00  0.00    +0.260 C 
BRANCH  14  15
ATOM     15  N   LIG    1        3.054   7.281   4.446  0.00  0.00    -0.380 N 
ATOM     16  C   LIG    1        4.140   6.531   5.088  0.00  0.00    +0.250 C 
ATOM     17  C   LIG    1        4.255   6.950   6.556  0.00  0.00    +0.050 C 
ATOM     18  C   LIG    1        4.554   8.450   6.631  0.00  0.00    +0.050 C 
ATOM     19  C   LIG    1        3.453   9.217   5.893  0.00  0.00    +0.010 C 
ATOM     20  C   LIG    1        2.112   8.989   6.594  0.00  0.00    +0.040 C 
ATOM     21  C   LIG    1        3.368   8.715   4.450  0.00  0.00    +0.260 C 
ATOM     22  H   LIG    1        2.195   7.124   4.951  0.00  0.00    +0.420 HD
ENDBRANCH  14  15
ENDBRANCH  13  14
ENDBRANCH   2  13
TORSDOF 5
