REMARK  Name = ZINCrH000004oH5o.0
REMARK                            x       y       z     vdW  Elec       q    Type
REMARK                         _______ _______ _______ _____ _____    ______ ____
ROOT
ATOM      1  C   LIG    1        1.274  -2.499   0.954  0.00  0.00    +0.180 A 
ATOM      2  C   LIG    1        2.164  -1.648   0.309  0.00  0.00    -0.010 A 
ATOM      3  C   LIG    1        1.825  -0.329   0.094  0.00  0.00    +0.080 A 
ATOM      4  C   LIG    1        0.588   0.152   0.525  0.00  0.00    -0.060 A 
ATOM      5  C   LIG    1       -0.301  -0.704   1.178  0.00  0.00    +0.040 A 
ATOM      6  C   LIG    1        0.041  -2.023   1.384  0.00  0.00    +0.020 A 
ENDROOT
BRANCH   1  15
ATOM      7  C   LIG    1        4.556  -7.003   0.699  0.00  0.00    +0.060 C 
ATOM      8  C   LIG    1        3.054  -6.845   0.455  0.00  0.00    +0.130 C 
ATOM      9  C   LIG    1        2.364  -6.388   1.763  0.00  0.00    +0.250 C 
ATOM     10  N   LIG    1        0.978  -6.058   1.490  0.00  0.00    -0.620 N 
ATOM     11  C   LIG    1       -0.105  -7.056   1.571  0.00  0.00    +0.290 C 
ATOM     12  C   LIG    1        0.335  -8.393   0.946  0.00  0.00    -0.000 C 
ATOM     13  C   LIG    1        1.150  -8.129  -0.305  0.00  0.00    +0.220 C 
ATOM     14  C   LIG    1        0.667  -4.790   1.157  0.00  0.00    +0.700 C 
ATOM     15  N   LIG    1        1.620  -3.837   1.169  0.00  0.00    -0.690 N 
ATOM     16  H   LIG    1        2.546  -4.078   1.329  0.00  0.00    +0.410 HD
ATOM     17  O   LIG    1       -0.473  -4.505   0.844  0.00  0.00    -0.570 OA
ATOM     18  O   LIG    1        2.524  -8.053   0.052  0.00  0.00    -0.380 OA
ENDBRANCH   1  15
BRANCH   4  19
ATOM     19  C   LIG    1        0.222   1.567   0.296  0.00  0.00    +0.140 A 
ATOM     20  C   LIG    1        1.084   2.594   0.035  0.00  0.00    -0.060 A 
ATOM     21  C   LIG    1        0.329   3.758  -0.116  0.00  0.00    -0.020 A 
ATOM     22  N   LIG    1       -0.935   3.459   0.045  0.00  0.00    -0.230 NA
ATOM     23  N   LIG    1       -1.038   2.086   0.301  0.00  0.00    -0.350 N 
ATOM     24  C   LIG    1       -2.278   1.341   0.534  0.00  0.00    +0.380 C 
BRANCH  21  25
ATOM     25  C   LIG    1        0.878   5.129  -0.414  0.00  0.00    +0.560 C 
ATOM     26  F   LIG    1        2.162   5.247   0.129  0.00  0.00    -0.160 F 
ATOM     27  F   LIG    1        0.042   6.099   0.150  0.00  0.00    -0.170 F 
ATOM     28  F   LIG    1        0.939   5.315  -1.800  0.00  0.00    -0.170 F 
ENDBRANCH  21  25
ENDBRANCH   4  19
TORSDOF 3
