REMARK  Name = ZINCpe000027pHaq.0
REMARK                            x       y       z     vdW  Elec       q    Type
REMARK                         _______ _______ _______ _____ _____    ______ ____
ROOT
ATOM      1  C   LIG    1       -3.282   2.557  -4.914  0.00  0.00    +0.180 A 
ATOM      2  C   LIG    1       -3.007   3.859  -4.516  0.00  0.00    +0.060 A 
ATOM      3  C   LIG    1       -2.247   4.100  -3.386  0.00  0.00    +0.130 A 
ATOM      4  C   LIG    1       -1.756   3.034  -2.644  0.00  0.00    -0.160 A 
ATOM      5  C   LIG    1       -0.936   2.922  -1.423  0.00  0.00    +0.570 C 
ATOM      6  N   LIG    1       -0.757   1.618  -1.143  0.00  0.00    -0.570 N 
ATOM      7  C   LIG    1       -1.367   0.839  -2.054  0.00  0.00    +0.590 C 
ATOM      8  O   LIG    1       -1.372  -0.375  -2.060  0.00  0.00    -0.450 OA
ATOM      9  O   LIG    1       -0.497   3.852  -0.776  0.00  0.00    -0.450 OA
ATOM     10  C   LIG    1       -2.034   1.710  -3.046  0.00  0.00    -0.120 A 
ATOM     11  C   LIG    1       -2.794   1.478  -4.177  0.00  0.00    +0.080 A 
ENDROOT
BRANCH   6  12
ATOM     12  C   LIG    1        0.007   1.114   0.000  0.00  0.00    +0.270 C 
ATOM     13  C   LIG    1       -0.570   1.654   1.325  0.00  0.00    +0.100 C 
ATOM     14  C   LIG    1        0.576   2.448   1.913  0.00  0.00    +0.540 C 
ATOM     15  N   LIG    1        1.627   2.383   1.086  0.00  0.00    -0.670 N 
ATOM     16  H   LIG    1        2.470   2.825   1.273  0.00  0.00    +0.420 HD
ATOM     17  O   LIG    1        0.547   3.047   2.966  0.00  0.00    -0.470 OA
ATOM     18  C   LIG    1        1.419   1.659  -0.020  0.00  0.00    +0.530 C 
ATOM     19  O   LIG    1        2.232   1.471  -0.900  0.00  0.00    -0.460 OA
ENDBRANCH   6  12
BRANCH   1  21
ATOM     20  C   LIG    1       -5.062   3.162  -6.366  0.00  0.00    +0.520 C 
ATOM     21  N   LIG    1       -4.049   2.328  -6.056  0.00  0.00    -0.680 N 
ATOM     22  H   LIG    1       -3.854   1.569  -6.627  0.00  0.00    +0.420 HD
ATOM     23  O   LIG    1       -5.254   4.156  -5.699  0.00  0.00    -0.510 OA
BRANCH  20  24
ATOM     24  C   LIG    1       -5.955   2.858  -7.541  0.00  0.00    +0.060 C 
BRANCH  24  25
ATOM     25  C   LIG    1       -7.016   3.953  -7.672  0.00  0.00    +0.030 C 
BRANCH  25  27
ATOM     26  C   LIG    1       -8.983   4.740  -8.996  0.00  0.00    +0.030 C 
ATOM     27  C   LIG    1       -7.923   3.644  -8.865  0.00  0.00    -0.010 C 
ENDBRANCH  25  27
ENDBRANCH  24  25
ENDBRANCH  20  24
ENDBRANCH   1  21
TORSDOF 5
