REMARK  Name = ZINC670000002BQr.0
REMARK                            x       y       z     vdW  Elec       q    Type
REMARK                         _______ _______ _______ _____ _____    ______ ____
ROOT
ATOM      1  C   LIG    1       -0.017   1.379   0.010  0.00  0.00    +0.340 A 
ATOM      2  N   LIG    1        1.189   1.899   0.001  0.00  0.00    -0.560 NA
ATOM      3  S   LIG    1        2.261   0.587  -0.016  0.00  0.00    +0.520 S 
ATOM      4  N   LIG    1        1.184  -0.545  -0.012  0.00  0.00    -0.500 NA
ATOM      5  C   LIG    1        0.002  -0.004   0.002  0.00  0.00    +0.200 A 
ENDROOT
BRANCH   1   6
ATOM      6  N   LIG    1       -1.191   2.141   0.019  0.00  0.00    -0.820 N 
ATOM      7  H   LIG    1       -1.141   3.109   0.025  0.00  0.00    +0.410 HD
ATOM      8  H   LIG    1       -2.055   1.700   0.021  0.00  0.00    +0.420 HD
ENDBRANCH   1   6
TORSDOF 1
