REMARK  Name = ZINCqH0000032tT5.0
REMARK                            x       y       z     vdW  Elec       q    Type
REMARK                         _______ _______ _______ _____ _____    ______ ____
ROOT
ATOM      1  C   LIG    1        3.632  -2.019   0.060  0.00  0.00    +0.510 C 
ATOM      2  N   LIG    1        3.621  -0.675  -0.035  0.00  0.00    -0.670 N 
ATOM      3  H   LIG    1        4.457  -0.187  -0.107  0.00  0.00    +0.420 HD
ATOM      4  O   LIG    1        2.587  -2.635   0.067  0.00  0.00    -0.480 OA
ENDROOT
BRANCH   2   5
ATOM      5  C   LIG    1        2.405   0.018  -0.028  0.00  0.00    +0.140 A 
ATOM      6  C   LIG    1        2.317   1.263   0.582  0.00  0.00    +0.010 A 
ATOM      7  C   LIG    1        1.118   1.951   0.590  0.00  0.00    +0.030 A 
ATOM      8  C   LIG    1        0.000   1.406  -0.007  0.00  0.00    +0.030 A 
ATOM      9  C   LIG    1        0.078   0.155  -0.623  0.00  0.00    -0.120 A 
ATOM     10  C   LIG    1        1.287  -0.539  -0.631  0.00  0.00    +0.090 A 
BRANCH   9  11
ATOM     11  C   LIG    1       -1.119  -0.432  -1.263  0.00  0.00    +0.560 C 
ATOM     12  N   LIG    1       -2.287   0.240  -1.253  0.00  0.00    -0.700 N 
ATOM     13  H   LIG    1       -2.342   1.109  -0.826  0.00  0.00    +0.400 HD
ATOM     14  O   LIG    1       -1.049  -1.522  -1.798  0.00  0.00    -0.520 OA
BRANCH  12  15
ATOM     15  C   LIG    1       -3.472  -0.342  -1.887  0.00  0.00    +0.220 C 
ATOM     16  C   LIG    1       -4.338   0.581  -2.748  0.00  0.00    +0.010 C 
ATOM     17  C   LIG    1       -4.841   0.116  -1.380  0.00  0.00    +0.020 C 
ENDBRANCH  12  15
ENDBRANCH   9  11
ENDBRANCH   2   5
BRANCH   1  18
ATOM     18  C   LIG    1        4.942  -2.757   0.158  0.00  0.00    +0.250 C 
BRANCH  18  19
ATOM     19  O   LIG    1        4.693  -4.161   0.248  0.00  0.00    -0.290 OA
BRANCH  19  23
ATOM     20  C   LIG    1        7.983  -6.633   0.538  0.00  0.00    -0.110 A 
ATOM     21  C   LIG    1        6.711  -7.175   0.531  0.00  0.00    +0.050 A 
ATOM     22  C   LIG    1        5.607  -6.349   0.434  0.00  0.00    -0.010 A 
ATOM     23  C   LIG    1        5.777  -4.976   0.344  0.00  0.00    +0.120 A 
ATOM     24  C   LIG    1        7.054  -4.435   0.345  0.00  0.00    -0.080 A 
ATOM     25  C   LIG    1        8.154  -5.264   0.447  0.00  0.00    +0.050 A 
BRANCH  20  27
ATOM     26  C   LIG    1       10.070  -7.354  -0.591  0.00  0.00    +0.030 C 
ATOM     27  C   LIG    1        9.184  -7.537   0.644  0.00  0.00    +0.030 C 
ATOM     28  C   LIG    1        9.982  -7.179   1.900  0.00  0.00    +0.030 C 
ENDBRANCH  20  27
ENDBRANCH  19  23
ENDBRANCH  18  19
ENDBRANCH   1  18
TORSDOF 7
