REMARK  Name = ZINCpk00000y47JW.0
REMARK                            x       y       z     vdW  Elec       q    Type
REMARK                         _______ _______ _______ _____ _____    ______ ____
ROOT
ATOM      1  N   LIG    1       -6.060   3.480  -0.792  0.00  0.00    -1.100 NA
ATOM      2  H   LIG    1       -6.833   4.037  -0.608  0.00  0.00    +0.430 HD
ENDROOT
BRANCH   1   9
ATOM      3  C   LIG    1       -2.669   5.623   0.456  0.00  0.00    +0.230 A 
ATOM      4  N   LIG    1       -2.687   6.488  -0.528  0.00  0.00    -0.300 NA
ATOM      5  N   LIG    1       -3.570   5.984  -1.486  0.00  0.00    -0.370 N 
ATOM      6  C   LIG    1       -3.942   6.570  -2.774  0.00  0.00    +0.310 C 
ATOM      7  C   LIG    1       -4.585   5.483  -3.643  0.00  0.00    +0.050 C 
ATOM      8  C   LIG    1       -5.680   4.771  -2.843  0.00  0.00    +0.060 C 
ATOM      9  C   LIG    1       -5.031   3.941  -1.727  0.00  0.00    +0.360 C 
ATOM     10  C   LIG    1       -4.040   4.818  -1.003  0.00  0.00    +0.240 A 
ATOM     11  N   LIG    1       -3.491   4.614   0.162  0.00  0.00    -0.520 NA
BRANCH   3  13
ATOM     12  C   LIG    1       -2.665   6.492   2.778  0.00  0.00    +0.050 C 
ATOM     13  C   LIG    1       -1.853   5.748   1.716  0.00  0.00    +0.140 C 
ENDBRANCH   3  13
ENDBRANCH   1   9
BRANCH   1  14
ATOM     14  S   LIG    1       -5.905   2.008  -0.049  0.00  0.00    +2.710 S 
ATOM     15  O   LIG    1       -7.029   1.871   0.809  0.00  0.00    -0.940 OA
ATOM     16  O   LIG    1       -5.590   1.074  -1.072  0.00  0.00    -0.950 OA
BRANCH  14  17
ATOM     17  C   LIG    1       -4.489   2.098   0.996  0.00  0.00    -0.740 A 
ATOM     18  C   LIG    1       -4.617   2.516   2.312  0.00  0.00    +0.460 A 
ATOM     19  N   LIG    1       -3.575   2.591   3.114  0.00  0.00    -0.480 NA
ATOM     20  C   LIG    1       -2.357   2.273   2.704  0.00  0.00    +0.340 A 
ATOM     21  O   LIG    1       -1.153   2.264   3.310  0.00  0.00    -0.080 OA
ATOM     22  N   LIG    1       -0.168   1.830   2.394  0.00  0.00    -0.270 NA
ATOM     23  C   LIG    1       -0.718   1.572   1.248  0.00  0.00    +0.150 A 
ATOM     24  C   LIG    1       -0.013   1.086   0.008  0.00  0.00    +0.190 C 
ATOM     25  C   LIG    1       -2.150   1.847   1.380  0.00  0.00    -0.260 A 
ATOM     26  C   LIG    1       -3.242   1.753   0.512  0.00  0.00    +0.290 A 
ENDBRANCH  14  17
ENDBRANCH   1  14
TORSDOF 4
