REMARK  Name = ZINCpk00000y6yIm.0
REMARK                            x       y       z     vdW  Elec       q    Type
REMARK                         _______ _______ _______ _____ _____    ______ ____
ROOT
ATOM      1  C   LIG    1        1.379  -3.246   0.738  0.00  0.00    +0.620 C 
ATOM      2  N   LIG    1        2.545  -3.102   1.398  0.00  0.00    -0.710 N 
ATOM      3  H   LIG    1        2.882  -2.215   1.600  0.00  0.00    +0.400 HD
ATOM      4  O   LIG    1        0.957  -4.359   0.485  0.00  0.00    -0.500 OA
ENDROOT
BRANCH   2   5
ATOM      5  C   LIG    1        3.304  -4.285   1.812  0.00  0.00    +0.260 C 
ATOM      6  C   LIG    1        4.205  -4.747   0.660  0.00  0.00    +0.020 C 
ATOM      7  C   LIG    1        4.844  -6.082   1.052  0.00  0.00    +0.090 C 
ATOM      8  C   LIG    1        5.432  -5.982   2.430  0.00  0.00    +0.520 C 
ATOM      9  N   LIG    1        5.109  -5.025   3.301  0.00  0.00    -0.710 N 
ATOM     10  H   LIG    1        5.514  -5.057   4.182  0.00  0.00    +0.400 HD
ATOM     11  O   LIG    1        6.245  -6.816   2.769  0.00  0.00    -0.550 OA
ATOM     12  C   LIG    1        4.184  -3.936   3.013  0.00  0.00    +0.220 C 
BRANCH  12  13
ATOM     13  C   LIG    1        3.297  -3.694   4.236  0.00  0.00    +0.170 C 
ATOM     14  C   LIG    1        4.174  -3.345   5.458  0.00  0.00    +0.010 C 
ATOM     15  C   LIG    1        3.450  -4.100   6.608  0.00  0.00    +0.010 C 
ATOM     16  C   LIG    1        2.934  -5.354   5.859  0.00  0.00    +0.200 C 
ATOM     17  O   LIG    1        2.568  -4.886   4.551  0.00  0.00    -0.370 OA
ENDBRANCH  12  13
ENDBRANCH   2   5
BRANCH   1  20
ATOM     18  C   LIG    1       -1.347  -3.256  -0.802  0.00  0.00    +0.180 C 
ATOM     19  C   LIG    1       -0.568  -2.050  -0.347  0.00  0.00    +0.090 A 
ATOM     20  C   LIG    1        0.619  -2.062   0.324  0.00  0.00    -0.130 A 
ATOM     21  O   LIG    1        0.961  -0.769   0.533  0.00  0.00    -0.190 OA
ATOM     22  C   LIG    1        0.002  -0.004   0.002  0.00  0.00    +0.240 A 
ATOM     23  N   LIG    1       -0.917  -0.771  -0.521  0.00  0.00    -0.480 NA
BRANCH  22  24
ATOM     24  C   LIG    1       -0.018   1.503   0.010  0.00  0.00    +0.210 C 
BRANCH  24  25
ATOM     25  C   LIG    1       -0.735   1.996   1.269  0.00  0.00    -0.050 C 
ATOM     26  C   LIG    1       -2.033   2.784   1.081  0.00  0.00    +0.030 C 
ATOM     27  C   LIG    1       -0.758   3.505   1.523  0.00  0.00    +0.030 C 
ENDBRANCH  24  25
ENDBRANCH  22  24
ENDBRANCH   1  20
TORSDOF 5
