REMARK  Name = ZINCpe000000VvKC.0
REMARK                            x       y       z     vdW  Elec       q    Type
REMARK                         _______ _______ _______ _____ _____    ______ ____
ROOT
ATOM      1  N   LIG    1       -2.414   6.358  -1.612  0.00  0.00    -0.640 N 
ATOM      2  H   LIG    1       -2.759   6.878  -0.869  0.00  0.00    +0.420 HD
ATOM      3  C   LIG    1       -1.672   5.258  -1.378  0.00  0.00    +0.500 C 
ATOM      4  O   LIG    1       -1.241   4.608  -2.307  0.00  0.00    -0.500 OA
ENDROOT
BRANCH   1   6
ATOM      5  C   LIG    1       -3.433   7.851  -3.319  0.00  0.00    -0.100 A 
ATOM      6  C   LIG    1       -2.687   6.749  -2.923  0.00  0.00    +0.190 A 
ATOM      7  C   LIG    1       -2.255   6.106  -4.095  0.00  0.00    -0.050 A 
ATOM      8  C   LIG    1       -2.737   6.798  -5.152  0.00  0.00    +0.100 A 
ATOM      9  C   LIG    1       -2.512   6.449  -6.600  0.00  0.00    +0.140 C 
ATOM     10  N   LIG    1       -3.449   7.861  -4.701  0.00  0.00    -0.530 N 
ATOM     11  H   LIG    1       -3.896   8.518  -5.257  0.00  0.00    +0.430 HD
BRANCH   5  12
ATOM     12  C   LIG    1       -4.059   8.791  -2.466  0.00  0.00    +0.540 C 
ATOM     13  O   LIG    1       -3.969   8.671  -1.258  0.00  0.00    -0.520 OA
BRANCH  12  15
ATOM     14  C   LIG    1       -5.362  10.730  -2.072  0.00  0.00    +0.260 C 
ATOM     15  O   LIG    1       -4.756   9.820  -2.991  0.00  0.00    -0.360 OA
ENDBRANCH  12  15
ENDBRANCH   5  12
ENDBRANCH   1   6
BRANCH   3  16
ATOM     16  C   LIG    1       -1.377   4.835   0.038  0.00  0.00    +0.410 C 
BRANCH  16  17
ATOM     17  N   LIG    1       -0.559   3.620   0.025  0.00  0.00    -0.450 N 
ATOM     18  N   LIG    1       -1.033   2.299   0.019  0.00  0.00    -0.270 NA
ATOM     19  C   LIG    1       -0.018   1.511   0.010  0.00  0.00    +0.280 A 
ATOM     20  C   LIG    1        0.002  -0.004   0.002  0.00  0.00    +0.170 C 
ATOM     21  C   LIG    1        0.566  -0.455  -1.349  0.00  0.00    +0.030 C 
ATOM     22  C   LIG    1        2.076  -0.407  -1.364  0.00  0.00    +0.020 C 
ATOM     23  C   LIG    1        2.675   0.979  -1.360  0.00  0.00    +0.020 C 
ATOM     24  C   LIG    1        2.484   1.677  -0.010  0.00  0.00    +0.320 C 
ATOM     25  N   LIG    1        1.137   2.272   0.003  0.00  0.00    -0.560 N 
ATOM     26  C   LIG    1        0.792   3.565   0.011  0.00  0.00    +0.660 A 
ATOM     27  O   LIG    1        1.554   4.516   0.007  0.00  0.00    -0.550 OA
ENDBRANCH  16  17
ENDBRANCH   3  16
TORSDOF 5
