REMARK  Name = ZINCvU0000000A14.0
REMARK                            x       y       z     vdW  Elec       q    Type
REMARK                         _______ _______ _______ _____ _____    ______ ____
ROOT
ATOM      1  C   LIG    1       -4.242  -1.517  -1.733  0.00  0.00    -0.030 C 
ATOM      2  C   LIG    1       -3.180  -2.612  -1.849  0.00  0.00    +0.040 C 
ATOM      3  C   LIG    1       -1.786  -1.983  -1.779  0.00  0.00    +0.020 C 
ATOM      4  C   LIG    1       -1.613  -1.282  -0.433  0.00  0.00    +0.270 C 
ATOM      5  N   LIG    1       -2.716  -0.329  -0.244  0.00  0.00    -0.600 N 
ATOM      6  C   LIG    1       -2.465   0.963   0.043  0.00  0.00    +0.590 C 
ATOM      7  O   LIG    1       -3.385   1.722   0.284  0.00  0.00    -0.520 OA
ATOM      8  C   LIG    1       -4.097  -0.812  -0.381  0.00  0.00    +0.290 C 
ENDROOT
BRANCH   6   9
ATOM      9  C   LIG    1       -1.080   1.456   0.064  0.00  0.00    +0.040 A 
ATOM     10  C   LIG    1       -0.179   1.231   1.055  0.00  0.00    -0.110 A 
ATOM     11  C   LIG    1        1.028   1.878   0.697  0.00  0.00    -0.090 A 
ATOM     12  C   LIG    1        2.279   1.995   1.317  0.00  0.00    +0.070 A 
ATOM     13  C   LIG    1        3.275   2.704   0.711  0.00  0.00    +0.000 A 
ATOM     14  C   LIG    1        3.062   3.311  -0.520  0.00  0.00    +0.060 A 
ATOM     15  C   LIG    1        1.841   3.210  -1.152  0.00  0.00    -0.050 A 
ATOM     16 CL   LIG    1        1.591   3.976  -2.690  0.00  0.00    -0.070 Cl
ATOM     17  C   LIG    1        0.809   2.493  -0.551  0.00  0.00    +0.110 A 
ATOM     18  C   LIG    1       -0.422   0.438   2.314  0.00  0.00    +0.110 C 
ATOM     19  N   LIG    1       -0.486   2.220  -0.923  0.00  0.00    -0.560 N 
ATOM     20  H   LIG    1       -0.914   2.517  -1.741  0.00  0.00    +0.420 HD
ENDBRANCH   6   9
BRANCH   1  21
ATOM     21  C   LIG    1       -5.635  -2.142  -1.836  0.00  0.00    +0.300 C 
BRANCH  21  25
ATOM     22  N   LIG    1       -8.885  -0.425  -1.931  0.00  0.00    -0.690 N 
ATOM     23  H   LIG    1       -8.612   0.505  -1.950  0.00  0.00    +0.410 HD
ATOM     24  C   LIG    1       -7.954  -1.400  -1.926  0.00  0.00    +0.700 C 
ATOM     25  N   LIG    1       -6.647  -1.083  -1.841  0.00  0.00    -0.740 N 
ATOM     26  H   LIG    1       -6.376  -0.153  -1.784  0.00  0.00    +0.400 HD
ATOM     27  O   LIG    1       -8.293  -2.565  -1.998  0.00  0.00    -0.570 OA
BRANCH  22  32
ATOM     28  C   LIG    1      -14.397  -1.766  -1.834  0.00  0.00    +0.100 C 
ATOM     29  C   LIG    1      -12.932  -1.410  -1.860  0.00  0.00    -0.100 A 
ATOM     30  C   LIG    1      -12.016  -2.209  -1.201  0.00  0.00    +0.030 A 
ATOM     31  C   LIG    1      -10.674  -1.886  -1.223  0.00  0.00    +0.020 A 
ATOM     32  C   LIG    1      -10.244  -0.756  -1.907  0.00  0.00    +0.160 A 
ATOM     33  C   LIG    1      -11.167   0.047  -2.563  0.00  0.00    -0.020 A 
ATOM     34  C   LIG    1      -12.508  -0.285  -2.542  0.00  0.00    +0.030 A 
ENDBRANCH  22  32
ENDBRANCH  21  25
ENDBRANCH   1  21
TORSDOF 4
