REMARK  Name = ZINCkj00000GeRNg.0
REMARK                            x       y       z     vdW  Elec       q    Type
REMARK                         _______ _______ _______ _____ _____    ______ ____
ROOT
ATOM      1  N   LIG    1       -1.736   1.951   0.287  0.00  0.00    -0.480 N 
ATOM      2  H   LIG    1       -2.276   1.563  -0.472  0.00  0.00    +0.440 HD
ATOM      3  H   LIG    1       -1.485   2.904   0.069  0.00  0.00    +0.440 HD
ENDROOT
BRANCH   1   4
ATOM      4  C   LIG    1       -0.517   1.155   0.479  0.00  0.00    +0.160 C 
BRANCH   4   5
ATOM      5  C   LIG    1       -0.889  -0.291   0.684  0.00  0.00    +0.510 C 
ATOM      6  O   LIG    1       -1.923  -0.723   0.220  0.00  0.00    -0.520 OA
ATOM      7  N   LIG    1       -0.072  -1.104   1.383  0.00  0.00    -0.820 N 
ATOM      8  H   LIG    1        0.786  -0.778   1.696  0.00  0.00    +0.410 HD
ATOM      9  H   LIG    1       -0.341  -2.017   1.571  0.00  0.00    +0.420 HD
ENDBRANCH   4   5
BRANCH   4  10
ATOM     10  C   LIG    1        0.375   1.282  -0.757  0.00  0.00    +0.000 C 
ATOM     11  C   LIG    1       -0.341   0.679  -1.967  0.00  0.00    +0.050 C 
BRANCH  10  13
ATOM     12  C   LIG    1        2.643   0.792  -1.685  0.00  0.00    +0.030 C 
ATOM     13  C   LIG    1        1.689   0.535  -0.517  0.00  0.00    +0.030 C 
ENDBRANCH  10  13
ENDBRANCH   4  10
ENDBRANCH   1   4
BRANCH   1  14
ATOM     14  C   LIG    1       -2.537   1.926   1.519  0.00  0.00    +0.280 C 
BRANCH  14  15
ATOM     15  C   LIG    1       -3.788   2.743   1.322  0.00  0.00    +0.500 C 
ATOM     16  N   LIG    1       -4.728   2.779   2.286  0.00  0.00    -0.580 N 
ATOM     17  O   LIG    1       -3.948   3.369   0.295  0.00  0.00    -0.520 OA
BRANCH  16  18
ATOM     18  C   LIG    1       -4.484   2.122   3.572  0.00  0.00    +0.210 C 
ATOM     19  C   LIG    1       -5.527   1.023   3.790  0.00  0.00    +0.040 C 
ATOM     20  C   LIG    1       -4.586   3.151   4.699  0.00  0.00    +0.040 C 
ENDBRANCH  16  18
BRANCH  16  21
ATOM     21  C   LIG    1       -5.995   3.475   2.049  0.00  0.00    +0.290 C 
BRANCH  21  22
ATOM     22  C   LIG    1       -7.010   2.498   1.451  0.00  0.00    -0.040 C 
ATOM     23  C   LIG    1       -6.531   2.047   0.070  0.00  0.00    +0.020 C 
ATOM     24  C   LIG    1       -8.368   3.191   1.319  0.00  0.00    +0.030 C 
ENDBRANCH  21  22
ENDBRANCH  16  21
ENDBRANCH  14  15
ENDBRANCH   1  14
TORSDOF 9
