REMARK  Name = ZINCrD0000070Ysk.0
REMARK                            x       y       z     vdW  Elec       q    Type
REMARK                         _______ _______ _______ _____ _____    ______ ____
ROOT
ATOM      1  C   LIG    1       -5.785   2.728   0.753  0.00  0.00    +0.520 C 
ATOM      2  N   LIG    1       -7.074   2.397   0.968  0.00  0.00    -0.670 N 
ATOM      3  H   LIG    1       -7.432   1.575   0.596  0.00  0.00    +0.420 HD
ATOM      4  O   LIG    1       -5.360   3.794   1.145  0.00  0.00    -0.500 OA
ENDROOT
BRANCH   2   5
ATOM      5  C   LIG    1       -7.897   3.240   1.727  0.00  0.00    +0.130 A 
ATOM      6  C   LIG    1       -8.879   2.698   2.545  0.00  0.00    +0.040 A 
ATOM      7  C   LIG    1       -9.685   3.529   3.298  0.00  0.00    -0.030 A 
ATOM      8  C   LIG    1       -9.523   4.905   3.227  0.00  0.00    +0.090 A 
ATOM      9  C   LIG    1       -8.546   5.447   2.404  0.00  0.00    +0.050 A 
ATOM     10  C   LIG    1       -7.734   4.617   1.656  0.00  0.00    +0.070 A 
BRANCH   8  11
ATOM     11  O   LIG    1      -10.321   5.722   3.963  0.00  0.00    -0.310 OA
BRANCH  11  12
ATOM     12  C   LIG    1      -11.306   5.096   4.788  0.00  0.00    +0.600 C 
ATOM     13  F   LIG    1      -12.174   4.344   3.989  0.00  0.00    -0.160 F 
ATOM     14  F   LIG    1      -12.034   6.077   5.471  0.00  0.00    -0.130 F 
ATOM     15  F   LIG    1      -10.675   4.256   5.711  0.00  0.00    -0.160 F 
ENDBRANCH  11  12
ENDBRANCH   8  11
ENDBRANCH   2   5
BRANCH   1  16
ATOM     16  C   LIG    1       -4.873   1.774   0.026  0.00  0.00    +0.200 C 
ATOM     17  C   LIG    1       -5.355   1.606  -1.416  0.00  0.00    +0.080 C 
BRANCH  16  18
ATOM     18  O   LIG    1       -3.521   2.302   0.026  0.00  0.00    -0.330 OA
BRANCH  18  19
ATOM     19  C   LIG    1       -2.513   1.406   0.010  0.00  0.00    +0.540 C 
ATOM     20  O   LIG    1       -2.759   0.215  -0.004  0.00  0.00    -0.490 OA
BRANCH  19  25
ATOM     21  C   LIG    1        1.112   1.925  -0.008  0.00  0.00    -0.270 A 
ATOM     22  C   LIG    1        0.633   3.226   0.013  0.00  0.00    +0.300 A 
ATOM     23  N   LIG    1       -0.707   3.183   0.026  0.00  0.00    -0.510 N 
ATOM     24  H   LIG    1       -1.293   3.955   0.042  0.00  0.00    +0.430 HD
ATOM     25  C   LIG    1       -1.121   1.868   0.009  0.00  0.00    -0.050 A 
ATOM     26  C   LIG    1       -0.016   1.069  -0.007  0.00  0.00    +0.130 A 
BRANCH  21  28
ATOM     27  C   LIG    1        3.608   2.554  -0.024  0.00  0.00    +0.070 C 
ATOM     28  C   LIG    1        2.519   1.513  -0.026  0.00  0.00    +0.420 C 
ATOM     29  O   LIG    1        2.806   0.335  -0.043  0.00  0.00    -0.460 OA
ENDBRANCH  21  28
ENDBRANCH  19  25
ENDBRANCH  18  19
ENDBRANCH  16  18
ENDBRANCH   1  16
TORSDOF 8
