REMARK  Name = ZINCrD00000l68Wa.0
REMARK                            x       y       z     vdW  Elec       q    Type
REMARK                         _______ _______ _______ _____ _____    ______ ____
ROOT
ATOM      1  C   LIG    1       -1.256  -0.754   0.010  0.00  0.00    +0.350 C 
ENDROOT
BRANCH   1   2
ATOM      2  C   LIG    1       -1.035  -2.114  -0.600  0.00  0.00    +0.270 A 
ATOM      3  N   LIG    1       -0.274  -3.042  -0.096  0.00  0.00    -0.470 NA
ATOM      4  C   LIG    1       -0.300  -4.138  -0.897  0.00  0.00    +0.040 A 
ATOM      5  C   LIG    1        0.316  -5.390  -0.836  0.00  0.00    +0.070 A 
ATOM      6  C   LIG    1        0.086  -6.310  -1.820  0.00  0.00    +0.000 A 
ATOM      7  C   LIG    1       -0.755  -6.015  -2.883  0.00  0.00    +0.040 A 
ATOM      8  C   LIG    1       -1.373  -4.785  -2.964  0.00  0.00    +0.010 A 
ATOM      9  C   LIG    1       -1.152  -3.838  -1.974  0.00  0.00    +0.050 A 
ATOM     10  N   LIG    1       -1.606  -2.553  -1.754  0.00  0.00    -0.590 N 
ATOM     11  H   LIG    1       -2.216  -2.054  -2.319  0.00  0.00    +0.420 HD
ENDBRANCH   1   2
BRANCH   1  13
ATOM     12  C   LIG    1       -0.016   1.344   0.009  0.00  0.00    +0.580 C 
ATOM     13  N   LIG    1        0.002  -0.004   0.002  0.00  0.00    -0.700 N 
ATOM     14  H   LIG    1        0.849  -0.478  -0.009  0.00  0.00    +0.420 HD
ATOM     15  O   LIG    1       -1.077   1.937   0.018  0.00  0.00    -0.500 OA
BRANCH  12  20
ATOM     16  C   LIG    1        4.824   4.289  -0.022  0.00  0.00    +0.160 C 
ATOM     17  C   LIG    1        3.529   3.519  -0.014  0.00  0.00    +0.110 A 
ATOM     18  C   LIG    1        3.549   2.132  -0.021  0.00  0.00    +0.230 A 
ATOM     19  N   LIG    1        2.418   1.454  -0.013  0.00  0.00    -0.410 NA
ATOM     20  C   LIG    1        1.257   2.102   0.001  0.00  0.00    +0.020 A 
ATOM     21  C   LIG    1        1.240   3.496   0.003  0.00  0.00    +0.300 A 
ATOM     22  N   LIG    1        2.377   4.167   0.001  0.00  0.00    -0.440 NA
ENDBRANCH  12  20
ENDBRANCH   1  13
BRANCH   1  23
ATOM     23  C   LIG    1       -1.745  -0.914   1.451  0.00  0.00    +0.100 C 
BRANCH  23  24
ATOM     24  C   LIG    1       -2.084   0.439   2.020  0.00  0.00    -0.070 A 
ATOM     25  C   LIG    1       -1.116   1.173   2.681  0.00  0.00    +0.000 A 
ATOM     26  C   LIG    1       -1.425   2.417   3.199  0.00  0.00    +0.000 A 
ATOM     27  C   LIG    1       -2.705   2.922   3.066  0.00  0.00    +0.000 A 
ATOM     28  C   LIG    1       -3.674   2.186   2.410  0.00  0.00    +0.010 A 
ATOM     29  C   LIG    1       -3.364   0.945   1.887  0.00  0.00    +0.010 A 
ENDBRANCH  23  24
ENDBRANCH   1  23
TORSDOF 5
