REMARK  Name = ZINCrD0000075rO4.0
REMARK                            x       y       z     vdW  Elec       q    Type
REMARK                         _______ _______ _______ _____ _____    ______ ____
ROOT
ATOM      1  C   LIG    1        1.446   3.489  -0.274  0.00  0.00    +0.470 C 
ATOM      2  O   LIG    1        0.406   4.085  -0.426  0.00  0.00    -0.500 OA
ENDROOT
BRANCH   1   3
ATOM      3  C   LIG    1        1.435   2.000  -0.040  0.00  0.00    +0.040 C 
ATOM      4  C   LIG    1        2.220   1.302  -1.154  0.00  0.00    +0.070 C 
ATOM      5  C   LIG    1        2.429  -0.172  -0.786  0.00  0.00    +0.140 C 
ATOM      6  C   LIG    1        1.098  -0.755  -0.384  0.00  0.00    +0.100 A 
ATOM      7  C   LIG    1        0.010  -0.014  -0.054  0.00  0.00    -0.200 A 
ATOM      8  C   LIG    1       -1.030  -0.888   0.254  0.00  0.00    -0.000 A 
ATOM      9  N   LIG    1       -0.585  -2.114   0.117  0.00  0.00    -0.230 NA
ATOM     10  N   LIG    1        0.758  -2.051  -0.285  0.00  0.00    -0.440 N 
ATOM     11  H   LIG    1        1.338  -2.809  -0.460  0.00  0.00    +0.450 HD
ATOM     12  C   LIG    1       -0.013   1.494  -0.040  0.00  0.00    +0.140 C 
BRANCH   8  13
ATOM     13  C   LIG    1       -2.423  -0.494   0.671  0.00  0.00    +0.560 C 
ATOM     14  F   LIG    1       -2.379   0.728   1.349  0.00  0.00    -0.160 F 
ATOM     15  F   LIG    1       -2.953  -1.477   1.515  0.00  0.00    -0.170 F 
ATOM     16  F   LIG    1       -3.232  -0.369  -0.464  0.00  0.00    -0.170 F 
ENDBRANCH   8  13
ENDBRANCH   1   3
BRANCH   1  17
ATOM     17  O   LIG    1        2.612   4.153  -0.314  0.00  0.00    -0.330 OA
BRANCH  17  18
ATOM     18  C   LIG    1        2.548   5.585  -0.544  0.00  0.00    +0.270 C 
BRANCH  18  20
ATOM     19  O   LIG    1        4.898   5.426  -0.388  0.00  0.00    -0.490 OA
ATOM     20  C   LIG    1        3.943   6.155  -0.556  0.00  0.00    +0.520 C 
ATOM     21  N   LIG    1        4.130   7.475  -0.754  0.00  0.00    -0.670 N 
ATOM     22  H   LIG    1        3.373   8.047  -0.953  0.00  0.00    +0.420 HD
BRANCH  21  23
ATOM     23  C   LIG    1        5.417   8.019  -0.673  0.00  0.00    +0.150 A 
ATOM     24  C   LIG    1        6.513   7.282  -1.100  0.00  0.00    +0.040 A 
ATOM     25  C   LIG    1        7.781   7.824  -1.023  0.00  0.00    +0.040 A 
ATOM     26  C   LIG    1        7.961   9.096  -0.512  0.00  0.00    +0.020 A 
ATOM     27  C   LIG    1        6.873   9.832  -0.080  0.00  0.00    +0.050 A 
ATOM     28  C   LIG    1        5.601   9.298  -0.159  0.00  0.00    -0.060 A 
ATOM     29 CL   LIG    1        4.235  10.222   0.383  0.00  0.00    -0.060 Cl
ENDBRANCH  21  23
ENDBRANCH  18  20
ENDBRANCH  17  18
ENDBRANCH   1  17
TORSDOF 6
