REMARK  Name = ZINCrD000000C2vW.0
REMARK                            x       y       z     vdW  Elec       q    Type
REMARK                         _______ _______ _______ _____ _____    ______ ____
ROOT
ATOM      1  O   LIG    1       -3.577   3.306  -1.138  0.00  0.00    -0.540 OA
ATOM      2  C   LIG    1       -2.611   3.780  -0.570  0.00  0.00    +0.590 C 
ATOM      3  N   LIG    1       -2.719   4.963   0.068  0.00  0.00    -0.660 N 
ATOM      4  H   LIG    1       -1.927   5.393   0.428  0.00  0.00    +0.420 HD
ENDROOT
BRANCH   2   5
ATOM      5  C   LIG    1       -1.327   3.063  -0.579  0.00  0.00    -0.360 A 
ATOM      6  C   LIG    1       -1.233   1.800  -1.125  0.00  0.00    +0.450 A 
ATOM      7  N   LIG    1       -0.082   1.115  -1.147  0.00  0.00    -0.590 N 
ATOM      8  H   LIG    1       -0.076   0.229  -1.540  0.00  0.00    +0.430 HD
ATOM      9  C   LIG    1        1.096   1.619  -0.639  0.00  0.00    +0.170 A 
ATOM     10  C   LIG    1        2.267   0.868  -0.691  0.00  0.00    -0.020 A 
ATOM     11  C   LIG    1        3.438   1.383  -0.180  0.00  0.00    +0.080 A 
ATOM     12  C   LIG    1        3.468   2.647   0.390  0.00  0.00    -0.010 A 
ATOM     13  C   LIG    1        2.321   3.408   0.453  0.00  0.00    +0.110 A 
ATOM     14  C   LIG    1        1.128   2.900  -0.061  0.00  0.00    -0.180 A 
ATOM     15  C   LIG    1       -0.119   3.684  -0.012  0.00  0.00    +0.440 A 
ATOM     16  O   LIG    1       -0.149   4.800   0.477  0.00  0.00    -0.490 OA
ENDBRANCH   2   5
BRANCH   3  17
ATOM     17  C   LIG    1       -3.973   5.570   0.212  0.00  0.00    +0.070 A 
ATOM     18  C   LIG    1       -4.085   6.959   0.244  0.00  0.00    +0.080 A 
ATOM     19  C   LIG    1       -5.344   7.515   0.387  0.00  0.00    -0.010 A 
ATOM     20  C   LIG    1       -6.446   6.676   0.493  0.00  0.00    +0.290 A 
ATOM     21  N   LIG    1       -6.303   5.362   0.459  0.00  0.00    -0.510 NA
ATOM     22  C   LIG    1       -5.120   4.797   0.319  0.00  0.00    +0.310 A 
BRANCH  20  23
ATOM     23  O   LIG    1       -7.685   7.213   0.634  0.00  0.00    -0.240 OA
BRANCH  23  24
ATOM     24  C   LIG    1       -8.750   6.368   0.633  0.00  0.00    +0.050 A 
ATOM     25  C   LIG    1       -9.036   5.592   1.751  0.00  0.00    +0.070 A 
ATOM     26  C   LIG    1      -10.136   4.750   1.704  0.00  0.00    -0.020 A 
ATOM     27  C   LIG    1      -10.899   4.700   0.553  0.00  0.00    +0.260 A 
ATOM     28  N   LIG    1      -10.597   5.446  -0.492  0.00  0.00    -0.470 NA
ATOM     29  C   LIG    1       -9.564   6.263  -0.486  0.00  0.00    +0.270 A 
ENDBRANCH  23  24
ENDBRANCH  20  23
ENDBRANCH   3  17
TORSDOF 4
