REMARK  Name = ZINCrH000004stdP.0
REMARK                            x       y       z     vdW  Elec       q    Type
REMARK                         _______ _______ _______ _____ _____    ______ ____
ROOT
ATOM      1  C   LIG    1        1.313  -2.126  -0.022  0.00  0.00    +0.190 A 
ATOM      2  C   LIG    1        2.529  -2.792  -0.038  0.00  0.00    -0.080 A 
ATOM      3  C   LIG    1        3.711  -2.077  -0.045  0.00  0.00    +0.080 A 
ATOM      4  C   LIG    1        3.691  -0.692  -0.037  0.00  0.00    -0.030 A 
ATOM      5  C   LIG    1        2.492  -0.014  -0.028  0.00  0.00    +0.080 A 
ATOM      6  C   LIG    1        1.290  -0.724  -0.014  0.00  0.00    -0.170 A 
ENDROOT
BRANCH   6   7
ATOM      7  C   LIG    1        0.002  -0.004   0.002  0.00  0.00    +0.560 C 
ATOM      8  N   LIG    1       -0.016   1.344   0.009  0.00  0.00    -0.730 N 
ATOM      9  H   LIG    1        0.817   1.840   0.004  0.00  0.00    +0.400 HD
ATOM     10  O   LIG    1       -1.042  -0.626   0.009  0.00  0.00    -0.510 OA
BRANCH   8  11
ATOM     11  C   LIG    1       -1.295   2.059   0.019  0.00  0.00    +0.300 C 
ATOM     12  C   LIG    1       -1.808   2.206  -1.414  0.00  0.00    +0.040 C 
BRANCH  11  13
ATOM     13  C   LIG    1       -1.102   3.425   0.626  0.00  0.00    -0.140 A 
ATOM     14  C   LIG    1        0.144   4.023   0.598  0.00  0.00    +0.080 A 
ATOM     15  C   LIG    1        0.321   5.278   1.151  0.00  0.00    -0.010 A 
ATOM     16  C   LIG    1       -0.746   5.932   1.742  0.00  0.00    +0.130 A 
ATOM     17  C   LIG    1       -1.993   5.331   1.775  0.00  0.00    -0.040 A 
ATOM     18  F   LIG    1       -0.572   7.156   2.285  0.00  0.00    -0.130 F 
ATOM     19  C   LIG    1       -2.171   4.077   1.217  0.00  0.00    +0.140 A 
ATOM     20  F   LIG    1       -3.387   3.490   1.248  0.00  0.00    -0.120 F 
ENDBRANCH  11  13
ENDBRANCH   8  11
ENDBRANCH   6   7
BRANCH   1  21
ATOM     21  O   LIG    1        0.152  -2.827  -0.015  0.00  0.00    -0.270 OA
BRANCH  21  22
ATOM     22  C   LIG    1        0.255  -4.252  -0.023  0.00  0.00    +0.340 C 
BRANCH  22  26
ATOM     23  C   LIG    1       -4.127  -6.181   1.446  0.00  0.00    +0.260 C 
ATOM     24  C   LIG    1       -2.974  -5.669   0.621  0.00  0.00    +0.190 A 
ATOM     25  N   LIG    1       -1.843  -5.185   1.076  0.00  0.00    -0.470 NA
ATOM     26  C   LIG    1       -1.126  -4.855  -0.013  0.00  0.00    +0.170 A 
ATOM     27  N   LIG    1       -1.841  -5.158  -1.056  0.00  0.00    -0.360 NA
ATOM     28  O   LIG    1       -2.906  -5.627  -0.713  0.00  0.00    +0.090 OA
ENDBRANCH  22  26
ENDBRANCH  21  22
ENDBRANCH   1  21
TORSDOF 6
