REMARK  Name = ZINCkj000018RBN4.0
REMARK                            x       y       z     vdW  Elec       q    Type
REMARK                         _______ _______ _______ _____ _____    ______ ____
ROOT
ATOM      1  N   LIG    1        1.539  -1.820   0.301  0.00  0.00    -0.630 N 
ATOM      2  H   LIG    1        0.855  -2.499   0.192  0.00  0.00    +0.420 HD
ATOM      3  C   LIG    1        2.839  -2.141   0.145  0.00  0.00    +0.500 C 
ATOM      4  O   LIG    1        3.698  -1.313   0.363  0.00  0.00    -0.510 OA
ENDROOT
BRANCH   1   8
ATOM      5  C   LIG    1        0.402   2.024   1.277  0.00  0.00    +0.360 A 
ATOM      6  C   LIG    1        1.573   1.847   0.548  0.00  0.00    +0.010 A 
ATOM      7  C   LIG    1        1.970   0.565   0.212  0.00  0.00    +0.100 A 
ATOM      8  C   LIG    1        1.175  -0.504   0.619  0.00  0.00    +0.040 A 
ATOM      9  C   LIG    1        0.020  -0.251   1.344  0.00  0.00    +0.300 A 
ATOM     10  N   LIG    1       -0.329   0.985   1.647  0.00  0.00    -0.490 NA
BRANCH   5  13
ATOM     11  C   LIG    1        0.195   5.773   1.464  0.00  0.00    +0.130 C 
ATOM     12  C   LIG    1        0.530   4.380   0.997  0.00  0.00    +0.520 C 
ATOM     13  N   LIG    1       -0.007   3.313   1.621  0.00  0.00    -0.550 N 
ATOM     14  C   LIG    1       -1.020   3.506   2.662  0.00  0.00    +0.330 C 
ATOM     15  O   LIG    1        1.282   4.219   0.060  0.00  0.00    -0.520 OA
ENDBRANCH   5  13
ENDBRANCH   1   8
BRANCH   3  16
ATOM     16  C   LIG    1        3.224  -3.528  -0.299  0.00  0.00    +0.180 C 
BRANCH  16  17
ATOM     17  N   LIG    1        4.626  -3.785   0.057  0.00  0.00    -0.620 N 
ATOM     18  H   LIG    1        4.907  -4.682  -0.309  0.00  0.00    +0.440 HD
ATOM     19  H   LIG    1        4.723  -3.786   1.061  0.00  0.00    +0.440 HD
ATOM     20  H   LIG    1        5.210  -3.062  -0.337  0.00  0.00    +0.440 HD
ENDBRANCH  16  17
BRANCH  16  21
ATOM     21  C   LIG    1        3.054  -3.643  -1.815  0.00  0.00    +0.070 C 
BRANCH  21  22
ATOM     22  C   LIG    1        1.573  -3.502  -2.175  0.00  0.00    -0.020 C 
ATOM     23  C   LIG    1        0.794  -4.687  -1.601  0.00  0.00    +0.030 C 
ATOM     24  C   LIG    1        1.417  -3.478  -3.696  0.00  0.00    +0.040 C 
ENDBRANCH  21  22
ENDBRANCH  16  21
ENDBRANCH   3  16
TORSDOF 6
