REMARK  Name = ZINCrH000004sGXu.0
REMARK                            x       y       z     vdW  Elec       q    Type
REMARK                         _______ _______ _______ _____ _____    ______ ____
ROOT
ATOM      1  N   LIG    1       -0.011   0.966   0.006  0.00  0.00    -0.740 N 
ATOM      2  H   LIG    1        0.002  -0.004  -0.002  0.00  0.00    +0.390 HD
ATOM      3  C   LIG    1        1.147   1.655   0.000  0.00  0.00    +0.720 C 
ATOM      4  N   LIG    1        2.322   1.001   0.087  0.00  0.00    -0.620 N 
ATOM      5  C   LIG    1        3.585   1.735   0.184  0.00  0.00    +0.280 C 
ATOM      6  C   LIG    1        4.486   1.309  -0.981  0.00  0.00    +0.240 C 
ATOM      7  O   LIG    1        3.649   1.014  -2.101  0.00  0.00    -0.310 OA
ATOM      8  C   LIG    1        3.204  -0.256  -2.288  0.00  0.00    +0.160 A 
ATOM      9  C   LIG    1        3.386  -0.812  -3.555  0.00  0.00    -0.010 A 
ATOM     10  C   LIG    1        2.885  -2.062  -3.849  0.00  0.00    +0.080 A 
ATOM     11  C   LIG    1        2.200  -2.776  -2.885  0.00  0.00    -0.030 A 
ATOM     12  C   LIG    1        2.033  -2.240  -1.621  0.00  0.00    +0.120 A 
ATOM     13  F   LIG    1        1.367  -2.939  -0.677  0.00  0.00    -0.140 F 
ATOM     14  C   LIG    1        2.546  -0.986  -1.317  0.00  0.00    -0.200 A 
ATOM     15  C   LIG    1        2.368  -0.461   0.081  0.00  0.00    +0.340 C 
ATOM     16  O   LIG    1        1.131   2.868  -0.084  0.00  0.00    -0.580 OA
ENDROOT
BRANCH   1  17
ATOM     17  C   LIG    1       -1.290   1.681   0.017  0.00  0.00    +0.330 C 
ATOM     18  C   LIG    1       -1.680   2.051  -1.415  0.00  0.00    +0.020 C 
BRANCH  17  24
ATOM     19  C   LIG    1       -4.043   2.654   1.247  0.00  0.00    +0.150 C 
ATOM     20  C   LIG    1       -3.570   1.226   1.159  0.00  0.00    +0.090 A 
ATOM     21  N   LIG    1       -4.226   0.172   1.573  0.00  0.00    -0.290 NA
ATOM     22  N   LIG    1       -3.443  -0.960   1.316  0.00  0.00    -0.360 N 
ATOM     23  C   LIG    1       -2.299  -0.550   0.728  0.00  0.00    +0.220 A 
ATOM     24  C   LIG    1       -2.354   0.797   0.616  0.00  0.00    -0.240 A 
BRANCH  22  25
ATOM     25  C   LIG    1       -3.802  -2.346   1.629  0.00  0.00    +0.180 C 
ATOM     26  C   LIG    1       -3.478  -3.240   0.431  0.00  0.00    +0.050 C 
ATOM     27  C   LIG    1       -5.299  -2.427   1.936  0.00  0.00    +0.070 C 
ATOM     28  C   LIG    1       -3.005  -2.816   2.847  0.00  0.00    +0.050 C 
ENDBRANCH  22  25
ENDBRANCH  17  24
ENDBRANCH   1  17
TORSDOF 3
