REMARK  Name = ZINCpe00000MbYHj.0
REMARK                            x       y       z     vdW  Elec       q    Type
REMARK                         _______ _______ _______ _____ _____    ______ ____
ROOT
ATOM      1  N   LIG    1       -5.818   7.155   0.995  0.00  0.00    -0.670 N 
ATOM      2  H   LIG    1       -5.809   6.191   1.100  0.00  0.00    +0.410 HD
ATOM      3  C   LIG    1       -4.660   7.826   0.836  0.00  0.00    +0.710 C 
ATOM      4  N   LIG    1       -3.486   7.170   0.907  0.00  0.00    -0.620 N 
ATOM      5  C   LIG    1       -2.214   7.904   0.851  0.00  0.00    +0.310 C 
ATOM      6  C   LIG    1       -1.364   7.327  -0.288  0.00  0.00    +0.290 C 
ATOM      7  N   LIG    1       -1.332   5.864  -0.155  0.00  0.00    -0.590 N 
ATOM      8  C   LIG    1       -2.603   5.129  -0.105  0.00  0.00    +0.300 C 
ATOM      9  C   LIG    1       -0.157   5.207  -0.085  0.00  0.00    +0.580 C 
ATOM     10  O   LIG    1        0.877   5.826   0.070  0.00  0.00    -0.520 OA
ATOM     11  C   LIG    1       -3.453   5.706   1.040  0.00  0.00    +0.260 C 
ATOM     12  O   LIG    1       -4.676   9.024   0.629  0.00  0.00    -0.570 OA
ENDROOT
BRANCH   1  18
ATOM     13  C   LIG    1       -8.099   7.401   1.792  0.00  0.00    +0.300 A 
ATOM     14  N   LIG    1       -9.246   8.056   1.806  0.00  0.00    -0.520 NA
ATOM     15  C   LIG    1       -9.431   9.148   1.088  0.00  0.00    +0.280 A 
ATOM     16  C   LIG    1       -8.424   9.651   0.289  0.00  0.00    -0.050 A 
ATOM     17  C   LIG    1       -7.199   9.000   0.247  0.00  0.00    +0.110 A 
ATOM     18  C   LIG    1       -7.035   7.850   1.009  0.00  0.00    +0.100 A 
BRANCH  13  20
ATOM     19  C   LIG    1       -9.079   5.874   3.327  0.00  0.00    +0.260 C 
ATOM     20  O   LIG    1       -7.953   6.282   2.547  0.00  0.00    -0.310 OA
ENDBRANCH  13  20
ENDBRANCH   1  18
BRANCH   9  21
ATOM     21  C   LIG    1       -0.126   3.730  -0.199  0.00  0.00    +0.030 A 
ATOM     22  C   LIG    1        1.061   3.036   0.031  0.00  0.00    +0.300 A 
ATOM     23  N   LIG    1        1.084   1.719  -0.071  0.00  0.00    -0.440 NA
ATOM     24  C   LIG    1       -0.016   1.061  -0.390  0.00  0.00    +0.260 A 
ATOM     25  C   LIG    1       -1.198   1.749  -0.624  0.00  0.00    +0.230 A 
ATOM     26  N   LIG    1       -1.231   3.062  -0.519  0.00  0.00    -0.410 NA
ENDBRANCH   9  21
TORSDOF 3
