REMARK  Name = ZINCqH0000005Xcz.0
REMARK                            x       y       z     vdW  Elec       q    Type
REMARK                         _______ _______ _______ _____ _____    ______ ____
ROOT
ATOM      1  C   LIG    1       -1.121   3.366   0.060  0.00  0.00    -0.130 A 
ATOM      2  C   LIG    1       -1.213   1.972   0.049  0.00  0.00    +0.090 A 
ATOM      3  C   LIG    1       -0.069   1.205   0.029  0.00  0.00    -0.020 A 
ATOM      4  C   LIG    1        1.180   1.814   0.008  0.00  0.00    +0.100 A 
ATOM      5  C   LIG    1        1.279   3.209   0.014  0.00  0.00    +0.140 A 
ATOM      6  C   LIG    1        0.135   3.982   0.040  0.00  0.00    +0.120 A 
ENDROOT
BRANCH   5   7
ATOM      7  N   LIG    1        2.540   3.822  -0.007  0.00  0.00    -0.670 N 
ATOM      8  H   LIG    1        3.314   3.351   0.339  0.00  0.00    +0.410 HD
ATOM      9  C   LIG    1        2.676   5.066  -0.508  0.00  0.00    +0.700 C 
ATOM     10  N   LIG    1        3.899   5.625  -0.601  0.00  0.00    -0.740 N 
ATOM     11  H   LIG    1        4.681   5.132  -0.307  0.00  0.00    +0.400 HD
ATOM     12  O   LIG    1        1.696   5.683  -0.877  0.00  0.00    -0.560 OA
BRANCH  10  13
ATOM     13  C   LIG    1        4.047   6.976  -1.145  0.00  0.00    +0.380 C 
BRANCH  13  14
ATOM     14  C   LIG    1        5.504   7.364  -1.140  0.00  0.00    -0.220 A 
ATOM     15  C   LIG    1        6.362   7.141  -2.136  0.00  0.00    -0.070 A 
ATOM     16  C   LIG    1        7.652   7.588  -1.906  0.00  0.00    +0.000 A 
ATOM     17  C   LIG    1        7.843   8.167  -0.719  0.00  0.00    -0.030 A 
ATOM     18  C   LIG    1        5.958   6.456  -3.417  0.00  0.00    +0.110 C 
ATOM     19  S   LIG    1        6.333   8.172   0.184  0.00  0.00    +0.120 S 
ENDBRANCH  13  14
ENDBRANCH  10  13
ENDBRANCH   5   7
BRANCH   4  20
ATOM     20  N   LIG    1        2.333   1.035  -0.018  0.00  0.00    -0.470 N 
ATOM     21  C   LIG    1        1.999  -0.412   0.029  0.00  0.00    +0.190 C 
ATOM     22  C   LIG    1        3.277  -1.089  -0.528  0.00  0.00    +0.040 C 
ATOM     23  C   LIG    1        3.727  -0.114  -1.640  0.00  0.00    +0.020 C 
ATOM     24  C   LIG    1        3.079   1.235  -1.280  0.00  0.00    +0.180 C 
ENDBRANCH   4  20
BRANCH   1  25
ATOM     25  C   LIG    1       -2.345   4.187   0.088  0.00  0.00    +0.510 C 
ATOM     26  O   LIG    1       -2.263   5.399   0.093  0.00  0.00    -0.500 OA
BRANCH  25  28
ATOM     27  C   LIG    1       -4.716   4.464   0.134  0.00  0.00    +0.260 C 
ATOM     28  O   LIG    1       -3.554   3.593   0.107  0.00  0.00    -0.360 OA
ENDBRANCH  25  28
ENDBRANCH   1  25
TORSDOF 6
