REMARK  Name = ZINCpk00000xI7Rx.0
REMARK                            x       y       z     vdW  Elec       q    Type
REMARK                         _______ _______ _______ _____ _____    ______ ____
ROOT
ATOM      1  C   LIG    1       -2.143   1.058   1.278  0.00  0.00    +0.540 C 
ATOM      2  N   LIG    1       -2.404  -0.171   1.767  0.00  0.00    -0.720 N 
ATOM      3  H   LIG    1       -1.682  -0.719   2.112  0.00  0.00    +0.410 HD
ATOM      4  O   LIG    1       -3.045   1.743   0.846  0.00  0.00    -0.520 OA
ENDROOT
BRANCH   1   6
ATOM      5  C   LIG    1       -0.013   1.086   0.008  0.00  0.00    +0.100 C 
ATOM      6  C   LIG    1       -0.729   1.579   1.267  0.00  0.00    +0.010 C 
BRANCH   6   7
ATOM      7  S   LIG    1       -0.753   3.389   1.277  0.00  0.00    +0.110 S 
BRANCH   7   8
ATOM      8  C   LIG    1        0.972   3.718   1.413  0.00  0.00    +0.250 A 
ATOM      9  N   LIG    1        1.913   2.820   1.486  0.00  0.00    -0.280 NA
ATOM     10  N   LIG    1        3.142   3.487   1.582  0.00  0.00    -0.540 N 
ATOM     11  H   LIG    1        4.016   3.072   1.648  0.00  0.00    +0.460 HD
ATOM     12  C   LIG    1        2.885   4.811   1.570  0.00  0.00    +0.650 A 
ATOM     13  O   LIG    1        3.710   5.705   1.641  0.00  0.00    -0.540 OA
ATOM     14  N   LIG    1        1.550   4.966   1.466  0.00  0.00    -0.510 N 
BRANCH  14  15
ATOM     15  C   LIG    1        0.836   6.244   1.419  0.00  0.00    +0.210 C 
ATOM     16  C   LIG    1        1.674   7.517   1.286  0.00  0.00    +0.070 C 
ATOM     17  C   LIG    1        0.992   7.186   2.615  0.00  0.00    +0.040 C 
ENDBRANCH  14  15
ENDBRANCH   7   8
ENDBRANCH   6   7
ENDBRANCH   1   6
BRANCH   2  18
ATOM     18  C   LIG    1       -3.779  -0.678   1.777  0.00  0.00    +0.340 C 
BRANCH  18  19
ATOM     19  C   LIG    1       -3.798  -2.063   2.370  0.00  0.00    -0.110 A 
ATOM     20  C   LIG    1       -3.648  -3.166   1.551  0.00  0.00    +0.050 A 
ATOM     21  C   LIG    1       -3.661  -4.439   2.092  0.00  0.00    +0.040 A 
ATOM     22  C   LIG    1       -3.834  -4.612   3.455  0.00  0.00    +0.040 A 
ATOM     23  O   LIG    1       -3.889  -5.737   4.225  0.00  0.00    -0.310 OA
ATOM     24  C   LIG    1       -4.489  -5.324   5.467  0.00  0.00    +0.440 C 
ATOM     25  O   LIG    1       -4.145  -3.930   5.566  0.00  0.00    -0.310 OA
ATOM     26  C   LIG    1       -3.991  -3.500   4.280  0.00  0.00    +0.030 A 
ATOM     27  C   LIG    1       -3.972  -2.228   3.732  0.00  0.00    +0.060 A 
ENDBRANCH  18  19
ENDBRANCH   2  18
TORSDOF 6
