REMARK  Name = ZINCnE000001QHGZ.0
REMARK                            x       y       z     vdW  Elec       q    Type
REMARK                         _______ _______ _______ _____ _____    ______ ____
ROOT
ATOM      1  N   LIG    1        6.307  -0.687  -2.074  0.00  0.00    -0.660 NA
ATOM      2  C   LIG    1        5.083  -0.133  -2.182  0.00  0.00    +0.660 C 
ATOM      3  N   LIG    1        4.638   0.709  -1.228  0.00  0.00    -0.610 N 
ATOM      4  C   LIG    1        5.476   1.032  -0.065  0.00  0.00    +0.280 C 
ATOM      5  C   LIG    1        4.677   0.752   1.212  0.00  0.00    +0.010 C 
ATOM      6  C   LIG    1        3.353   1.517   1.158  0.00  0.00    -0.050 C 
ATOM      7  C   LIG    1        2.532   1.037  -0.041  0.00  0.00    +0.020 C 
ATOM      8  C   LIG    1        2.567   1.267   2.447  0.00  0.00    +0.010 C 
ATOM      9  C   LIG    1        3.635   3.014   1.016  0.00  0.00    +0.020 C 
ATOM     10  C   LIG    1        3.307   1.321  -1.332  0.00  0.00    +0.290 C 
ATOM     11  O   LIG    1        4.381  -0.392  -3.140  0.00  0.00    -0.650 OA
ENDROOT
BRANCH   1  16
ATOM     12  C   LIG    1        9.046  -3.775  -4.697  0.00  0.00    +0.170 C 
ATOM     13  C   LIG    1        7.929  -2.890  -4.207  0.00  0.00    +0.150 A 
ATOM     14  N   LIG    1        6.790  -2.691  -4.800  0.00  0.00    -0.450 NA
ATOM     15  O   LIG    1        6.102  -1.930  -4.152  0.00  0.00    +0.000 OA
ATOM     16  C   LIG    1        6.763  -1.549  -3.050  0.00  0.00    +0.440 A 
ATOM     17  N   LIG    1        7.931  -2.162  -3.077  0.00  0.00    -0.570 NA
ENDBRANCH   1  16
BRANCH   7  18
ATOM     18  C   LIG    1        1.215   1.769  -0.074  0.00  0.00    -0.060 A 
ATOM     19  C   LIG    1        1.165   3.086  -0.492  0.00  0.00    +0.010 A 
ATOM     20  C   LIG    1       -0.042   3.758  -0.517  0.00  0.00    +0.000 A 
ATOM     21  C   LIG    1       -1.202   3.111  -0.134  0.00  0.00    -0.010 A 
ATOM     22  C   LIG    1       -1.153   1.794   0.283  0.00  0.00    +0.000 A 
ATOM     23  C   LIG    1        0.055   1.123   0.313  0.00  0.00    +0.000 A 
ENDBRANCH   7  18
TORSDOF 2
