REMARK  Name = ZINCqH0000036oXC.1
REMARK                            x       y       z     vdW  Elec       q    Type
REMARK                         _______ _______ _______ _____ _____    ______ ____
ROOT
ATOM      1  C   LIG    1        3.676  -0.707  -0.086  0.00  0.00    +0.220 C 
ENDROOT
BRANCH   1   7
ATOM      2  C   LIG    1        1.216  -1.193  -0.110  0.00  0.00    +0.140 A 
ATOM      3  C   LIG    1       -0.106  -0.778  -0.054  0.00  0.00    -0.080 A 
ATOM      4  C   LIG    1       -0.402   0.565   0.085  0.00  0.00    +0.060 A 
ATOM      5  C   LIG    1        0.619   1.494   0.168  0.00  0.00    -0.030 A 
ATOM      6  C   LIG    1        1.938   1.082   0.112  0.00  0.00    +0.060 A 
ATOM      7  C   LIG    1        2.239  -0.259  -0.026  0.00  0.00    -0.150 A 
BRANCH   2   9
ATOM      8  C   LIG    1        0.406  -3.418  -0.327  0.00  0.00    +0.250 C 
ATOM      9  O   LIG    1        1.509  -2.513  -0.247  0.00  0.00    -0.310 OA
ENDBRANCH   2   9
ENDBRANCH   1   7
BRANCH   1  10
ATOM     10  N   LIG    1        4.508   0.384  -0.611  0.00  0.00    -0.500 NA
ATOM     11  C   LIG    1        3.854   1.040  -1.773  0.00  0.00    +0.160 C 
ATOM     12  C   LIG    1        4.558   2.418  -1.844  0.00  0.00    +0.020 C 
ATOM     13  C   LIG    1        4.749   2.786  -0.354  0.00  0.00    +0.000 C 
ATOM     14  C   LIG    1        4.690   1.446   0.402  0.00  0.00    +0.160 C 
ENDBRANCH   1  10
BRANCH   1  15
ATOM     15  C   LIG    1        4.153  -1.081   1.319  0.00  0.00    +0.290 C 
BRANCH  15  16
ATOM     16  N   LIG    1        5.579  -1.412   1.278  0.00  0.00    -0.730 N 
ATOM     17  H   LIG    1        6.046  -1.442   0.429  0.00  0.00    +0.410 HD
ATOM     18  C   LIG    1        6.243  -1.675   2.422  0.00  0.00    +0.700 C 
ATOM     19  N   LIG    1        7.555  -1.980   2.385  0.00  0.00    -0.690 N 
ATOM     20  H   LIG    1        8.039  -1.938   1.545  0.00  0.00    +0.410 HD
ATOM     21  O   LIG    1        5.657  -1.638   3.487  0.00  0.00    -0.570 OA
BRANCH  19  22
ATOM     22  C   LIG    1        8.220  -2.356   3.559  0.00  0.00    +0.160 A 
ATOM     23  C   LIG    1        9.550  -2.005   3.747  0.00  0.00    +0.020 A 
ATOM     24  C   LIG    1       10.203  -2.373   4.907  0.00  0.00    +0.010 A 
ATOM     25  C   LIG    1        9.534  -3.101   5.878  0.00  0.00    +0.080 A 
ATOM     26  C   LIG    1        8.209  -3.456   5.689  0.00  0.00    +0.010 A 
ATOM     27  F   LIG    1       10.176  -3.465   7.009  0.00  0.00    -0.140 F 
ATOM     28  C   LIG    1        7.552  -3.086   4.533  0.00  0.00    +0.050 A 
ENDBRANCH  19  22
ENDBRANCH  15  16
ENDBRANCH   1  15
TORSDOF 6
