REMARK  Name = ZINCpe00000Qcwb7.0
REMARK                            x       y       z     vdW  Elec       q    Type
REMARK                         _______ _______ _______ _____ _____    ______ ____
ROOT
ATOM      1  C   LIG    1        2.157  -0.045  -1.268  0.00  0.00    +0.020 A 
ATOM      2  C   LIG    1        1.702  -0.856  -2.252  0.00  0.00    +0.140 A 
ATOM      3  N   LIG    1        1.925  -2.122  -1.830  0.00  0.00    -0.280 N 
ATOM      4  N   LIG    1        2.477  -2.069  -0.669  0.00  0.00    -0.080 NA
ATOM      5  N   LIG    1        2.635  -0.844  -0.308  0.00  0.00    -0.250 NA
ENDROOT
BRANCH   1   6
ATOM      6  C   LIG    1        2.136   1.462  -1.259  0.00  0.00    +0.140 C 
BRANCH   6   7
ATOM      7  C   LIG    1        1.418   1.954  -0.001  0.00  0.00    -0.050 C 
ATOM      8  C   LIG    1        2.159   1.452   1.242  0.00  0.00    +0.030 C 
ATOM      9  C   LIG    1        1.478   2.015   2.494  0.00  0.00    +0.200 C 
ATOM     10  O   LIG    1        1.467   3.443   2.427  0.00  0.00    -0.380 OA
ATOM     11  C   LIG    1        0.748   3.970   1.310  0.00  0.00    +0.200 C 
ATOM     12  C   LIG    1        1.399   3.486   0.012  0.00  0.00    +0.000 C 
BRANCH   7  13
ATOM     13  C   LIG    1       -0.017   1.425   0.010  0.00  0.00    +0.160 C 
BRANCH  13  14
ATOM     14  O   LIG    1        0.002  -0.004   0.002  0.00  0.00    -0.550 OA
ATOM     15  H   LIG    1       -0.876  -0.409   0.008  0.00  0.00    +0.370 HD
ENDBRANCH  13  14
ENDBRANCH   7  13
ENDBRANCH   6   7
ENDBRANCH   1   6
BRANCH   3  16
ATOM     16  C   LIG    1        1.594  -3.343  -2.568  0.00  0.00    +0.420 C 
BRANCH  16  17
ATOM     17  C   LIG    1        2.830  -4.194  -2.711  0.00  0.00    +0.110 A 
ATOM     18  C   LIG    1        2.809  -5.501  -2.269  0.00  0.00    +0.010 A 
ATOM     19  C   LIG    1        3.950  -6.280  -2.407  0.00  0.00    +0.080 A 
ATOM     20  C   LIG    1        5.077  -5.707  -2.979  0.00  0.00    +0.020 A 
ATOM     21  O   LIG    1        6.211  -6.444  -3.116  0.00  0.00    -0.300 OA
ATOM     22  C   LIG    1        7.194  -5.946  -4.031  0.00  0.00    +0.230 C 
ATOM     23  C   LIG    1        7.374  -4.444  -3.769  0.00  0.00    +0.230 C 
ATOM     24  O   LIG    1        6.113  -3.797  -3.972  0.00  0.00    -0.290 OA
ATOM     25  C   LIG    1        5.027  -4.381  -3.400  0.00  0.00    +0.270 A 
ATOM     26  N   LIG    1        3.916  -3.676  -3.252  0.00  0.00    -0.450 NA
ENDBRANCH  16  17
ENDBRANCH   3  16
TORSDOF 6
