REMARK  Name = ZINCkj000005i0kt.0
REMARK                            x       y       z     vdW  Elec       q    Type
REMARK                         _______ _______ _______ _____ _____    ______ ____
ROOT
ATOM      1  C   LIG    1        1.148   5.293   5.809  0.00  0.00    +0.160 C 
ATOM      2  C   LIG    1        2.231   5.786   4.846  0.00  0.00    +0.030 C 
ATOM      3  C   LIG    1        3.202   4.640   4.546  0.00  0.00    +0.310 C 
ATOM      4  N   LIG    1        2.436   3.487   4.053  0.00  0.00    -0.630 N 
ATOM      5  C   LIG    1        1.310   2.992   4.857  0.00  0.00    +0.260 C 
ATOM      6  C   LIG    1        2.756   2.899   2.884  0.00  0.00    +0.710 C 
ATOM      7  N   LIG    1        1.821   2.213   2.196  0.00  0.00    -0.640 N 
ATOM      8  C   LIG    1        2.190   1.470   1.010  0.00  0.00    +0.310 C 
ATOM      9  C   LIG    1        1.962   2.265  -0.260  0.00  0.00    +0.050 C 
ATOM     10  C   LIG    1        0.502   2.373  -0.643  0.00  0.00    +0.180 C 
ATOM     11  C   LIG    1       -0.055   0.930  -0.657  0.00  0.00    +0.080 C 
ATOM     12  C   LIG    1       -0.540   0.691   0.787  0.00  0.00    +0.080 C 
ATOM     13  C   LIG    1       -0.515   2.047   1.448  0.00  0.00    +0.160 C 
ATOM     14  N   LIG    1       -0.231   3.095   0.435  0.00  0.00    -0.390 N 
ATOM     15  C   LIG    1       -1.483   3.661  -0.085  0.00  0.00    +0.320 C 
ATOM     16  H   LIG    1        0.348   3.820   0.831  0.00  0.00    +0.430 HD
ATOM     17  C   LIG    1        0.395   2.217   2.655  0.00  0.00    +0.320 C 
ATOM     18  O   LIG    1        3.888   2.988   2.449  0.00  0.00    -0.560 OA
ATOM     19  C   LIG    1        0.363   4.153   5.156  0.00  0.00    +0.000 C 
ENDROOT
BRANCH   1  21
ATOM     20  C   LIG    1       -0.327   6.285   7.417  0.00  0.00    +0.210 C 
ATOM     21  O   LIG    1        0.259   6.368   6.116  0.00  0.00    -0.380 OA
ENDBRANCH   1  21
TORSDOF 1
