REMARK  Name = ZINCkj000005i0kt.1
REMARK                            x       y       z     vdW  Elec       q    Type
REMARK                         _______ _______ _______ _____ _____    ______ ____
ROOT
ATOM      1  C   LIG    1       -2.178   3.310   5.754  0.00  0.00    +0.150 C 
ATOM      2  C   LIG    1       -2.127   2.557   4.422  0.00  0.00    +0.040 C 
ATOM      3  C   LIG    1       -1.900   3.557   3.284  0.00  0.00    +0.260 C 
ATOM      4  N   LIG    1       -0.696   4.345   3.579  0.00  0.00    -0.630 N 
ATOM      5  C   LIG    1       -0.600   5.031   4.875  0.00  0.00    +0.300 C 
ATOM      6  C   LIG    1        0.305   4.432   2.680  0.00  0.00    +0.710 C 
ATOM      7  N   LIG    1        0.062   4.186   1.368  0.00  0.00    -0.630 N 
ATOM      8  C   LIG    1       -1.303   3.972   0.943  0.00  0.00    +0.280 C 
ATOM      9  C   LIG    1       -1.620   2.518   0.670  0.00  0.00    +0.050 C 
ATOM     10  C   LIG    1       -0.988   1.958  -0.573  0.00  0.00    +0.190 C 
ATOM     11  C   LIG    1       -1.310   2.909  -1.750  0.00  0.00    +0.080 C 
ATOM     12  C   LIG    1       -0.153   3.927  -1.745  0.00  0.00    +0.080 C 
ATOM     13  C   LIG    1        0.911   3.326  -0.840  0.00  0.00    +0.180 C 
ATOM     14  N   LIG    1        0.506   1.938  -0.480  0.00  0.00    -0.390 N 
ATOM     15  C   LIG    1        1.013   1.474   0.797  0.00  0.00    +0.320 C 
ATOM     16  H   LIG    1        0.852   1.317  -1.220  0.00  0.00    +0.430 HD
ATOM     17  C   LIG    1        1.194   4.160   0.410  0.00  0.00    +0.320 C 
ATOM     18  O   LIG    1        1.426   4.731   3.046  0.00  0.00    -0.560 OA
ATOM     19  C   LIG    1       -0.844   4.019   5.993  0.00  0.00    +0.000 C 
ENDROOT
BRANCH   1  21
ATOM     20  C   LIG    1       -3.136   2.940   7.920  0.00  0.00    +0.200 C 
ATOM     21  O   LIG    1       -2.421   2.383   6.815  0.00  0.00    -0.380 OA
ENDBRANCH   1  21
TORSDOF 1
