REMARK  Name = ZINCrH000004omrS.0
REMARK                            x       y       z     vdW  Elec       q    Type
REMARK                         _______ _______ _______ _____ _____    ______ ____
ROOT
ATOM      1  C   LIG    1       -1.214   1.751   0.016  0.00  0.00    -0.170 A 
ATOM      2  C   LIG    1        0.006   1.072  -0.005  0.00  0.00    +0.060 A 
ATOM      3  C   LIG    1        1.188   1.781  -0.035  0.00  0.00    -0.010 A 
ATOM      4  C   LIG    1        1.172   3.166  -0.039  0.00  0.00    +0.060 A 
ATOM      5  C   LIG    1       -0.026   3.852  -0.013  0.00  0.00    +0.020 A 
ATOM      6  C   LIG    1       -1.226   3.154   0.018  0.00  0.00    +0.210 A 
ENDROOT
BRANCH   1   9
ATOM      7  N   LIG    1       -2.465  -0.346   0.146  0.00  0.00    -0.720 N 
ATOM      8  H   LIG    1       -1.620  -0.818   0.204  0.00  0.00    +0.400 HD
ATOM      9  C   LIG    1       -2.482   0.998   0.042  0.00  0.00    +0.570 C 
ATOM     10  O   LIG    1       -3.542   1.589  -0.031  0.00  0.00    -0.540 OA
BRANCH   7  12
ATOM     11  C   LIG    1       -4.264  -1.136   1.603  0.00  0.00    +0.040 C 
ATOM     12  C   LIG    1       -3.725  -1.094   0.172  0.00  0.00    +0.280 C 
BRANCH  12  13
ATOM     13  C   LIG    1       -3.484  -2.500  -0.316  0.00  0.00    -0.100 A 
ATOM     14  C   LIG    1       -2.335  -3.173   0.055  0.00  0.00    +0.000 A 
ATOM     15  C   LIG    1       -2.116  -4.463  -0.389  0.00  0.00    +0.010 A 
ATOM     16  C   LIG    1       -3.043  -5.078  -1.211  0.00  0.00    +0.000 A 
ATOM     17  C   LIG    1       -4.189  -4.403  -1.586  0.00  0.00    +0.020 A 
ATOM     18  C   LIG    1       -4.410  -3.114  -1.139  0.00  0.00    +0.020 A 
ENDBRANCH  12  13
ENDBRANCH   7  12
ENDBRANCH   1   9
BRANCH   6  19
ATOM     19  N   LIG    1       -2.436   3.843   0.044  0.00  0.00    -0.650 N 
ATOM     20  H   LIG    1       -3.208   3.486  -0.423  0.00  0.00    +0.430 HD
ATOM     21  C   LIG    1       -2.535   5.005   0.719  0.00  0.00    +0.540 C 
ATOM     22  O   LIG    1       -1.551   5.493   1.234  0.00  0.00    -0.510 OA
BRANCH  21  23
ATOM     23  C   LIG    1       -3.867   5.700   0.833  0.00  0.00    +0.100 C 
BRANCH  23  24
ATOM     24  S   LIG    1       -3.674   7.223   1.791  0.00  0.00    +0.120 S 
BRANCH  24  25
ATOM     25  C   LIG    1       -5.334   7.812   1.767  0.00  0.00    -0.020 A 
ATOM     26  N   LIG    1       -6.348   7.232   1.190  0.00  0.00    -0.270 NA
ATOM     27  N   LIG    1       -7.472   7.798   1.275  0.00  0.00    -0.250 NA
ATOM     28  C   LIG    1       -7.542   8.913   1.927  0.00  0.00    +0.220 A 
ATOM     29  S   LIG    1       -5.926   9.291   2.528  0.00  0.00    +0.120 S 
ENDBRANCH  24  25
ENDBRANCH  23  24
ENDBRANCH  21  23
ENDBRANCH   6  19
TORSDOF 7
