REMARK  Name = ZINCrD0000074PBU.0
REMARK                            x       y       z     vdW  Elec       q    Type
REMARK                         _______ _______ _______ _____ _____    ______ ____
ROOT
ATOM      1  S   LIG    1       -3.169   3.865  -0.054  0.00  0.00    +2.440 S 
ATOM      2  O   LIG    1       -3.686   3.529   1.226  0.00  0.00    -0.910 OA
ATOM      3  O   LIG    1       -3.791   3.332  -1.216  0.00  0.00    -0.900 OA
ENDROOT
BRANCH   1   4
ATOM      4  C   LIG    1       -1.406   3.439  -0.095  0.00  0.00    -0.330 C 
BRANCH   4   7
ATOM      5  N   LIG    1       -0.017   1.395   0.010  0.00  0.00    -0.660 N 
ATOM      6  H   LIG    1        0.768   1.964  -0.008  0.00  0.00    +0.410 HD
ATOM      7  C   LIG    1       -1.247   1.945   0.018  0.00  0.00    +0.540 C 
ATOM      8  O   LIG    1       -2.227   1.237   0.117  0.00  0.00    -0.500 OA
BRANCH   5  14
ATOM      9  C   LIG    1        2.458  -2.614  -1.397  0.00  0.00    +0.090 C 
ATOM     10  C   LIG    1        1.318  -1.966  -0.653  0.00  0.00    -0.070 A 
ATOM     11  C   LIG    1        0.413  -2.749   0.041  0.00  0.00    +0.000 A 
ATOM     12  C   LIG    1       -0.634  -2.159   0.725  0.00  0.00    +0.030 A 
ATOM     13  C   LIG    1       -0.776  -0.785   0.721  0.00  0.00    +0.020 A 
ATOM     14  C   LIG    1        0.128   0.003   0.020  0.00  0.00    +0.140 A 
ATOM     15  C   LIG    1        1.178  -0.592  -0.665  0.00  0.00    -0.110 A 
ATOM     16  C   LIG    1        2.164   0.260  -1.423  0.00  0.00    +0.090 C 
ENDBRANCH   5  14
ENDBRANCH   4   7
ENDBRANCH   1   4
BRANCH   1  17
ATOM     17  C   LIG    1       -3.121   5.673  -0.202  0.00  0.00    -0.260 C 
BRANCH  17  18
ATOM     18  C   LIG    1       -4.527   6.215  -0.185  0.00  0.00    -0.110 A 
ATOM     19  C   LIG    1       -5.120   6.560   1.013  0.00  0.00    +0.090 A 
ATOM     20  C   LIG    1       -6.411   7.057   1.029  0.00  0.00    -0.060 A 
ATOM     21  C   LIG    1       -7.109   7.209  -0.155  0.00  0.00    +0.100 A 
ATOM     22  C   LIG    1       -6.519   6.865  -1.357  0.00  0.00    -0.190 A 
ATOM     23  C   LIG    1       -7.291   7.031  -2.641  0.00  0.00    +0.300 C 
ATOM     24  O   LIG    1       -6.386   6.978  -3.748  0.00  0.00    -0.380 OA
ATOM     25  C   LIG    1       -5.487   5.864  -3.684  0.00  0.00    +0.440 C 
ATOM     26  O   LIG    1       -4.630   6.034  -2.551  0.00  0.00    -0.320 OA
ATOM     27 CL   LIG    1       -7.155   7.492   2.537  0.00  0.00    -0.050 Cl
ATOM     28  C   LIG    1       -5.223   6.374  -1.376  0.00  0.00    +0.160 A 
ENDBRANCH  17  18
ENDBRANCH   1  17
TORSDOF 5
