REMARK  Name = ZINCqH0000008FiB.0
REMARK                            x       y       z     vdW  Elec       q    Type
REMARK                         _______ _______ _______ _____ _____    ______ ____
ROOT
ATOM      1  N   LIG    1       -0.743   2.268  -4.841  0.00  0.00    -0.630 N 
ATOM      2  H   LIG    1        0.130   2.004  -5.173  0.00  0.00    +0.420 HD
ATOM      3  C   LIG    1       -1.663   2.770  -5.689  0.00  0.00    +0.510 C 
ATOM      4  O   LIG    1       -2.753   3.099  -5.274  0.00  0.00    -0.480 OA
ENDROOT
BRANCH   1  12
ATOM      5  C   LIG    1       -2.918   1.501   2.487  0.00  0.00    +0.030 C 
ATOM      6  C   LIG    1       -2.229   1.246   1.145  0.00  0.00    -0.010 C 
ATOM      7  C   LIG    1       -0.735   1.582   1.263  0.00  0.00    +0.030 C 
ATOM      8  C   LIG    1       -0.013   1.086   0.008  0.00  0.00    +0.100 C 
ATOM      9  C   LIG    1       -0.754   1.592  -1.219  0.00  0.00    -0.040 A 
ATOM     10  C   LIG    1       -2.010   2.054  -1.186  0.00  0.00    -0.250 A 
ATOM     11  S   LIG    1       -2.534   2.550  -2.787  0.00  0.00    +0.320 S 
ATOM     12  C   LIG    1       -1.044   2.127  -3.494  0.00  0.00    +0.060 A 
ATOM     13  C   LIG    1       -0.186   1.631  -2.554  0.00  0.00    -0.110 A 
ATOM     14  C   LIG    1       -2.858   2.134   0.069  0.00  0.00    +0.120 C 
BRANCH  13  15
ATOM     15  C   LIG    1        1.143   1.193  -2.856  0.00  0.00    +0.270 C 
ATOM     16  N   LIG    1        2.198   0.846  -3.096  0.00  0.00    -0.420 NA
ENDBRANCH  13  15
ENDBRANCH   1  12
BRANCH   3  17
ATOM     17  C   LIG    1       -1.335   2.922  -7.152  0.00  0.00    +0.240 C 
BRANCH  17  18
ATOM     18  N   LIG    1       -2.494   3.487  -7.857  0.00  0.00    -0.510 NA
ATOM     19  C   LIG    1       -2.293   3.451  -9.314  0.00  0.00    +0.170 C 
ATOM     20  C   LIG    1       -3.640   3.696  -9.995  0.00  0.00    +0.090 C 
ATOM     21  C   LIG    1       -4.294   4.925  -9.416  0.00  0.00    -0.070 A 
ATOM     22  C   LIG    1       -5.332   5.516 -10.119  0.00  0.00    +0.000 A 
ATOM     23  C   LIG    1       -5.963   6.637  -9.619  0.00  0.00    +0.000 A 
ATOM     24  C   LIG    1       -5.558   7.174  -8.412  0.00  0.00    +0.000 A 
ATOM     25  C   LIG    1       -4.523   6.587  -7.711  0.00  0.00    +0.010 A 
ATOM     26  C   LIG    1       -3.887   5.461  -8.213  0.00  0.00    -0.070 A 
ATOM     27  C   LIG    1       -2.760   4.859  -7.414  0.00  0.00    +0.250 C 
ENDBRANCH  17  18
ENDBRANCH   3  17
TORSDOF 4
