REMARK  Name = ZINCrH000004oLKj.0
REMARK                            x       y       z     vdW  Elec       q    Type
REMARK                         _______ _______ _______ _____ _____    ______ ____
ROOT
ATOM      1  C   LIG    1       -1.962   3.509   3.878  0.00  0.00    -0.070 A 
ATOM      2  C   LIG    1       -0.598   3.223   3.803  0.00  0.00    +0.030 A 
ATOM      3  C   LIG    1       -0.067   2.711   2.638  0.00  0.00    +0.130 A 
ATOM      4  C   LIG    1       -0.883   2.479   1.545  0.00  0.00    -0.660 A 
ATOM      5  C   LIG    1       -2.235   2.765   1.611  0.00  0.00    +0.130 A 
ATOM      6  C   LIG    1       -2.780   3.273   2.772  0.00  0.00    +0.060 A 
ENDROOT
BRANCH   1  13
ATOM      7  C   LIG    1        0.928   7.405   5.155  0.00  0.00    +0.030 C 
ATOM      8  C   LIG    1       -0.477   6.901   5.488  0.00  0.00    -0.030 C 
ATOM      9  C   LIG    1       -0.868   7.368   6.892  0.00  0.00    +0.030 C 
ATOM     10  C   LIG    1       -2.286   6.892   7.214  0.00  0.00    -0.020 C 
ATOM     11  C   LIG    1       -2.325   5.361   7.185  0.00  0.00    +0.280 C 
ATOM     12  N   LIG    1       -1.813   4.899   5.888  0.00  0.00    -0.600 N 
ATOM     13  C   LIG    1       -2.538   4.058   5.124  0.00  0.00    +0.550 C 
ATOM     14  O   LIG    1       -3.666   3.752   5.459  0.00  0.00    -0.520 OA
ATOM     15  C   LIG    1       -3.260   7.447   6.172  0.00  0.00    +0.030 C 
ATOM     16  C   LIG    1       -0.493   5.365   5.443  0.00  0.00    +0.270 C 
ENDBRANCH   1  13
BRANCH   4  17
ATOM     17  S   LIG    1       -0.196   1.824   0.060  0.00  0.00    +2.690 S 
ATOM     18  O   LIG    1       -1.015   2.294  -1.002  0.00  0.00    -0.940 OA
ATOM     19  O   LIG    1        1.203   2.062   0.126  0.00  0.00    -0.950 OA
BRANCH  17  20
ATOM     20  N   LIG    1       -0.394   0.181   0.112  0.00  0.00    -1.060 N 
ATOM     21  H   LIG    1        0.382  -0.400   0.151  0.00  0.00    +0.430 HD
BRANCH  20  22
ATOM     22  C   LIG    1       -1.679  -0.369   0.098  0.00  0.00    +0.110 A 
ATOM     23  C   LIG    1       -2.215  -0.914   1.257  0.00  0.00    +0.060 A 
ATOM     24  C   LIG    1       -3.487  -1.453   1.242  0.00  0.00    -0.010 A 
ATOM     25  C   LIG    1       -4.224  -1.458   0.070  0.00  0.00    +0.110 A 
ATOM     26  C   LIG    1       -3.689  -0.920  -1.089  0.00  0.00    +0.010 A 
ATOM     27  F   LIG    1       -5.466  -1.990   0.056  0.00  0.00    -0.130 F 
ATOM     28  C   LIG    1       -2.420  -0.376  -1.077  0.00  0.00    +0.080 A 
ENDBRANCH  20  22
ENDBRANCH  17  20
ENDBRANCH   4  17
TORSDOF 4
