REMARK  Name = ZINCrg000000tc2n.0
REMARK                            x       y       z     vdW  Elec       q    Type
REMARK                         _______ _______ _______ _____ _____    ______ ____
ROOT
ATOM      1  O   LIG    1       -7.805   4.798   0.804  0.00  0.00    -0.520 OA
ATOM      2  C   LIG    1       -7.013   4.873   1.719  0.00  0.00    +0.510 C 
ATOM      3  N   LIG    1       -5.697   5.008   1.461  0.00  0.00    -0.720 N 
ATOM      4  H   LIG    1       -5.063   5.067   2.193  0.00  0.00    +0.410 HD
ENDROOT
BRANCH   3   5
ATOM      5  C   LIG    1       -5.223   5.064   0.076  0.00  0.00    +0.340 C 
BRANCH   5   6
ATOM      6  C   LIG    1       -3.724   5.216   0.063  0.00  0.00    -0.040 A 
ATOM      7  C   LIG    1       -3.138   6.474   0.064  0.00  0.00    -0.020 A 
ATOM      8  C   LIG    1       -1.760   6.577   0.052  0.00  0.00    +0.310 A 
ATOM      9  N   LIG    1       -1.001   5.499   0.044  0.00  0.00    -0.500 NA
ATOM     10  C   LIG    1       -1.523   4.283   0.038  0.00  0.00    +0.370 A 
ATOM     11  C   LIG    1       -2.900   4.103   0.050  0.00  0.00    +0.000 A 
BRANCH  10  12
ATOM     12  N   LIG    1       -0.679   3.168   0.025  0.00  0.00    -0.330 N 
ATOM     13  C   LIG    1        0.679   3.192   0.012  0.00  0.00    +0.260 A 
ATOM     14  C   LIG    1        1.111   1.910   0.002  0.00  0.00    -0.100 A 
ATOM     15  C   LIG    1       -0.013   1.076   0.008  0.00  0.00    +0.270 A 
ATOM     16  N   LIG    1       -1.084   1.827   0.017  0.00  0.00    -0.290 NA
ENDBRANCH  10  12
ENDBRANCH   5   6
ENDBRANCH   3   5
BRANCH   2  17
ATOM     17  C   LIG    1       -7.500   4.815   3.144  0.00  0.00    +0.340 C 
BRANCH  17  18
ATOM     18  N   LIG    1       -8.957   4.667   3.156  0.00  0.00    -0.560 N 
ATOM     19  C   LIG    1       -9.567   3.474   3.155  0.00  0.00    +0.530 C 
ATOM     20  C   LIG    1      -11.073   3.691   3.252  0.00  0.00    +0.020 C 
ATOM     21  C   LIG    1      -11.545   3.099   4.565  0.00  0.00    +0.040 C 
ATOM     22  C   LIG    1      -12.744   3.833   5.149  0.00  0.00    +0.020 C 
ATOM     23  C   LIG    1      -12.347   5.300   5.358  0.00  0.00    +0.020 C 
ATOM     24  C   LIG    1      -12.170   5.931   3.980  0.00  0.00    +0.060 C 
ATOM     25  C   LIG    1      -11.206   5.191   3.106  0.00  0.00    -0.010 C 
ATOM     26  O   LIG    1       -9.012   2.398   3.089  0.00  0.00    -0.470 OA
ATOM     27  C   LIG    1       -9.796   5.717   3.175  0.00  0.00    +0.540 C 
ATOM     28  O   LIG    1       -9.474   6.884   3.235  0.00  0.00    -0.470 OA
ENDBRANCH  17  18
ENDBRANCH   2  17
TORSDOF 5
