REMARK  Name = ZINCqH0000005sij.0
REMARK                            x       y       z     vdW  Elec       q    Type
REMARK                         _______ _______ _______ _____ _____    ______ ____
ROOT
ATOM      1  N   LIG    1        3.595   2.123  -0.022  0.00  0.00    -0.720 N 
ATOM      2  H   LIG    1        4.448   1.663  -0.038  0.00  0.00    +0.410 HD
ENDROOT
BRANCH   1   6
ATOM      3  C   LIG    1        0.049  -0.057   0.015  0.00  0.00    -0.190 A 
ATOM      4  C   LIG    1        0.013   1.340   0.027  0.00  0.00    +0.100 A 
ATOM      5  C   LIG    1        1.187   2.058   0.015  0.00  0.00    -0.050 A 
ATOM      6  C   LIG    1        2.411   1.394  -0.009  0.00  0.00    +0.250 A 
ATOM      7  C   LIG    1        2.452   0.003  -0.020  0.00  0.00    -0.050 A 
ATOM      8  C   LIG    1        1.281  -0.722  -0.008  0.00  0.00    +0.060 A 
ATOM      9 CL   LIG    1        1.332  -2.457  -0.022  0.00  0.00    -0.030 Cl
BRANCH   3  13
ATOM     10  C   LIG    1       -3.640  -0.955   0.065  0.00  0.00    +0.290 C 
ATOM     11  N   LIG    1       -2.392  -0.188   0.052  0.00  0.00    -0.740 N 
ATOM     12  H   LIG    1       -2.418   0.782   0.060  0.00  0.00    +0.400 HD
ATOM     13  C   LIG    1       -1.207  -0.829   0.029  0.00  0.00    +0.560 C 
ATOM     14  O   LIG    1       -1.174  -2.045   0.019  0.00  0.00    -0.520 OA
ENDBRANCH   3  13
ENDBRANCH   1   6
BRANCH   1  15
ATOM     15  C   LIG    1        3.554   3.588  -0.010  0.00  0.00    +0.250 C 
ATOM     16  C   LIG    1        4.880   4.171  -0.551  0.00  0.00    +0.080 C 
ATOM     17  C   LIG    1        5.681   4.389   0.751  0.00  0.00    +0.280 C 
ATOM     18  N   LIG    1        4.676   4.551   1.808  0.00  0.00    -0.550 N 
ATOM     19  C   LIG    1        3.473   4.104   1.409  0.00  0.00    +0.500 C 
ATOM     20  O   LIG    1        2.468   4.113   2.089  0.00  0.00    -0.490 OA
BRANCH  18  21
ATOM     21  C   LIG    1        4.936   5.101   3.070  0.00  0.00    +0.170 A 
ATOM     22  C   LIG    1        3.894   5.327   3.958  0.00  0.00    +0.050 A 
ATOM     23  C   LIG    1        4.153   5.865   5.203  0.00  0.00    +0.040 A 
ATOM     24  C   LIG    1        5.450   6.188   5.563  0.00  0.00    +0.090 A 
ATOM     25  C   LIG    1        6.492   5.966   4.677  0.00  0.00    -0.050 A 
ATOM     26 CL   LIG    1        8.118   6.372   5.131  0.00  0.00    -0.040 Cl
ATOM     27  F   LIG    1        5.700   6.719   6.780  0.00  0.00    -0.120 F 
ATOM     28  C   LIG    1        6.237   5.424   3.432  0.00  0.00    +0.030 A 
ENDBRANCH  18  21
ENDBRANCH   1  15
TORSDOF 4
