REMARK  Name = ZINCtV00000L6kL8.0
REMARK                            x       y       z     vdW  Elec       q    Type
REMARK                         _______ _______ _______ _____ _____    ______ ____
ROOT
ATOM      1  C   LIG    1       -3.222  -1.567   0.025  0.00  0.00    -0.540 A 
ATOM      2  C   LIG    1       -2.427  -2.665   0.012  0.00  0.00    +0.060 A 
ATOM      3  O   LIG    1       -1.150  -2.231   0.002  0.00  0.00    -0.170 OA
ATOM      4  C   LIG    1       -1.175  -0.883   0.009  0.00  0.00    +0.270 A 
ATOM      5  N   LIG    1       -2.428  -0.486   0.028  0.00  0.00    -0.370 NA
ENDROOT
BRANCH   4   6
ATOM      6  C   LIG    1        0.002  -0.004   0.002  0.00  0.00    +0.040 A 
ATOM      7  C   LIG    1        1.304  -0.409  -0.013  0.00  0.00    +0.020 A 
ATOM      8  C   LIG    1        2.091   0.758  -0.014  0.00  0.00    -0.060 A 
ATOM      9  C   LIG    1        1.245   1.807  -0.000  0.00  0.00    +0.220 A 
ATOM     10  O   LIG    1       -0.016   1.344   0.009  0.00  0.00    -0.140 OA
ENDBRANCH   4   6
BRANCH   1  12
ATOM     11  O   LIG    1       -5.386  -0.307  -0.494  0.00  0.00    -0.900 OA
ATOM     12  S   LIG    1       -4.984  -1.560   0.041  0.00  0.00    +2.610 S 
ATOM     13  O   LIG    1       -5.395  -2.806  -0.505  0.00  0.00    -0.910 OA
BRANCH  12  14
ATOM     14  C   LIG    1       -5.490  -1.567   1.729  0.00  0.00    -0.650 A 
ATOM     15  C   LIG    1       -5.698  -2.766   2.384  0.00  0.00    +0.140 A 
ATOM     16  C   LIG    1       -6.089  -2.772   3.709  0.00  0.00    +0.040 A 
ATOM     17  C   LIG    1       -6.283  -1.576   4.378  0.00  0.00    -0.040 A 
ATOM     18  C   LIG    1       -6.081  -0.376   3.721  0.00  0.00    +0.040 A 
ATOM     19 BR   LIG    1       -6.827  -1.583   6.189  0.00  0.00    -0.030 Br
ATOM     20  C   LIG    1       -5.684  -0.372   2.397  0.00  0.00    +0.150 A 
ENDBRANCH  12  14
ENDBRANCH   1  12
BRANCH   2  21
ATOM     21  S   LIG    1       -2.962  -4.344   0.009  0.00  0.00    +0.090 S 
BRANCH  21  22
ATOM     22  C   LIG    1       -1.402  -5.269  -0.009  0.00  0.00    +0.130 C 
BRANCH  22  23
ATOM     23  C   LIG    1       -1.694  -6.747  -0.013  0.00  0.00    -0.080 A 
ATOM     24  C   LIG    1       -1.839  -7.420  -1.212  0.00  0.00    +0.060 A 
ATOM     25  C   LIG    1       -2.108  -8.776  -1.216  0.00  0.00    +0.030 A 
ATOM     26  C   LIG    1       -2.232  -9.460  -0.021  0.00  0.00    +0.050 A 
ATOM     27  C   LIG    1       -2.088  -8.788   1.179  0.00  0.00    +0.030 A 
ATOM     28  C   LIG    1       -1.812  -7.433   1.183  0.00  0.00    -0.020 A 
ATOM     29 CL   LIG    1       -1.623  -6.590   2.689  0.00  0.00    -0.060 Cl
ENDBRANCH  22  23
ENDBRANCH  21  22
ENDBRANCH   2  21
TORSDOF 6
