REMARK  Name = ZINCqH0000005igV.0
REMARK                            x       y       z     vdW  Elec       q    Type
REMARK                         _______ _______ _______ _____ _____    ______ ____
ROOT
ATOM      1  C   LIG    1       -0.986  -2.634   1.618  0.00  0.00    +0.290 C 
ATOM      2  N   LIG    1       -1.595  -1.343   1.286  0.00  0.00    -0.620 N 
ATOM      3  C   LIG    1       -2.370  -0.711   2.189  0.00  0.00    +0.710 C 
ATOM      4  N   LIG    1       -2.586  -1.267   3.398  0.00  0.00    -0.700 N 
ATOM      5  H   LIG    1       -2.251  -2.157   3.589  0.00  0.00    +0.420 HD
ATOM      6  O   LIG    1       -2.875   0.360   1.913  0.00  0.00    -0.550 OA
ENDROOT
BRANCH   4   7
ATOM      7  C   LIG    1       -3.291  -0.559   4.377  0.00  0.00    +0.260 A 
ATOM      8  C   LIG    1       -3.326   0.829   4.344  0.00  0.00    +0.010 A 
ATOM      9  C   LIG    1       -4.028   1.524   5.309  0.00  0.00    +0.100 A 
ATOM     10  C   LIG    1       -4.686   0.840   6.315  0.00  0.00    -0.020 A 
ATOM     11  C   LIG    1       -4.649  -0.542   6.354  0.00  0.00    +0.150 A 
ATOM     12  C   LIG    1       -3.954  -1.243   5.389  0.00  0.00    -0.690 A 
BRANCH  12  13
ATOM     13  S   LIG    1       -3.907  -3.003   5.440  0.00  0.00    +2.500 S 
ATOM     14  O   LIG    1       -4.656  -3.341   6.599  0.00  0.00    -0.930 OA
ATOM     15  O   LIG    1       -2.525  -3.321   5.342  0.00  0.00    -0.940 OA
ATOM     16  C   LIG    1       -4.787  -3.523   3.941  0.00  0.00    -0.250 C 
ENDBRANCH  12  13
ENDBRANCH   4   7
BRANCH   2  17
ATOM     17  C   LIG    1       -1.361  -0.739  -0.029  0.00  0.00    +0.380 C 
BRANCH  17  18
ATOM     18  C   LIG    1       -0.071   0.040  -0.001  0.00  0.00    -0.050 A 
ATOM     19  C   LIG    1        0.627   0.179   1.184  0.00  0.00    +0.020 A 
ATOM     20  C   LIG    1        1.810   0.894   1.210  0.00  0.00    +0.050 A 
ATOM     21  C   LIG    1        2.294   1.471   0.051  0.00  0.00    +0.020 A 
ATOM     22  C   LIG    1        1.596   1.332  -1.135  0.00  0.00    +0.070 A 
ATOM     23  C   LIG    1        0.413   0.617  -1.160  0.00  0.00    -0.180 A 
BRANCH  23  24
ATOM     24  C   LIG    1       -0.348   0.465  -2.452  0.00  0.00    +0.510 C 
ATOM     25  F   LIG    1       -1.582   1.115  -2.345  0.00  0.00    -0.170 F 
ATOM     26  F   LIG    1       -0.557  -0.893  -2.714  0.00  0.00    -0.180 F 
ATOM     27  F   LIG    1        0.389   1.034  -3.497  0.00  0.00    -0.170 F 
ENDBRANCH  23  24
ENDBRANCH  17  18
ENDBRANCH   2  17
TORSDOF 5
