REMARK  Name = ZINCAx0000000fKz.0
REMARK                            x       y       z     vdW  Elec       q    Type
REMARK                         _______ _______ _______ _____ _____    ______ ____
ROOT
ATOM      1  C   LIG    1       -1.358  11.861   1.163  0.00  0.00    +0.510 C 
ATOM      2  N   LIG    1       -1.176  10.859   0.280  0.00  0.00    -0.610 N 
ATOM      3  C   LIG    1       -2.172  10.592  -0.766  0.00  0.00    +0.280 C 
ATOM      4  C   LIG    1       -2.583   9.119  -0.691  0.00  0.00    +0.050 C 
ATOM      5  C   LIG    1       -1.333   8.240  -0.776  0.00  0.00    +0.010 C 
ATOM      6  C   LIG    1       -0.412   8.545   0.408  0.00  0.00    +0.040 C 
ATOM      7  C   LIG    1        0.023  10.013   0.345  0.00  0.00    +0.280 C 
ATOM      8  O   LIG    1       -2.352  12.553   1.098  0.00  0.00    -0.520 OA
ENDROOT
BRANCH   5   9
ATOM      9  C   LIG    1       -1.736   6.788  -0.737  0.00  0.00    +0.520 C 
ATOM     10  N   LIG    1       -0.795   5.826  -0.798  0.00  0.00    -0.670 N 
ATOM     11  H   LIG    1        0.145   6.065  -0.790  0.00  0.00    +0.410 HD
ATOM     12  O   LIG    1       -2.908   6.486  -0.650  0.00  0.00    -0.510 OA
BRANCH  10  13
ATOM     13  C   LIG    1       -1.174   4.479  -0.874  0.00  0.00    +0.160 A 
ATOM     14  C   LIG    1       -0.390   3.503  -0.275  0.00  0.00    +0.000 A 
ATOM     15  C   LIG    1       -0.764   2.174  -0.345  0.00  0.00    +0.060 A 
ATOM     16  C   LIG    1       -1.919   1.812  -1.020  0.00  0.00    +0.020 A 
ATOM     17  O   LIG    1       -2.497   0.593  -1.233  0.00  0.00    -0.310 OA
ATOM     18  C   LIG    1       -3.425   0.792  -2.315  0.00  0.00    +0.430 C 
ATOM     19  O   LIG    1       -3.780   2.184  -2.211  0.00  0.00    -0.310 OA
ATOM     20  C   LIG    1       -2.708   2.790  -1.621  0.00  0.00    +0.050 A 
ATOM     21  C   LIG    1       -2.334   4.121  -1.547  0.00  0.00    +0.040 A 
ENDBRANCH  10  13
ENDBRANCH   5   9
BRANCH   1  22
ATOM     22  C   LIG    1       -0.326  12.122   2.230  0.00  0.00    +0.360 C 
BRANCH  22  32
ATOM     23  C   LIG    1       -4.824  16.723   5.207  0.00  0.00    +0.030 C 
ATOM     24  C   LIG    1       -3.337  16.361   5.178  0.00  0.00    -0.010 C 
ATOM     25  C   LIG    1       -2.754  16.488   6.587  0.00  0.00    +0.030 C 
ATOM     26  C   LIG    1       -1.265  16.137   6.557  0.00  0.00    -0.060 C 
ATOM     27  C   LIG    1       -1.091  14.696   6.071  0.00  0.00    +0.070 C 
ATOM     28  C   LIG    1       -1.693  14.550   4.678  0.00  0.00    +0.130 C 
ATOM     29  N   LIG    1       -0.961  15.378   3.711  0.00  0.00    -0.720 N 
ATOM     30  H   LIG    1       -0.867  16.343   3.726  0.00  0.00    +0.440 HD
ATOM     31  C   LIG    1       -0.440  14.531   2.802  0.00  0.00    +0.700 C 
ATOM     32  N   LIG    1       -0.753  13.254   3.055  0.00  0.00    -0.560 N 
ATOM     33  O   LIG    1        0.235  14.886   1.856  0.00  0.00    -0.540 OA
ATOM     34  C   LIG    1       -1.507  13.139   4.169  0.00  0.00    +0.540 C 
ATOM     35  O   LIG    1       -1.943  12.119   4.658  0.00  0.00    -0.460 OA
ATOM     36  C   LIG    1       -0.680  16.276   7.964  0.00  0.00    +0.040 C 
ATOM     37  C   LIG    1       -0.536  17.088   5.605  0.00  0.00    +0.030 C 
ATOM     38  C   LIG    1       -3.172  14.921   4.687  0.00  0.00    +0.060 C 
ENDBRANCH  22  32
ENDBRANCH   1  22
TORSDOF 4
