REMARK  Name = ZINCrH000004pia2.0
REMARK                            x       y       z     vdW  Elec       q    Type
REMARK                         _______ _______ _______ _____ _____    ______ ____
ROOT
ATOM      1  N   LIG    1        2.747   5.855  -0.880  0.00  0.00    -0.720 N 
ATOM      2  H   LIG    1        1.805   5.706  -1.057  0.00  0.00    +0.410 HD
ATOM      3  C   LIG    1        3.381   6.904  -1.440  0.00  0.00    +0.540 C 
ATOM      4  O   LIG    1        4.559   7.090  -1.219  0.00  0.00    -0.520 OA
ENDROOT
BRANCH   1   6
ATOM      5  C   LIG    1        3.500   5.498   1.419  0.00  0.00    +0.060 C 
ATOM      6  C   LIG    1        3.481   4.938  -0.004  0.00  0.00    +0.350 C 
BRANCH   6   7
ATOM      7  C   LIG    1        2.804   3.592  -0.005  0.00  0.00    +0.020 A 
ATOM      8  C   LIG    1        3.441   2.413  -0.018  0.00  0.00    -0.020 A 
ATOM      9  C   LIG    1        2.395   1.383  -0.013  0.00  0.00    -0.130 A 
ATOM     10  C   LIG    1        2.400  -0.011  -0.021  0.00  0.00    +0.060 A 
ATOM     11  C   LIG    1        1.204  -0.696  -0.014  0.00  0.00    +0.000 A 
ATOM     12  C   LIG    1        0.002  -0.004   0.002  0.00  0.00    +0.050 A 
ATOM     13  C   LIG    1       -0.017   1.374   0.010  0.00  0.00    +0.020 A 
ATOM     14  C   LIG    1        1.177   2.084   0.002  0.00  0.00    +0.060 A 
ATOM     15  O   LIG    1        1.473   3.400   0.007  0.00  0.00    -0.190 OA
ENDBRANCH   6   7
ENDBRANCH   1   6
BRANCH   3  16
ATOM     16  C   LIG    1        2.625   7.847  -2.341  0.00  0.00    +0.100 C 
BRANCH  16  17
ATOM     17  S   LIG    1        3.743   9.143  -2.931  0.00  0.00    +0.100 S 
BRANCH  17  18
ATOM     18  C   LIG    1        2.631  10.074  -3.931  0.00  0.00    +0.360 A 
ATOM     19  N   LIG    1        1.383   9.684  -4.034  0.00  0.00    -0.520 NA
ATOM     20  C   LIG    1        0.491  10.364  -4.782  0.00  0.00    +0.090 A 
ATOM     21  C   LIG    1        0.896  11.502  -5.474  0.00  0.00    -0.240 A 
ATOM     22  C   LIG    1        2.259  11.909  -5.355  0.00  0.00    +0.560 A 
ATOM     23  O   LIG    1        2.664  12.898  -5.941  0.00  0.00    -0.520 OA
ATOM     24  C   LIG    1       -0.191  12.098  -6.228  0.00  0.00    +0.090 A 
ATOM     25  C   LIG    1       -1.346  11.469  -6.126  0.00  0.00    -0.050 A 
ATOM     26  S   LIG    1       -1.216  10.066  -5.083  0.00  0.00    +0.200 S 
ATOM     27  N   LIG    1        3.090  11.181  -4.584  0.00  0.00    -0.520 N 
ATOM     28  C   LIG    1        4.493  11.580  -4.447  0.00  0.00    +0.330 C 
ENDBRANCH  17  18
ENDBRANCH  16  17
ENDBRANCH   3  16
TORSDOF 5
