REMARK  Name = ZINCnE000001ONh6.0
REMARK                            x       y       z     vdW  Elec       q    Type
REMARK                         _______ _______ _______ _____ _____    ______ ____
ROOT
ATOM      1  S   LIG    1       -0.128   1.332   0.093  0.00  0.00    +2.690 S 
ATOM      2  O   LIG    1        1.060   2.095   0.258  0.00  0.00    -0.940 OA
ATOM      3  O   LIG    1       -0.124  -0.060  -0.194  0.00  0.00    -0.960 OA
ENDROOT
BRANCH   1   9
ATOM      4  C   LIG    1       -4.388   1.708  -2.911  0.00  0.00    +0.100 C 
ATOM      5  C   LIG    1       -3.021   2.232  -2.552  0.00  0.00    -0.130 A 
ATOM      6  C   LIG    1       -2.495   3.308  -3.234  0.00  0.00    +0.100 A 
ATOM      7  C   LIG    1       -1.228   3.793  -2.899  0.00  0.00    -0.150 A 
ATOM      8  C   LIG    1       -0.505   3.184  -1.871  0.00  0.00    +0.170 A 
ATOM      9  C   LIG    1       -1.041   2.105  -1.200  0.00  0.00    -0.690 A 
ATOM     10  C   LIG    1       -2.296   1.631  -1.537  0.00  0.00    +0.000 A 
ATOM     11  C   LIG    1       -2.878   0.455  -0.796  0.00  0.00    +0.090 C 
BRANCH   7  12
ATOM     12  C   LIG    1       -0.659   4.944  -3.625  0.00  0.00    +0.520 C 
ATOM     13  O   LIG    1        0.450   5.366  -3.330  0.00  0.00    -0.680 OA
ATOM     14  O   LIG    1       -1.296   5.477  -4.523  0.00  0.00    -0.690 OA
ENDBRANCH   7  12
ENDBRANCH   1   9
BRANCH   1  15
ATOM     15  N   LIG    1       -1.000   1.519   1.489  0.00  0.00    -1.060 N 
ATOM     16  H   LIG    1       -1.482   0.765   1.864  0.00  0.00    +0.420 HD
BRANCH  15  17
ATOM     17  C   LIG    1       -1.042   2.762   2.125  0.00  0.00    +0.120 A 
ATOM     18  C   LIG    1        0.099   3.273   2.729  0.00  0.00    -0.060 A 
ATOM     19  C   LIG    1        0.055   4.505   3.353  0.00  0.00    +0.010 A 
ATOM     20  C   LIG    1       -1.126   5.223   3.385  0.00  0.00    +0.020 A 
ATOM     21  C   LIG    1       -2.265   4.715   2.789  0.00  0.00    +0.000 A 
ATOM     22  C   LIG    1        1.385   2.488   2.699  0.00  0.00    +0.100 C 
ATOM     23  C   LIG    1       -2.227   3.486   2.159  0.00  0.00    -0.070 A 
ATOM     24  C   LIG    1       -3.469   2.932   1.510  0.00  0.00    +0.090 C 
ENDBRANCH  15  17
ENDBRANCH   1  15
TORSDOF 4
