REMARK  Name = ZINCqH0000038tpI.0
REMARK                            x       y       z     vdW  Elec       q    Type
REMARK                         _______ _______ _______ _____ _____    ______ ____
ROOT
ATOM      1  S   LIG    1       -0.890   1.687  -1.462  0.00  0.00    +1.280 S 
ATOM      2  O   LIG    1       -2.196   1.128  -1.495  0.00  0.00    -0.820 OA
ENDROOT
BRANCH   1   3
ATOM      3  C   LIG    1        0.092   1.010  -2.828  0.00  0.00    -0.120 C 
BRANCH   3  11
ATOM      4  C   LIG    1       -0.162   4.751  -6.962  0.00  0.00    +0.120 C 
ATOM      5  C   LIG    1       -1.024   3.515  -6.979  0.00  0.00    -0.040 A 
ATOM      6  C   LIG    1       -1.883   3.290  -8.009  0.00  0.00    +0.030 A 
ATOM      7  C   LIG    1       -2.680   2.134  -8.012  0.00  0.00    +0.020 A 
ATOM      8  C   LIG    1       -2.597   1.247  -6.997  0.00  0.00    +0.210 A 
ATOM      9  N   LIG    1       -1.739   1.460  -5.957  0.00  0.00    -0.360 N 
ATOM     10  C   LIG    1       -1.455   0.740  -4.829  0.00  0.00    +0.100 A 
ATOM     11  C   LIG    1       -0.518   1.428  -4.141  0.00  0.00    +0.070 A 
ATOM     12  N   LIG    1       -0.220   2.538  -4.821  0.00  0.00    -0.480 NA
ATOM     13  C   LIG    1       -0.948   2.580  -5.928  0.00  0.00    +0.230 A 
ENDBRANCH   3  11
ENDBRANCH   1   3
BRANCH   1  14
ATOM     14  C   LIG    1       -0.013   1.086   0.008  0.00  0.00    -0.100 C 
BRANCH  14  15
ATOM     15  C   LIG    1       -0.718   1.572   1.248  0.00  0.00    +0.190 A 
ATOM     16  N   LIG    1       -1.671   0.954   1.881  0.00  0.00    -0.370 NA
ATOM     17  O   LIG    1       -2.032   1.601   2.841  0.00  0.00    +0.090 OA
ATOM     18  C   LIG    1       -1.318   2.735   2.917  0.00  0.00    +0.230 A 
ATOM     19  N   LIG    1       -0.472   2.718   1.902  0.00  0.00    -0.460 NA
BRANCH  18  20
ATOM     20  C   LIG    1       -1.449   3.794   3.939  0.00  0.00    -0.030 A 
ATOM     21  C   LIG    1       -0.626   4.921   3.890  0.00  0.00    +0.100 A 
ATOM     22  C   LIG    1       -0.756   5.908   4.844  0.00  0.00    +0.040 A 
ATOM     23  C   LIG    1       -1.693   5.778   5.856  0.00  0.00    -0.010 A 
ATOM     24  C   LIG    1       -2.508   4.660   5.913  0.00  0.00    +0.040 A 
ATOM     25 CL   LIG    1       -1.845   7.022   7.058  0.00  0.00    -0.050 Cl
ATOM     26  C   LIG    1       -2.391   3.668   4.962  0.00  0.00    +0.090 A 
ENDBRANCH  18  20
ENDBRANCH  14  15
ENDBRANCH   1  14
TORSDOF 5
