REMARK  Name = ZINCrD000000AjsQ.0
REMARK                            x       y       z     vdW  Elec       q    Type
REMARK                         _______ _______ _______ _____ _____    ______ ____
ROOT
ATOM      1  O   LIG    1       -3.306   3.860   0.361  0.00  0.00    -0.530 OA
ATOM      2  C   LIG    1       -2.462   4.013   1.218  0.00  0.00    +0.520 C 
ATOM      3  N   LIG    1       -2.638   4.941   2.180  0.00  0.00    -0.620 N 
ATOM      4  C   LIG    1       -1.631   5.140   3.233  0.00  0.00    +0.260 C 
ATOM      5  C   LIG    1       -2.333   5.111   4.591  0.00  0.00    +0.230 C 
ATOM      6  O   LIG    1       -3.428   6.030   4.577  0.00  0.00    -0.370 OA
ATOM      7  C   LIG    1       -4.444   5.715   3.622  0.00  0.00    +0.210 C 
ATOM      8  C   LIG    1       -3.848   5.779   2.211  0.00  0.00    +0.280 C 
ENDROOT
BRANCH   7   9
ATOM      9  C   LIG    1       -5.570   6.709   3.738  0.00  0.00    -0.130 A 
ATOM     10  C   LIG    1       -5.329   7.968   4.254  0.00  0.00    +0.120 A 
ATOM     11  C   LIG    1       -6.361   8.882   4.361  0.00  0.00    -0.010 A 
ATOM     12  C   LIG    1       -7.637   8.536   3.950  0.00  0.00    +0.140 A 
ATOM     13  C   LIG    1       -7.880   7.276   3.432  0.00  0.00    -0.040 A 
ATOM     14  F   LIG    1       -8.646   9.429   4.055  0.00  0.00    -0.130 F 
ATOM     15  C   LIG    1       -6.845   6.364   3.321  0.00  0.00    +0.140 A 
ATOM     16  F   LIG    1       -7.079   5.134   2.812  0.00  0.00    -0.130 F 
ENDBRANCH   7   9
BRANCH   2  17
ATOM     17  C   LIG    1       -1.215   3.167   1.207  0.00  0.00    +0.080 C 
BRANCH  17  18
ATOM     18  C   LIG    1       -1.263   2.203   0.020  0.00  0.00    +0.170 C 
BRANCH  18  19
ATOM     19  C   LIG    1       -0.016   1.356   0.009  0.00  0.00    +0.290 A 
ATOM     20  N   LIG    1        1.199   1.820   0.000  0.00  0.00    -0.490 NA
ATOM     21  C   LIG    1        2.082   0.788  -0.014  0.00  0.00    +0.050 A 
ATOM     22  C   LIG    1        3.477   0.713  -0.027  0.00  0.00    +0.070 A 
ATOM     23  C   LIG    1        4.093  -0.506  -0.039  0.00  0.00    +0.000 A 
ATOM     24  C   LIG    1        3.347  -1.676  -0.039  0.00  0.00    +0.030 A 
ATOM     25  C   LIG    1        1.969  -1.626  -0.026  0.00  0.00    +0.010 A 
ATOM     26  C   LIG    1        1.326  -0.397  -0.013  0.00  0.00    +0.050 A 
ATOM     27  N   LIG    1        0.002  -0.004   0.002  0.00  0.00    -0.600 N 
ATOM     28  H   LIG    1       -0.771  -0.590   0.006  0.00  0.00    +0.420 HD
ENDBRANCH  18  19
ENDBRANCH  17  18
ENDBRANCH   2  17
TORSDOF 4
