REMARK  Name = ZINCrD000000AgGL.0
REMARK                            x       y       z     vdW  Elec       q    Type
REMARK                         _______ _______ _______ _____ _____    ______ ____
ROOT
ATOM      1  O   LIG    1       -8.005  -2.200   3.514  0.00  0.00    -0.510 OA
ATOM      2  C   LIG    1       -7.365  -1.829   4.475  0.00  0.00    +0.520 C 
ATOM      3  N   LIG    1       -6.168  -1.234   4.298  0.00  0.00    -0.670 N 
ATOM      4  H   LIG    1       -5.622  -1.007   5.067  0.00  0.00    +0.420 HD
ENDROOT
BRANCH   3   5
ATOM      5  C   LIG    1       -5.714  -0.946   3.007  0.00  0.00    +0.180 A 
ATOM      6  C   LIG    1       -4.356  -1.003   2.719  0.00  0.00    -0.050 A 
ATOM      7  C   LIG    1       -3.907  -0.717   1.444  0.00  0.00    +0.070 A 
ATOM      8  C   LIG    1       -4.808  -0.380   0.451  0.00  0.00    -0.090 A 
ATOM      9  C   LIG    1       -6.165  -0.317   0.735  0.00  0.00    +0.150 A 
ATOM     10  C   LIG    1       -6.619  -0.602   2.013  0.00  0.00    -0.020 A 
BRANCH   9  11
ATOM     11  O   LIG    1       -7.048   0.020  -0.241  0.00  0.00    -0.310 OA
BRANCH  11  12
ATOM     12  C   LIG    1       -6.510   0.301  -1.535  0.00  0.00    +0.270 C 
BRANCH  12  13
ATOM     13  C   LIG    1       -7.630   0.653  -2.480  0.00  0.00    -0.150 A 
ATOM     14  C   LIG    1       -8.267  -0.337  -3.213  0.00  0.00    +0.090 A 
ATOM     15  C   LIG    1       -9.288   0.033  -4.074  0.00  0.00    -0.040 A 
ATOM     16  C   LIG    1       -9.639   1.367  -4.168  0.00  0.00    +0.270 A 
ATOM     17  N   LIG    1       -9.015   2.281  -3.451  0.00  0.00    -0.490 NA
ATOM     18  C   LIG    1       -8.040   1.965  -2.622  0.00  0.00    +0.290 A 
ENDBRANCH  12  13
ENDBRANCH  11  12
ENDBRANCH   9  11
ENDBRANCH   3   5
BRANCH   2  19
ATOM     19  C   LIG    1       -7.908  -2.032   5.866  0.00  0.00    +0.110 C 
BRANCH  19  20
ATOM     20  C   LIG    1       -9.271  -2.723   5.785  0.00  0.00    -0.320 C 
BRANCH  20  21
ATOM     21  S   LIG    1       -9.924  -2.968   7.460  0.00  0.00    +2.410 S 
ATOM     22  O   LIG    1      -10.182  -1.694   8.035  0.00  0.00    -0.930 OA
ATOM     23  O   LIG    1       -9.080  -3.881   8.146  0.00  0.00    -0.940 OA
BRANCH  21  24
ATOM     24  C   LIG    1      -11.510  -3.784   7.127  0.00  0.00    -0.430 C 
ATOM     25  C   LIG    1      -12.374  -2.902   6.202  0.00  0.00    +0.060 C 
ATOM     26  C   LIG    1      -13.818  -3.102   6.729  0.00  0.00    +0.030 C 
ATOM     27  C   LIG    1      -13.617  -3.171   8.263  0.00  0.00    +0.030 C 
ATOM     28  C   LIG    1      -12.300  -3.955   8.437  0.00  0.00    +0.060 C 
ENDBRANCH  21  24
ENDBRANCH  20  21
ENDBRANCH  19  20
ENDBRANCH   2  19
TORSDOF 8
