REMARK  Name = ZINCpe00000gNdE4.0
REMARK                            x       y       z     vdW  Elec       q    Type
REMARK                         _______ _______ _______ _____ _____    ______ ____
ROOT
ATOM      1  N   LIG    1       -1.617   9.321   0.067  0.00  0.00    -0.730 N 
ATOM      2  H   LIG    1       -2.584   9.252   0.076  0.00  0.00    +0.400 HD
ATOM      3  C   LIG    1       -1.028  10.534   0.067  0.00  0.00    +0.520 C 
ATOM      4  O   LIG    1        0.182  10.620   0.055  0.00  0.00    -0.530 OA
ENDROOT
BRANCH   3   5
ATOM      5  C   LIG    1       -1.873  11.781   0.082  0.00  0.00    -0.010 C 
ATOM      6  C   LIG    1       -2.764  11.811  -1.163  0.00  0.00    +0.050 C 
ATOM      7  C   LIG    1       -3.575  13.109  -1.174  0.00  0.00    +0.220 C 
ATOM      8  N   LIG    1       -2.661  14.258  -1.177  0.00  0.00    -0.460 N 
ATOM      9  C   LIG    1       -1.827  14.277   0.033  0.00  0.00    +0.210 C 
ATOM     10  C   LIG    1       -0.965  13.014   0.079  0.00  0.00    +0.060 C 
BRANCH   8  11
ATOM     11  C   LIG    1       -3.358  15.446  -1.317  0.00  0.00    +0.490 A 
ATOM     12  N   LIG    1       -3.208  16.395  -0.406  0.00  0.00    -0.550 NA
ATOM     13  C   LIG    1       -3.856  17.544  -0.513  0.00  0.00    +0.340 A 
ATOM     14  C   LIG    1       -4.706  17.742  -1.590  0.00  0.00    -0.110 A 
ATOM     15  C   LIG    1       -4.843  16.726  -2.522  0.00  0.00    +0.350 A 
ATOM     16  N   LIG    1       -4.162  15.604  -2.358  0.00  0.00    -0.530 NA
ENDBRANCH   8  11
ENDBRANCH   3   5
BRANCH   1  17
ATOM     17  C   LIG    1       -0.795   8.108   0.052  0.00  0.00    +0.270 C 
BRANCH  17  18
ATOM     18  C   LIG    1       -1.704   6.877   0.055  0.00  0.00    +0.270 C 
BRANCH  18  21
ATOM     19  O   LIG    1       -2.684   4.365   0.052  0.00  0.00    -0.530 OA
ATOM     20  C   LIG    1       -1.471   4.452   0.040  0.00  0.00    +0.590 C 
ATOM     21  N   LIG    1       -0.882   5.664   0.040  0.00  0.00    -0.730 N 
ATOM     22  H   LIG    1        0.085   5.734   0.031  0.00  0.00    +0.400 HD
BRANCH  20  23
ATOM     23  C   LIG    1       -0.645   3.231   0.026  0.00  0.00    -0.240 A 
ATOM     24  C   LIG    1        0.717   3.158   0.012  0.00  0.00    +0.230 A 
ATOM     25  O   LIG    1        1.070   1.869   0.002  0.00  0.00    -0.170 OA
ATOM     26  C   LIG    1       -0.013   1.076   0.008  0.00  0.00    +0.170 A 
ATOM     27  C   LIG    1       -1.116   1.839   0.017  0.00  0.00    -0.010 A 
ENDBRANCH  20  23
ENDBRANCH  18  21
ENDBRANCH  17  18
ENDBRANCH   1  17
TORSDOF 6
