REMARK  Name = ZINCqH0000031K3B.0
REMARK                            x       y       z     vdW  Elec       q    Type
REMARK                         _______ _______ _______ _____ _____    ______ ____
ROOT
ATOM      1  C   LIG    1       -8.607   5.792  -0.189  0.00  0.00    +0.270 C 
ATOM      2  C   LIG    1       -9.380   4.472  -0.415  0.00  0.00    +0.060 C 
ATOM      3  C   LIG    1       -8.327   3.395  -0.281  0.00  0.00    +0.520 C 
ATOM      4  N   LIG    1       -7.099   3.935  -0.367  0.00  0.00    -0.560 N 
ATOM      5  O   LIG    1       -8.557   2.215  -0.117  0.00  0.00    -0.510 OA
ATOM      6  C   LIG    1       -7.169   5.385  -0.582  0.00  0.00    +0.290 C 
ENDROOT
BRANCH   4   7
ATOM      7  C   LIG    1       -5.907   3.207  -0.270  0.00  0.00    +0.130 A 
ATOM      8  C   LIG    1       -4.687   3.870  -0.254  0.00  0.00    +0.010 A 
ATOM      9  C   LIG    1       -3.512   3.152  -0.159  0.00  0.00    +0.020 A 
ATOM     10  C   LIG    1       -3.549   1.767  -0.079  0.00  0.00    +0.100 A 
ATOM     11  C   LIG    1       -4.767   1.103  -0.099  0.00  0.00    -0.030 A 
ATOM     12  C   LIG    1       -5.944   1.821  -0.189  0.00  0.00    +0.040 A 
BRANCH  10  13
ATOM     13  O   LIG    1       -2.392   1.060   0.015  0.00  0.00    -0.260 OA
BRANCH  13  14
ATOM     14  C   LIG    1       -2.466  -0.295  -0.034  0.00  0.00    +0.090 A 
ATOM     15  C   LIG    1       -2.152  -1.050   1.087  0.00  0.00    +0.010 A 
ATOM     16  C   LIG    1       -2.235  -2.428   1.036  0.00  0.00    +0.030 A 
ATOM     17  C   LIG    1       -2.626  -3.056  -0.132  0.00  0.00    +0.010 A 
ATOM     18  C   LIG    1       -2.934  -2.307  -1.252  0.00  0.00    +0.030 A 
ATOM     19  C   LIG    1       -2.852  -0.928  -1.207  0.00  0.00    -0.010 A 
ENDBRANCH  13  14
ENDBRANCH  10  13
ENDBRANCH   4   7
BRANCH   1  21
ATOM     20  C   LIG    1       -9.639   7.041   1.631  0.00  0.00    +0.530 C 
ATOM     21  N   LIG    1       -8.669   6.202   1.216  0.00  0.00    -0.730 N 
ATOM     22  H   LIG    1       -8.013   5.869   1.848  0.00  0.00    +0.400 HD
ATOM     23  O   LIG    1      -10.460   7.456   0.840  0.00  0.00    -0.530 OA
BRANCH  20  25
ATOM     24  C   LIG    1      -10.889   8.409   3.279  0.00  0.00    +0.050 C 
ATOM     25  C   LIG    1       -9.704   7.463   3.076  0.00  0.00    -0.090 C 
ATOM     26  C   LIG    1       -8.407   8.180   3.456  0.00  0.00    +0.050 C 
ATOM     27  C   LIG    1       -9.881   6.227   3.961  0.00  0.00    +0.050 C 
ENDBRANCH  20  25
ENDBRANCH   1  21
TORSDOF 5
