REMARK  Name = ZINCrH000004qjBb.0
REMARK                            x       y       z     vdW  Elec       q    Type
REMARK                         _______ _______ _______ _____ _____    ______ ____
ROOT
ATOM      1  C   LIG    1        5.007  -2.699  -0.129  0.00  0.00    -0.280 A 
ATOM      2  C   LIG    1        5.142  -4.024   0.271  0.00  0.00    +0.380 A 
ATOM      3  N   LIG    1        6.437  -4.209   0.605  0.00  0.00    -0.310 N 
ATOM      4  N   LIG    1        7.120  -3.003   0.416  0.00  0.00    -0.250 NA
ATOM      5  C   LIG    1        6.285  -2.102  -0.023  0.00  0.00    +0.310 A 
ENDROOT
BRANCH   3   6
ATOM      6  C   LIG    1        7.002  -5.408   1.063  0.00  0.00    +0.090 A 
ATOM      7  C   LIG    1        6.395  -6.114   2.093  0.00  0.00    +0.070 A 
ATOM      8  C   LIG    1        6.951  -7.298   2.538  0.00  0.00    +0.040 A 
ATOM      9  C   LIG    1        8.116  -7.775   1.967  0.00  0.00    +0.080 A 
ATOM     10  C   LIG    1        8.728  -7.072   0.945  0.00  0.00    +0.010 A 
ATOM     11  C   LIG    1        8.174  -5.890   0.490  0.00  0.00    +0.120 A 
ATOM     12  F   LIG    1        8.771  -5.203  -0.508  0.00  0.00    -0.120 F 
ENDBRANCH   3   6
BRANCH   2  13
ATOM     13  N   LIG    1        4.133  -4.978   0.318  0.00  0.00    -0.400 N 
ATOM     14  C   LIG    1        4.152  -6.191  -0.312  0.00  0.00    +0.140 A 
ATOM     15  C   LIG    1        3.001  -6.832  -0.025  0.00  0.00    -0.020 A 
ATOM     16  C   LIG    1        2.238  -5.984   0.803  0.00  0.00    -0.040 A 
ATOM     17  C   LIG    1        2.952  -4.858   0.998  0.00  0.00    +0.200 A 
ENDBRANCH   2  13
BRANCH   1  20
ATOM     18  N   LIG    1        3.791  -0.745  -0.941  0.00  0.00    -0.670 N 
ATOM     19  H   LIG    1        4.631  -0.261  -0.966  0.00  0.00    +0.410 HD
ATOM     20  C   LIG    1        3.772  -2.044  -0.582  0.00  0.00    +0.600 C 
ATOM     21  O   LIG    1        2.733  -2.674  -0.633  0.00  0.00    -0.500 OA
BRANCH  18  25
ATOM     22  C   LIG    1        0.995   3.304  -0.977  0.00  0.00    +0.120 C 
ATOM     23  C   LIG    1        1.217   1.852  -1.310  0.00  0.00    +0.150 A 
ATOM     24  C   LIG    1        2.408   1.248  -0.962  0.00  0.00    -0.060 A 
ATOM     25  C   LIG    1        2.602  -0.097  -1.276  0.00  0.00    +0.200 A 
ATOM     26  C   LIG    1        1.578  -0.777  -1.933  0.00  0.00    -0.030 A 
ATOM     27  C   LIG    1        0.417  -0.100  -2.247  0.00  0.00    +0.280 A 
ATOM     28  N   LIG    1        0.271   1.173  -1.932  0.00  0.00    -0.500 NA
ENDBRANCH  18  25
ENDBRANCH   1  20
TORSDOF 4
