REMARK  Name = ZINCpe000000ZxI1.0
REMARK                            x       y       z     vdW  Elec       q    Type
REMARK                         _______ _______ _______ _____ _____    ______ ____
ROOT
ATOM      1  S   LIG    1        6.942  -1.304   0.999  0.00  0.00    +2.630 S 
ATOM      2  O   LIG    1        7.788  -0.860   2.050  0.00  0.00    -0.940 OA
ATOM      3  O   LIG    1        7.165  -0.897  -0.344  0.00  0.00    -0.930 OA
ENDROOT
BRANCH   1   7
ATOM      4  C   LIG    1        3.525   0.718   1.109  0.00  0.00    +0.260 C 
ATOM      5  C   LIG    1        3.565   0.243   2.586  0.00  0.00    +0.040 C 
ATOM      6  C   LIG    1        4.990  -0.331   2.726  0.00  0.00    +0.270 C 
ATOM      7  N   LIG    1        5.458  -0.674   1.375  0.00  0.00    -1.010 NA
ATOM      8  C   LIG    1        4.386  -0.365   0.411  0.00  0.00    +0.270 C 
BRANCH   4  14
ATOM      9  O   LIG    1        1.645  -1.454   1.031  0.00  0.00    -0.530 OA
ATOM     10  C   LIG    1        1.344  -0.360   0.603  0.00  0.00    +0.520 C 
ATOM     11  C   LIG    1        0.002  -0.004   0.002  0.00  0.00    +0.050 C 
ATOM     12  C   LIG    1       -0.019   1.542   0.011  0.00  0.00    +0.040 C 
ATOM     13  C   LIG    1        1.489   1.878  -0.002  0.00  0.00    +0.260 C 
ATOM     14  N   LIG    1        2.154   0.712   0.592  0.00  0.00    -0.610 N 
ENDBRANCH   4  14
ENDBRANCH   1   7
BRANCH   1  15
ATOM     15  C   LIG    1        6.707  -3.101   1.087  0.00  0.00    -0.320 C 
BRANCH  15  16
ATOM     16  C   LIG    1        8.024  -3.805   0.755  0.00  0.00    +0.160 C 
ATOM     17  C   LIG    1        7.828  -5.326   0.814  0.00  0.00    +0.250 C 
ATOM     18  O   LIG    1        9.072  -5.952   0.485  0.00  0.00    -0.300 OA
ATOM     19  C   LIG    1        9.734  -5.466  -0.601  0.00  0.00    +0.050 A 
ATOM     20  C   LIG    1       10.736  -6.227  -1.184  0.00  0.00    +0.030 A 
ATOM     21  C   LIG    1       11.421  -5.744  -2.283  0.00  0.00    +0.020 A 
ATOM     22  C   LIG    1       11.111  -4.502  -2.803  0.00  0.00    +0.030 A 
ATOM     23  C   LIG    1       10.111  -3.739  -2.227  0.00  0.00    +0.030 A 
ATOM     24  C   LIG    1        9.419  -4.218  -1.125  0.00  0.00    +0.050 A 
ATOM     25  O   LIG    1        8.437  -3.457  -0.571  0.00  0.00    -0.300 OA
ENDBRANCH  15  16
ENDBRANCH   1  15
TORSDOF 4
