REMARK  Name = ZINCvU00000003PR.0
REMARK                            x       y       z     vdW  Elec       q    Type
REMARK                         _______ _______ _______ _____ _____    ______ ____
ROOT
ATOM      1  C   LIG    1        7.860  -1.560  -2.066  0.00  0.00    -0.120 A 
ATOM      2  C   LIG    1        7.571  -2.925  -2.123  0.00  0.00    +0.090 A 
ATOM      3  C   LIG    1        8.593  -3.836  -2.290  0.00  0.00    +0.030 A 
ATOM      4  C   LIG    1        9.902  -3.401  -2.393  0.00  0.00    -0.050 A 
ATOM      5  C   LIG    1       10.196  -2.050  -2.332  0.00  0.00    +0.030 A 
ATOM      6  C   LIG    1        9.184  -1.128  -2.169  0.00  0.00    +0.090 A 
ENDROOT
BRANCH   1   7
ATOM      7  C   LIG    1        6.771  -0.577  -1.891  0.00  0.00    +0.510 C 
ATOM      8  O   LIG    1        7.025   0.609  -1.836  0.00  0.00    -0.500 OA
BRANCH   7   9
ATOM      9  O   LIG    1        5.494  -0.997  -1.791  0.00  0.00    -0.330 OA
BRANCH   9  10
ATOM     10  C   LIG    1        4.476   0.023  -1.620  0.00  0.00    +0.250 C 
BRANCH  10  17
ATOM     11  C   LIG    1        1.395   3.587   0.041  0.00  0.00    +0.030 C 
ATOM     12  C   LIG    1        1.417   2.058  -0.000  0.00  0.00    -0.030 C 
ATOM     13  C   LIG    1       -0.019   1.526   0.010  0.00  0.00    +0.030 C 
ATOM     14  C   LIG    1        0.002  -0.004   0.002  0.00  0.00    -0.030 C 
ATOM     15  C   LIG    1        0.690  -0.494  -1.276  0.00  0.00    +0.290 C 
ATOM     16  N   LIG    1        2.018   0.128  -1.367  0.00  0.00    -0.610 N 
ATOM     17  C   LIG    1        3.121  -0.629  -1.529  0.00  0.00    +0.520 C 
ATOM     18  O   LIG    1        3.023  -1.836  -1.600  0.00  0.00    -0.510 OA
ATOM     19  C   LIG    1       -1.432  -0.534   0.046  0.00  0.00    +0.030 C 
ATOM     20  C   LIG    1        2.120   1.591  -1.279  0.00  0.00    +0.270 C 
ENDBRANCH  10  17
ENDBRANCH   9  10
ENDBRANCH   7   9
ENDBRANCH   1   7
BRANCH   4  21
ATOM     21  C   LIG    1       11.014  -4.403  -2.570  0.00  0.00    +0.150 C 
BRANCH  21  22
ATOM     22  S   LIG    1       11.628  -4.917  -0.947  0.00  0.00    +0.020 S 
BRANCH  22  23
ATOM     23  C   LIG    1       12.881  -6.054  -1.440  0.00  0.00    +0.080 A 
ATOM     24  N   LIG    1       13.169  -6.348  -2.662  0.00  0.00    -0.470 NA
ATOM     25  C   LIG    1       14.160  -7.236  -2.880  0.00  0.00    +0.090 A 
ATOM     26  C   LIG    1       14.661  -7.715  -4.108  0.00  0.00    +0.070 A 
ATOM     27  C   LIG    1       15.681  -8.633  -4.132  0.00  0.00    +0.040 A 
ATOM     28  C   LIG    1       16.235  -9.103  -2.951  0.00  0.00    +0.040 A 
ATOM     29  C   LIG    1       15.762  -8.649  -1.740  0.00  0.00    +0.060 A 
ATOM     30  C   LIG    1       14.727  -7.718  -1.697  0.00  0.00    -0.170 A 
ATOM     31  S   LIG    1       13.911  -6.953  -0.335  0.00  0.00    +0.110 S 
ENDBRANCH  22  23
ENDBRANCH  21  22
ENDBRANCH   4  21
TORSDOF 7
