REMARK  Name = ZINCvU0000000J2t.0
REMARK                            x       y       z     vdW  Elec       q    Type
REMARK                         _______ _______ _______ _____ _____    ______ ____
ROOT
ATOM      1  C   LIG    1       -2.520   3.868   0.046  0.00  0.00    +0.560 C 
ATOM      2  N   LIG    1       -3.679   3.180   0.054  0.00  0.00    -0.720 N 
ATOM      3  H   LIG    1       -3.668   2.211   0.050  0.00  0.00    +0.400 HD
ATOM      4  O   LIG    1       -2.534   5.083   0.052  0.00  0.00    -0.530 OA
ENDROOT
BRANCH   1   8
ATOM      5  C   LIG    1        1.183   1.787   0.000  0.00  0.00    +0.150 A 
ATOM      6  C   LIG    1       -0.013   1.076   0.008  0.00  0.00    +0.020 A 
ATOM      7  C   LIG    1       -1.215   1.747   0.017  0.00  0.00    +0.060 A 
ATOM      8  C   LIG    1       -1.233   3.144   0.031  0.00  0.00    -0.130 A 
ATOM      9  C   LIG    1       -0.030   3.855   0.023  0.00  0.00    +0.110 A 
ATOM     10  C   LIG    1        1.169   3.177   0.007  0.00  0.00    +0.020 A 
BRANCH   5  17
ATOM     11  C   LIG    1        2.183   0.008   2.289  0.00  0.00    +0.130 C 
ATOM     12  C   LIG    1        2.878   0.301   0.985  0.00  0.00    +0.020 A 
ATOM     13  C   LIG    1        4.077  -0.182   0.601  0.00  0.00    -0.050 A 
ATOM     14  C   LIG    1        4.357   0.344  -0.677  0.00  0.00    -0.050 A 
ATOM     15  C   LIG    1        3.316   1.125  -1.030  0.00  0.00    +0.020 A 
ATOM     16  C   LIG    1        3.184   1.892  -2.320  0.00  0.00    +0.120 C 
ATOM     17  N   LIG    1        2.401   1.102  -0.015  0.00  0.00    -0.410 N 
ENDBRANCH   5  17
ENDBRANCH   1   8
BRANCH   2  18
ATOM     18  C   LIG    1       -4.956   3.898   0.070  0.00  0.00    +0.290 C 
BRANCH  18  19
ATOM     19  C   LIG    1       -6.031   3.025  -0.524  0.00  0.00    -0.080 A 
ATOM     20  C   LIG    1       -6.057   1.673  -0.236  0.00  0.00    +0.020 A 
ATOM     21  C   LIG    1       -7.041   0.865  -0.778  0.00  0.00    +0.030 A 
ATOM     22  C   LIG    1       -8.000   1.415  -1.611  0.00  0.00    +0.070 A 
ATOM     23  O   LIG    1       -8.977   0.630  -2.150  0.00  0.00    -0.320 OA
ATOM     24  C   LIG    1       -8.910   0.433  -3.564  0.00  0.00    +0.230 C 
ATOM     25  C   LIG    1       -9.581   1.581  -4.301  0.00  0.00    -0.010 C 
ATOM     26  C   LIG    1       -8.860   2.904  -4.093  0.00  0.00    +0.230 C 
ATOM     27  O   LIG    1       -8.923   3.305  -2.723  0.00  0.00    -0.320 OA
ATOM     28  C   LIG    1       -7.973   2.772  -1.901  0.00  0.00    +0.070 A 
ATOM     29  C   LIG    1       -6.991   3.579  -1.353  0.00  0.00    +0.040 A 
ENDBRANCH  18  19
BRANCH  18  30
ATOM     30  C   LIG    1       -5.325   4.251   1.512  0.00  0.00    -0.020 C 
ATOM     31  C   LIG    1       -5.452   2.967   2.335  0.00  0.00    +0.010 C 
ATOM     32  C   LIG    1       -6.659   5.000   1.528  0.00  0.00    +0.030 C 
ENDBRANCH  18  30
ENDBRANCH   2  18
TORSDOF 5
