REMARK  Name = ZINCpk00000k4nAP.1
REMARK                            x       y       z     vdW  Elec       q    Type
REMARK                         _______ _______ _______ _____ _____    ______ ____
ROOT
ATOM      1  C   LIG    1        2.263  -1.939  -0.966  0.00  0.00    +0.120 C 
ATOM      2  C   LIG    1        1.202  -2.853  -1.607  0.00  0.00    +0.310 C 
ATOM      3  N   LIG    1        1.322  -3.678  -0.390  0.00  0.00    -0.650 N 
ATOM      4  C   LIG    1        1.091  -4.974  -0.100  0.00  0.00    +0.550 C 
ATOM      5  O   LIG    1        1.368  -5.409   0.998  0.00  0.00    -0.520 OA
ATOM      6  C   LIG    1        1.798  -2.515   0.384  0.00  0.00    +0.310 C 
ENDROOT
BRANCH   4   7
ATOM      7  C   LIG    1        0.488  -5.882  -1.141  0.00  0.00    +0.090 C 
ATOM      8  C   LIG    1        1.084  -7.263  -1.017  0.00  0.00    -0.230 A 
ATOM      9  C   LIG    1        0.448  -8.318  -0.447  0.00  0.00    +0.110 A 
ATOM     10  N   LIG    1        1.270  -9.378  -0.513  0.00  0.00    -0.470 N 
ATOM     11  H   LIG    1        1.079 -10.271  -0.184  0.00  0.00    +0.440 HD
ATOM     12  N   LIG    1        2.454  -8.965  -1.142  0.00  0.00    -0.290 NA
ATOM     13  C   LIG    1       -0.939  -8.253   0.142  0.00  0.00    +0.110 C 
ATOM     14  C   LIG    1       -1.302  -6.779   0.362  0.00  0.00    +0.040 C 
ATOM     15  C   LIG    1        2.338  -7.695  -1.443  0.00  0.00    +0.250 A 
ATOM     16  C   LIG    1       -1.026  -5.988  -0.920  0.00  0.00    +0.010 C 
ATOM     17  C   LIG    1       -1.621  -4.584  -0.791  0.00  0.00    +0.030 C 
ENDBRANCH   4   7
BRANCH   1  21
ATOM     18  C   LIG    1        2.234   1.654  -1.427  0.00  0.00    -0.060 A 
ATOM     19  C   LIG    1        0.901   1.415  -1.279  0.00  0.00    +0.280 A 
ATOM     20  O   LIG    1        0.759   0.093  -1.096  0.00  0.00    -0.190 OA
ATOM     21  C   LIG    1        1.976  -0.469  -1.130  0.00  0.00    +0.210 A 
ATOM     22  N   LIG    1        2.869   0.454  -1.327  0.00  0.00    -0.430 NA
BRANCH  18  23
ATOM     23  C   LIG    1        2.869   2.964  -1.651  0.00  0.00    +0.550 C 
ATOM     24  O   LIG    1        2.185   3.966  -1.719  0.00  0.00    -0.500 OA
BRANCH  23  26
ATOM     25  C   LIG    1        4.764   4.374  -1.999  0.00  0.00    +0.280 C 
ATOM     26  O   LIG    1        4.207   3.051  -1.780  0.00  0.00    -0.340 OA
ENDBRANCH  23  26
ENDBRANCH  18  23
ENDBRANCH   1  21
TORSDOF 4
