REMARK  Name = ZINCpk00000k4nAP.0
REMARK                            x       y       z     vdW  Elec       q    Type
REMARK                         _______ _______ _______ _____ _____    ______ ____
ROOT
ATOM      1  C   LIG    1       -2.990   1.185   2.952  0.00  0.00    +0.120 C 
ATOM      2  C   LIG    1       -2.393  -0.206   3.208  0.00  0.00    +0.300 C 
ATOM      3  N   LIG    1       -1.659  -0.067   1.941  0.00  0.00    -0.650 N 
ATOM      4  C   LIG    1       -0.510  -0.548   1.427  0.00  0.00    +0.560 C 
ATOM      5  O   LIG    1        0.138  -1.362   2.050  0.00  0.00    -0.520 OA
ATOM      6  C   LIG    1       -2.728   0.834   1.484  0.00  0.00    +0.310 C 
ENDROOT
BRANCH   4   7
ATOM      7  C   LIG    1       -0.030  -0.074   0.079  0.00  0.00    +0.080 C 
ATOM      8  C   LIG    1        1.476   0.012   0.077  0.00  0.00    -0.230 A 
ATOM      9  C   LIG    1        2.259   0.963   0.620  0.00  0.00    +0.250 A 
ATOM     10  N   LIG    1        3.544   0.626   0.371  0.00  0.00    -0.480 N 
ATOM     11  H   LIG    1        4.328   1.127   0.646  0.00  0.00    +0.440 HD
ATOM     12  N   LIG    1        3.545  -0.573  -0.358  0.00  0.00    -0.290 NA
ATOM     13  C   LIG    1        2.309  -0.941  -0.534  0.00  0.00    +0.100 A 
ATOM     14  C   LIG    1        1.790  -2.162  -1.252  0.00  0.00    +0.130 C 
ATOM     15  C   LIG    1        0.330  -2.379  -0.836  0.00  0.00    +0.040 C 
ATOM     16  C   LIG    1       -0.455  -1.076  -1.002  0.00  0.00    +0.010 C 
ATOM     17  C   LIG    1       -1.951  -1.364  -0.870  0.00  0.00    +0.020 C 
ENDBRANCH   4   7
BRANCH   1  21
ATOM     18  C   LIG    1       -6.290   1.951   4.236  0.00  0.00    -0.060 A 
ATOM     19  C   LIG    1       -6.596   0.972   3.340  0.00  0.00    +0.280 A 
ATOM     20  O   LIG    1       -5.443   0.587   2.771  0.00  0.00    -0.190 OA
ATOM     21  C   LIG    1       -4.449   1.307   3.310  0.00  0.00    +0.210 A 
ATOM     22  N   LIG    1       -4.942   2.130   4.186  0.00  0.00    -0.430 NA
BRANCH  18  23
ATOM     23  C   LIG    1       -7.239   2.680   5.095  0.00  0.00    +0.550 C 
ATOM     24  O   LIG    1       -8.426   2.424   5.043  0.00  0.00    -0.500 OA
BRANCH  23  26
ATOM     25  C   LIG    1       -7.782   4.308   6.755  0.00  0.00    +0.280 C 
ATOM     26  O   LIG    1       -6.791   3.630   5.938  0.00  0.00    -0.340 OA
ENDBRANCH  23  26
ENDBRANCH  18  23
ENDBRANCH   1  21
TORSDOF 4
