REMARK  Name = ZINCrD000000Bzcp.0
REMARK                            x       y       z     vdW  Elec       q    Type
REMARK                         _______ _______ _______ _____ _____    ______ ____
ROOT
ATOM      1  O   LIG    1       -1.197   2.813   0.137  0.00  0.00    -0.520 OA
ATOM      2  C   LIG    1       -1.189   1.600   0.208  0.00  0.00    +0.570 C 
ATOM      3  N   LIG    1       -0.018   0.938   0.290  0.00  0.00    -0.510 N 
ATOM      4  H   LIG    1       -0.012  -0.031   0.347  0.00  0.00    +0.440 HD
ENDROOT
BRANCH   2   5
ATOM      5  C   LIG    1       -2.466   0.849   0.204  0.00  0.00    -0.050 A 
ATOM      6  C   LIG    1       -2.479  -0.548   0.280  0.00  0.00    -0.020 A 
ATOM      7  C   LIG    1       -3.690  -1.210   0.278  0.00  0.00    +0.320 A 
ATOM      8  N   LIG    1       -4.826  -0.547   0.197  0.00  0.00    -0.510 NA
ATOM      9  C   LIG    1       -4.863   0.773   0.119  0.00  0.00    +0.310 A 
ATOM     10  C   LIG    1       -3.690   1.517   0.120  0.00  0.00    +0.040 A 
BRANCH   9  11
ATOM     11  O   LIG    1       -6.059   1.407   0.038  0.00  0.00    -0.230 OA
BRANCH  11  12
ATOM     12  C   LIG    1       -7.180   0.645  -0.066  0.00  0.00    +0.050 A 
ATOM     13  C   LIG    1       -7.709   0.355  -1.314  0.00  0.00    +0.090 A 
ATOM     14  C   LIG    1       -8.845  -0.425  -1.419  0.00  0.00    +0.000 A 
ATOM     15  C   LIG    1       -9.463  -0.908  -0.278  0.00  0.00    +0.140 A 
ATOM     16  C   LIG    1       -8.940  -0.616   0.971  0.00  0.00    -0.020 A 
ATOM     17  F   LIG    1      -10.576  -1.666  -0.383  0.00  0.00    -0.120 F 
ATOM     18  C   LIG    1       -7.800   0.160   1.079  0.00  0.00    +0.140 A 
ATOM     19  F   LIG    1       -7.290   0.445   2.297  0.00  0.00    -0.120 F 
ENDBRANCH  11  12
ENDBRANCH   9  11
ENDBRANCH   2   5
BRANCH   3  20
ATOM     20  N   LIG    1        1.190   1.647   0.288  0.00  0.00    -0.520 N 
ATOM     21  H   LIG    1        1.183   2.615   0.231  0.00  0.00    +0.430 HD
ATOM     22  C   LIG    1        2.361   0.984   0.364  0.00  0.00    +0.600 C 
ATOM     23  O   LIG    1        2.369  -0.231   0.436  0.00  0.00    -0.520 OA
BRANCH  22  24
ATOM     24  C   LIG    1        3.625   1.727   0.362  0.00  0.00    -0.050 A 
ATOM     25  C   LIG    1        4.890   1.183   0.441  0.00  0.00    +0.100 A 
ATOM     26  C   LIG    1        5.798   2.247   0.403  0.00  0.00    -0.180 A 
ATOM     27  C   LIG    1        5.087   3.397   0.312  0.00  0.00    +0.270 A 
ATOM     28 BR   LIG    1        7.682   2.105   0.473  0.00  0.00    -0.020 Br
ATOM     29  N   LIG    1        3.765   3.094   0.286  0.00  0.00    -0.530 N 
ATOM     30  H   LIG    1        3.040   3.735   0.225  0.00  0.00    +0.420 HD
ENDBRANCH  22  24
ENDBRANCH   3  20
TORSDOF 5
