REMARK  Name = ZINCpk00000eaMBp.0
REMARK                            x       y       z     vdW  Elec       q    Type
REMARK                         _______ _______ _______ _____ _____    ______ ____
ROOT
ATOM      1  C   LIG    1       -5.586  -3.151   0.316  0.00  0.00    -0.150 A 
ATOM      2  C   LIG    1       -4.542  -4.080   0.308  0.00  0.00    +0.100 A 
ATOM      3  C   LIG    1       -3.239  -3.648   0.206  0.00  0.00    -0.010 A 
ATOM      4  C   LIG    1       -2.961  -2.288   0.110  0.00  0.00    +0.170 A 
ATOM      5  C   LIG    1       -3.998  -1.360   0.123  0.00  0.00    +0.010 A 
ATOM      6  C   LIG    1       -5.303  -1.786   0.219  0.00  0.00    +0.070 A 
ENDROOT
BRANCH   1   9
ATOM      7  N   LIG    1       -7.990  -2.713   0.433  0.00  0.00    -0.720 N 
ATOM      8  H   LIG    1       -7.795  -1.766   0.366  0.00  0.00    +0.400 HD
ATOM      9  C   LIG    1       -6.985  -3.611   0.426  0.00  0.00    +0.560 C 
ATOM     10  O   LIG    1       -7.229  -4.799   0.510  0.00  0.00    -0.540 OA
BRANCH   7  12
ATOM     11  C   LIG    1       -9.737  -3.364   2.017  0.00  0.00    +0.020 C 
ATOM     12  C   LIG    1       -9.378  -3.170   0.542  0.00  0.00    +0.260 C 
BRANCH  12  13
ATOM     13  C   LIG    1      -10.309  -2.124  -0.075  0.00  0.00    -0.060 C 
ATOM     14  C   LIG    1      -11.229  -1.351   0.871  0.00  0.00    +0.010 C 
ATOM     15  C   LIG    1      -11.810  -2.417  -0.060  0.00  0.00    +0.030 C 
ENDBRANCH  12  13
ENDBRANCH   7  12
ENDBRANCH   1   9
BRANCH   4  16
ATOM     16  N   LIG    1       -1.640  -1.854   0.008  0.00  0.00    -0.660 N 
ATOM     17  H   LIG    1       -0.933  -2.341   0.459  0.00  0.00    +0.420 HD
ATOM     18  C   LIG    1       -1.346  -0.757  -0.718  0.00  0.00    +0.540 C 
ATOM     19  O   LIG    1       -2.213  -0.204  -1.360  0.00  0.00    -0.500 OA
BRANCH  18  20
ATOM     20  C   LIG    1        0.062  -0.219  -0.733  0.00  0.00    +0.120 C 
BRANCH  20  21
ATOM     21  S   LIG    1        0.136   1.248  -1.791  0.00  0.00    +0.120 S 
BRANCH  21  22
ATOM     22  C   LIG    1        1.842   1.656  -1.629  0.00  0.00    +0.190 A 
ATOM     23  N   LIG    1        2.736   1.010  -0.913  0.00  0.00    -0.340 NA
ATOM     24  N   LIG    1        3.886   1.572  -1.014  0.00  0.00    -0.030 NA
ATOM     25  N   LIG    1        3.815   2.600  -1.788  0.00  0.00    -0.070 NA
ATOM     26  N   LIG    1        2.481   2.691  -2.223  0.00  0.00    -0.360 N 
ATOM     27  C   LIG    1        1.906   3.693  -3.124  0.00  0.00    +0.390 C 
ENDBRANCH  21  22
ENDBRANCH  20  21
ENDBRANCH  18  20
ENDBRANCH   4  16
TORSDOF 7
