REMARK  Name = ZINCrD00000fLDwE.0
REMARK                            x       y       z     vdW  Elec       q    Type
REMARK                         _______ _______ _______ _____ _____    ______ ____
ROOT
ATOM      1  O   LIG    1       -0.887   3.861   2.061  0.00  0.00    -0.510 OA
ATOM      2  C   LIG    1       -0.227   2.855   1.911  0.00  0.00    +0.520 C 
ATOM      3  N   LIG    1        1.084   2.856   2.228  0.00  0.00    -0.670 N 
ATOM      4  H   LIG    1        1.594   2.033   2.181  0.00  0.00    +0.410 HD
ENDROOT
BRANCH   3   5
ATOM      5  C   LIG    1        1.708   4.046   2.624  0.00  0.00    +0.120 A 
ATOM      6  C   LIG    1        1.302   5.258   2.080  0.00  0.00    +0.040 A 
ATOM      7  C   LIG    1        1.914   6.431   2.474  0.00  0.00    -0.020 A 
ATOM      8  C   LIG    1        2.942   6.399   3.406  0.00  0.00    +0.100 A 
ATOM      9  C   LIG    1        3.352   5.186   3.946  0.00  0.00    +0.010 A 
ATOM     10  C   LIG    1        2.736   4.014   3.556  0.00  0.00    +0.010 A 
BRANCH   8  11
ATOM     11  N   LIG    1        3.566   7.587   3.801  0.00  0.00    -0.490 N 
ATOM     12  C   LIG    1        3.495   7.760   5.259  0.00  0.00    +0.160 C 
ATOM     13  C   LIG    1        4.239   9.038   5.653  0.00  0.00    +0.220 C 
ATOM     14  O   LIG    1        3.677  10.148   4.948  0.00  0.00    -0.380 OA
ATOM     15  C   LIG    1        3.730  10.013   3.525  0.00  0.00    +0.220 C 
ATOM     16  C   LIG    1        2.980   8.744   3.110  0.00  0.00    +0.160 C 
ENDBRANCH   8  11
ENDBRANCH   3   5
BRANCH   2  17
ATOM     17  C   LIG    1       -0.871   1.604   1.372  0.00  0.00    -0.020 C 
ATOM     18  C   LIG    1       -0.209   1.187   0.036  0.00  0.00    +0.030 C 
ATOM     19  C   LIG    1       -1.190   1.774  -1.011  0.00  0.00    +0.200 C 
ATOM     20  O   LIG    1       -2.486   1.580  -0.404  0.00  0.00    -0.360 OA
ATOM     21  C   LIG    1       -2.342   1.873   0.996  0.00  0.00    +0.240 C 
BRANCH  21  22
ATOM     22  C   LIG    1       -3.251   0.981   1.802  0.00  0.00    -0.100 A 
ATOM     23  C   LIG    1       -3.432  -0.338   1.429  0.00  0.00    +0.080 A 
ATOM     24  C   LIG    1       -4.262  -1.157   2.171  0.00  0.00    -0.020 A 
ATOM     25  C   LIG    1       -4.920  -0.655   3.280  0.00  0.00    +0.100 A 
ATOM     26  C   LIG    1       -4.741   0.668   3.649  0.00  0.00    -0.010 A 
ATOM     27  F   LIG    1       -5.735  -1.454   4.003  0.00  0.00    -0.140 F 
ATOM     28  C   LIG    1       -3.907   1.484   2.910  0.00  0.00    +0.070 A 
ENDBRANCH  21  22
ENDBRANCH   2  17
TORSDOF 4
