REMARK  Name = ZINCrD000000B20f.0
REMARK                            x       y       z     vdW  Elec       q    Type
REMARK                         _______ _______ _______ _____ _____    ______ ____
ROOT
ATOM      1  O   LIG    1       -3.887  -1.621   0.330  0.00  0.00    -0.590 OA
ATOM      2  C   LIG    1       -3.541  -2.189   1.348  0.00  0.00    +0.710 C 
ATOM      3  N   LIG    1       -4.445  -2.456   2.311  0.00  0.00    -0.630 N 
ATOM      4  C   LIG    1       -5.825  -1.966   2.199  0.00  0.00    +0.300 C 
ATOM      5  C   LIG    1       -6.182  -1.190   3.466  0.00  0.00    +0.020 C 
ATOM      6  C   LIG    1       -5.925  -2.071   4.691  0.00  0.00    +0.060 C 
ATOM      7  C   LIG    1       -4.442  -2.443   4.751  0.00  0.00    +0.030 C 
ATOM      8  C   LIG    1       -4.067  -3.238   3.497  0.00  0.00    +0.270 C 
ATOM      9  N   LIG    1       -2.253  -2.552   1.512  0.00  0.00    -0.750 N 
ATOM     10  H   LIG    1       -1.991  -3.069   2.290  0.00  0.00    +0.400 HD
ENDROOT
BRANCH   6  11
ATOM     11  C   LIG    1       -6.306  -1.319   5.940  0.00  0.00    +0.180 A 
ATOM     12  C   LIG    1       -6.106   0.050   6.023  0.00  0.00    -0.070 A 
ATOM     13  C   LIG    1       -6.471   0.699   7.192  0.00  0.00    +0.320 A 
ATOM     14  N   LIG    1       -6.995  -0.004   8.183  0.00  0.00    -0.520 NA
ATOM     15  C   LIG    1       -7.171  -1.306   8.067  0.00  0.00    +0.500 A 
ATOM     16  N   LIG    1       -6.840  -1.956   6.970  0.00  0.00    -0.520 NA
ENDBRANCH   6  11
BRANCH   9  17
ATOM     17  C   LIG    1       -1.250  -2.165   0.517  0.00  0.00    +0.280 C 
BRANCH  17  18
ATOM     18  C   LIG    1        0.120  -2.699   0.940  0.00  0.00    +0.030 C 
BRANCH  18  19
ATOM     19  C   LIG    1        1.187  -2.189  -0.030  0.00  0.00    +0.050 C 
ATOM     20  C   LIG    1        0.935  -2.779  -1.420  0.00  0.00    +0.010 C 
ATOM     21  C   LIG    1        2.165  -2.500  -2.293  0.00  0.00    +0.240 C 
ATOM     22  O   LIG    1        3.276  -3.209  -1.744  0.00  0.00    -0.320 OA
ATOM     23  C   LIG    1        3.515  -3.084  -0.413  0.00  0.00    +0.130 A 
ATOM     24  C   LIG    1        4.765  -3.449   0.075  0.00  0.00    -0.020 A 
ATOM     25  C   LIG    1        5.043  -3.341   1.423  0.00  0.00    +0.040 A 
ATOM     26  C   LIG    1        4.077  -2.868   2.291  0.00  0.00    -0.030 A 
ATOM     27  C   LIG    1        2.835  -2.503   1.810  0.00  0.00    +0.040 A 
ATOM     28  C   LIG    1        2.551  -2.608   0.459  0.00  0.00    -0.160 A 
ENDBRANCH  18  19
ENDBRANCH  17  18
ENDBRANCH   9  17
TORSDOF 4
