REMARK  Name = ZINCtV000002xSRA.0
REMARK                            x       y       z     vdW  Elec       q    Type
REMARK                         _______ _______ _______ _____ _____    ______ ____
ROOT
ATOM      1  C   LIG    1        1.382   2.865  -0.055  0.00  0.00    -0.100 A 
ATOM      2  C   LIG    1        1.294   1.497   0.166  0.00  0.00    +0.050 A 
ATOM      3  C   LIG    1        0.062   0.909   0.374  0.00  0.00    +0.060 A 
ATOM      4  C   LIG    1       -1.089   1.685   0.356  0.00  0.00    +0.190 A 
ATOM      5  C   LIG    1       -1.001   3.055   0.141  0.00  0.00    -0.190 A 
ATOM      6  C   LIG    1        0.231   3.643  -0.067  0.00  0.00    +0.110 A 
ENDROOT
BRANCH   5   7
ATOM      7  C   LIG    1       -2.250   3.898   0.129  0.00  0.00    +0.510 C 
ATOM      8  F   LIG    1       -2.894   3.796   1.367  0.00  0.00    -0.180 F 
ATOM      9  F   LIG    1       -3.107   3.447  -0.881  0.00  0.00    -0.170 F 
ATOM     10  F   LIG    1       -1.909   5.233  -0.111  0.00  0.00    -0.170 F 
ENDBRANCH   5   7
BRANCH   4  11
ATOM     11  N   LIG    1       -2.340   1.088   0.562  0.00  0.00    -0.670 N 
ATOM     12  H   LIG    1       -3.038   1.574   1.028  0.00  0.00    +0.420 HD
ATOM     13  C   LIG    1       -2.572  -0.161   0.112  0.00  0.00    +0.620 C 
ATOM     14  O   LIG    1       -1.671  -0.803  -0.392  0.00  0.00    -0.500 OA
BRANCH  13  15
ATOM     15  C   LIG    1       -3.921  -0.749   0.230  0.00  0.00    -0.010 A 
ATOM     16  N   LIG    1       -4.985  -0.170   0.750  0.00  0.00    -0.250 NA
ATOM     17  N   LIG    1       -5.993  -0.964   0.692  0.00  0.00    -0.230 N 
ATOM     18  C   LIG    1       -5.629  -2.139   0.114  0.00  0.00    +0.180 A 
ATOM     19  C   LIG    1       -4.317  -2.038  -0.200  0.00  0.00    +0.010 A 
BRANCH  17  20
ATOM     20  C   LIG    1       -7.280  -0.663   1.157  0.00  0.00    +0.130 A 
ATOM     21  C   LIG    1       -8.300  -1.599   1.038  0.00  0.00    +0.020 A 
ATOM     22  C   LIG    1       -9.566  -1.301   1.502  0.00  0.00    +0.040 A 
ATOM     23  C   LIG    1       -9.822  -0.069   2.076  0.00  0.00    +0.020 A 
ATOM     24  C   LIG    1       -8.810   0.867   2.191  0.00  0.00    +0.040 A 
ATOM     25  C   LIG    1       -7.540   0.573   1.733  0.00  0.00    +0.030 A 
ENDBRANCH  17  20
ENDBRANCH  13  15
ENDBRANCH   4  11
BRANCH   1  26
ATOM     26  S   LIG    1        2.954   3.615  -0.321  0.00  0.00    -0.090 S 
BRANCH  26  27
ATOM     27  C   LIG    1        4.103   2.219  -0.176  0.00  0.00    +0.020 C 
ATOM     28  C   LIG    1        3.998   1.341  -1.425  0.00  0.00    +0.040 C 
BRANCH  27  30
ATOM     29  C   LIG    1        5.669   3.519   1.271  0.00  0.00    +0.030 C 
ATOM     30  C   LIG    1        5.533   2.746  -0.042  0.00  0.00    +0.050 C 
ENDBRANCH  27  30
ENDBRANCH  26  27
ENDBRANCH   1  26
TORSDOF 7
