REMARK  Name = ZINCpk00000e9m0a.0
REMARK                            x       y       z     vdW  Elec       q    Type
REMARK                         _______ _______ _______ _____ _____    ______ ____
ROOT
ATOM      1  C   LIG    1        1.358   4.215   1.119  0.00  0.00    -0.280 C 
ATOM      2  C   LIG    1        1.034   3.504   0.017  0.00  0.00    +0.260 C 
ATOM      3  N   LIG    1        0.524   4.116  -1.092  0.00  0.00    -0.640 N 
ATOM      4  H   LIG    1        0.302   3.564  -1.858  0.00  0.00    +0.440 HD
ATOM      5  C   LIG    1        0.313   5.435  -1.181  0.00  0.00    +0.710 C 
ATOM      6  N   LIG    1        0.592   6.276  -0.166  0.00  0.00    -0.710 N 
ATOM      7  H   LIG    1        0.432   7.229  -0.253  0.00  0.00    +0.430 HD
ATOM      8  O   LIG    1       -0.145   5.888  -2.212  0.00  0.00    -0.560 OA
ATOM      9  C   LIG    1        1.147   5.715   1.077  0.00  0.00    +0.280 C 
ATOM     10  C   LIG    1        2.494   6.391   1.340  0.00  0.00    +0.040 C 
ENDROOT
BRANCH   1  11
ATOM     11  C   LIG    1        1.881   3.581   2.270  0.00  0.00    +0.530 C 
ATOM     12  O   LIG    1        2.147   2.394   2.244  0.00  0.00    -0.520 OA
BRANCH  11  13
ATOM     13  O   LIG    1        2.086   4.294   3.398  0.00  0.00    -0.350 OA
BRANCH  13  15
ATOM     14  C   LIG    1        2.778   4.555   5.699  0.00  0.00    +0.070 C 
ATOM     15  C   LIG    1        2.616   3.590   4.523  0.00  0.00    +0.200 C 
ENDBRANCH  13  15
ENDBRANCH  11  13
ENDBRANCH   1  11
BRANCH   2  16
ATOM     16  C   LIG    1        1.234   2.010   0.014  0.00  0.00    +0.340 C 
BRANCH  16  17
ATOM     17  O   LIG    1        0.714   1.455  -1.223  0.00  0.00    -0.370 OA
BRANCH  17  18
ATOM     18  C   LIG    1        0.815   0.126  -1.385  0.00  0.00    +0.470 C 
ATOM     19  O   LIG    1        1.321  -0.551  -0.521  0.00  0.00    -0.480 OA
BRANCH  18  20
ATOM     20  C   LIG    1        0.297  -0.521  -2.643  0.00  0.00    +0.170 C 
BRANCH  20  21
ATOM     21  C   LIG    1        0.529  -2.009  -2.575  0.00  0.00    -0.100 A 
ATOM     22  C   LIG    1        1.705  -2.547  -3.064  0.00  0.00    +0.060 A 
ATOM     23  C   LIG    1        1.922  -3.910  -2.997  0.00  0.00    -0.010 A 
ATOM     24  C   LIG    1        0.956  -4.738  -2.450  0.00  0.00    +0.110 A 
ATOM     25  C   LIG    1       -0.223  -4.199  -1.966  0.00  0.00    -0.010 A 
ATOM     26  F   LIG    1        1.165  -6.072  -2.389  0.00  0.00    -0.140 F 
ATOM     27  C   LIG    1       -0.435  -2.834  -2.029  0.00  0.00    +0.060 A 
ENDBRANCH  20  21
ENDBRANCH  18  20
ENDBRANCH  17  18
ENDBRANCH  16  17
ENDBRANCH   2  16
TORSDOF 8
