REMARK  Name = ZINCtV00000L6ktt.0
REMARK                            x       y       z     vdW  Elec       q    Type
REMARK                         _______ _______ _______ _____ _____    ______ ____
ROOT
ATOM      1  C   LIG    1       -2.415   4.136   5.263  0.00  0.00    +0.440 A 
ATOM      2  C   LIG    1       -1.489   5.000   4.718  0.00  0.00    -0.060 A 
ATOM      3  C   LIG    1       -1.256   6.228   5.337  0.00  0.00    +0.230 A 
ATOM      4  N   LIG    1       -1.912   6.556   6.430  0.00  0.00    -0.460 NA
ATOM      5  C   LIG    1       -2.813   5.729   6.971  0.00  0.00    +0.300 A 
ATOM      6  C   LIG    1       -3.630   5.831   8.104  0.00  0.00    -0.160 A 
ATOM      7  C   LIG    1       -4.378   4.650   8.184  0.00  0.00    +0.040 A 
ATOM      8  N   LIG    1       -4.051   3.874   7.180  0.00  0.00    -0.250 NA
ATOM      9  C   LIG    1       -0.248   7.183   4.753  0.00  0.00    +0.170 C 
ATOM     10  N   LIG    1       -3.083   4.514   6.399  0.00  0.00    -0.320 N 
ENDROOT
BRANCH   6  11
ATOM     11  C   LIG    1       -3.692   6.976   9.042  0.00  0.00    -0.010 A 
ATOM     12  C   LIG    1       -2.584   7.302   9.824  0.00  0.00    +0.030 A 
ATOM     13  C   LIG    1       -2.647   8.372  10.692  0.00  0.00    +0.000 A 
ATOM     14  C   LIG    1       -3.809   9.115  10.796  0.00  0.00    +0.010 A 
ATOM     15  C   LIG    1       -4.913   8.794  10.027  0.00  0.00    +0.000 A 
ATOM     16  C   LIG    1       -4.861   7.729   9.151  0.00  0.00    +0.020 A 
ENDBRANCH   6  11
BRANCH   7  17
ATOM     17  C   LIG    1       -5.393   4.325   9.249  0.00  0.00    +0.560 C 
ATOM     18  F   LIG    1       -5.033   4.958  10.444  0.00  0.00    -0.150 F 
ATOM     19  F   LIG    1       -5.433   2.941   9.449  0.00  0.00    -0.160 F 
ATOM     20  F   LIG    1       -6.654   4.775   8.845  0.00  0.00    -0.160 F 
ENDBRANCH   7  17
BRANCH   1  21
ATOM     21  N   LIG    1       -2.668   2.915   4.674  0.00  0.00    -0.670 N 
ATOM     22  H   LIG    1       -2.971   2.874   3.753  0.00  0.00    +0.430 HD
BRANCH  21  26
ATOM     23  C   LIG    1       -2.131  -0.597   6.847  0.00  0.00    -0.110 A 
ATOM     24  C   LIG    1       -1.746   0.615   7.389  0.00  0.00    +0.050 A 
ATOM     25  C   LIG    1       -1.917   1.781   6.669  0.00  0.00    -0.040 A 
ATOM     26  C   LIG    1       -2.487   1.736   5.403  0.00  0.00    +0.180 A 
ATOM     27  C   LIG    1       -2.879   0.517   4.864  0.00  0.00    -0.030 A 
ATOM     28  C   LIG    1       -2.700  -0.645   5.587  0.00  0.00    +0.050 A 
BRANCH  23  30
ATOM     29  C   LIG    1       -0.562  -2.460   7.314  0.00  0.00    +0.020 C 
ATOM     30  C   LIG    1       -1.937  -1.868   7.633  0.00  0.00    +0.060 C 
ENDBRANCH  23  30
ENDBRANCH  21  26
ENDBRANCH   1  21
TORSDOF 5
