REMARK  Name = ZINCvU00000003Rg.0
REMARK                            x       y       z     vdW  Elec       q    Type
REMARK                         _______ _______ _______ _____ _____    ______ ____
ROOT
ATOM      1  C   LIG    1       10.602   2.932  -1.381  0.00  0.00    +0.100 C 
ATOM      2  C   LIG    1       10.874   2.174  -0.080  0.00  0.00    +0.000 C 
ENDROOT
BRANCH   2   3
ATOM      3  C   LIG    1       12.348   1.878   0.030  0.00  0.00    +0.540 C 
ATOM      4  N   LIG    1       13.184   2.801   0.544  0.00  0.00    -0.720 N 
ATOM      5  H   LIG    1       12.838   3.656   0.844  0.00  0.00    +0.410 HD
ATOM      6  O   LIG    1       12.781   0.809  -0.344  0.00  0.00    -0.520 OA
BRANCH   4   7
ATOM      7  C   LIG    1       14.617   2.513   0.651  0.00  0.00    +0.350 C 
BRANCH   7   8
ATOM      8  C   LIG    1       15.324   3.699   1.254  0.00  0.00    -0.110 A 
ATOM      9  C   LIG    1       15.825   4.693   0.435  0.00  0.00    +0.050 A 
ATOM     10  C   LIG    1       16.470   5.786   0.984  0.00  0.00    +0.040 A 
ATOM     11  C   LIG    1       16.625   5.882   2.357  0.00  0.00    +0.040 A 
ATOM     12  O   LIG    1       17.215   6.834   3.137  0.00  0.00    -0.310 OA
ATOM     13  C   LIG    1       17.431   6.205   4.414  0.00  0.00    +0.440 C 
ATOM     14  O   LIG    1       16.401   5.201   4.479  0.00  0.00    -0.310 OA
ATOM     15  C   LIG    1       16.125   4.878   3.183  0.00  0.00    +0.030 A 
ATOM     16  C   LIG    1       15.475   3.789   2.626  0.00  0.00    +0.060 A 
ENDBRANCH   7   8
ENDBRANCH   4   7
ENDBRANCH   2   3
BRANCH   2  17
ATOM     17  S   LIG    1        9.945   0.621  -0.081  0.00  0.00    +0.150 S 
BRANCH  17  18
ATOM     18  C   LIG    1        8.299   1.249  -0.064  0.00  0.00    +0.130 A 
ATOM     19  N   LIG    1        7.951   2.515  -0.053  0.00  0.00    -0.280 NA
ATOM     20  N   LIG    1        6.668   2.607  -0.042  0.00  0.00    -0.230 NA
ATOM     21  C   LIG    1        6.144   1.402  -0.045  0.00  0.00    +0.230 A 
ATOM     22  O   LIG    1        7.167   0.518  -0.053  0.00  0.00    -0.200 OA
BRANCH  21  23
ATOM     23  C   LIG    1        4.711   1.075  -0.035  0.00  0.00    -0.120 A 
ATOM     24  C   LIG    1        3.730   1.983  -0.021  0.00  0.00    +0.030 A 
ATOM     25  C   LIG    1        2.391   1.425  -0.013  0.00  0.00    -0.080 A 
ATOM     26  C   LIG    1        1.145   2.092   0.002  0.00  0.00    +0.080 A 
ATOM     27  C   LIG    1       -0.017   1.384   0.010  0.00  0.00    +0.030 A 
ATOM     28  C   LIG    1        0.002  -0.004   0.002  0.00  0.00    +0.060 A 
ATOM     29  C   LIG    1        1.200  -0.680  -0.013  0.00  0.00    +0.060 A 
ATOM     30  C   LIG    1        2.406   0.026  -0.020  0.00  0.00    -0.130 A 
ATOM     31 CL   LIG    1        4.033   3.692  -0.014  0.00  0.00    +0.000 Cl
ATOM     32  S   LIG    1        4.067  -0.555  -0.038  0.00  0.00    +0.190 S 
ENDBRANCH  21  23
ENDBRANCH  17  18
ENDBRANCH   2  17
TORSDOF 6
