REMARK  Name = ZINCqH0000006ePq.0
REMARK                            x       y       z     vdW  Elec       q    Type
REMARK                         _______ _______ _______ _____ _____    ______ ____
ROOT
ATOM      1  N   LIG    1       -0.011   0.966   0.007  0.00  0.00    -0.670 N 
ATOM      2  H   LIG    1       -0.095  -0.000   0.019  0.00  0.00    +0.410 HD
ATOM      3  C   LIG    1        1.210   1.536  -0.021  0.00  0.00    +0.600 C 
ATOM      4  O   LIG    1        1.315   2.744  -0.118  0.00  0.00    -0.500 OA
ENDROOT
BRANCH   3   5
ATOM      5  C   LIG    1        2.413   0.699   0.066  0.00  0.00    -0.090 A 
ATOM      6  C   LIG    1        3.703   1.150   0.048  0.00  0.00    +0.010 A 
ATOM      7  C   LIG    1        4.524   0.021   0.153  0.00  0.00    -0.270 A 
ATOM      8  C   LIG    1        3.696  -1.099   0.231  0.00  0.00    +0.120 A 
ATOM      9  C   LIG    1        4.229  -2.504   0.350  0.00  0.00    +0.130 C 
ATOM     10  C   LIG    1        5.682  -2.536  -0.135  0.00  0.00    +0.050 C 
ATOM     11  C   LIG    1        6.516  -1.471   0.586  0.00  0.00    +0.040 C 
ATOM     12  C   LIG    1        5.990  -0.100   0.190  0.00  0.00    +0.430 C 
ATOM     13  O   LIG    1        6.726   0.827  -0.077  0.00  0.00    -0.460 OA
ATOM     14  C   LIG    1        4.154   2.584  -0.062  0.00  0.00    +0.130 C 
ATOM     15  N   LIG    1        2.432  -0.678   0.184  0.00  0.00    -0.510 N 
ATOM     16  H   LIG    1        1.649  -1.249   0.225  0.00  0.00    +0.420 HD
ENDBRANCH   3   5
BRANCH   1  23
ATOM     17  C   LIG    1       -2.290   1.364   0.718  0.00  0.00    +0.070 A 
ATOM     18  C   LIG    1       -3.421   2.166   0.726  0.00  0.00    -0.040 A 
ATOM     19  C   LIG    1       -3.428   3.359   0.024  0.00  0.00    +0.030 A 
ATOM     20  C   LIG    1       -2.307   3.757  -0.680  0.00  0.00    +0.050 A 
ATOM     21  C   LIG    1       -1.173   2.966  -0.687  0.00  0.00    +0.040 A 
ATOM     22 CL   LIG    1       -4.831   1.670   1.609  0.00  0.00    -0.050 Cl
ATOM     23  C   LIG    1       -1.159   1.769   0.013  0.00  0.00    +0.150 A 
BRANCH  17  24
ATOM     24  O   LIG    1       -2.283   0.189   1.403  0.00  0.00    -0.320 OA
BRANCH  24  25
ATOM     25  C   LIG    1       -1.851   0.233   2.764  0.00  0.00    +0.200 C 
BRANCH  25  26
ATOM     26  C   LIG    1       -1.911  -1.173   3.364  0.00  0.00    +0.190 C 
BRANCH  26  28
ATOM     27  C   LIG    1       -0.946  -3.360   3.183  0.00  0.00    +0.200 C 
ATOM     28  O   LIG    1       -0.970  -2.016   2.696  0.00  0.00    -0.390 OA
ENDBRANCH  26  28
ENDBRANCH  25  26
ENDBRANCH  24  25
ENDBRANCH  17  24
ENDBRANCH   1  23
TORSDOF 6
