REMARK  Name = ZINCqH0000031Ixe.0
REMARK                            x       y       z     vdW  Elec       q    Type
REMARK                         _______ _______ _______ _____ _____    ______ ____
ROOT
ATOM      1  N   LIG    1       -1.054  -2.646   3.975  0.00  0.00    -0.690 N 
ATOM      2  H   LIG    1       -0.850  -2.001   4.670  0.00  0.00    +0.410 HD
ATOM      3  C   LIG    1       -1.397  -2.223   2.742  0.00  0.00    +0.700 C 
ATOM      4  N   LIG    1       -1.559  -0.907   2.502  0.00  0.00    -0.730 N 
ATOM      5  H   LIG    1       -1.429  -0.264   3.217  0.00  0.00    +0.400 HD
ATOM      6  O   LIG    1       -1.559  -3.029   1.846  0.00  0.00    -0.570 OA
ENDROOT
BRANCH   1  10
ATOM      7  C   LIG    1       -0.868  -6.715   4.798  0.00  0.00    -0.200 A 
ATOM      8  C   LIG    1       -1.811  -6.225   3.885  0.00  0.00    +0.100 A 
ATOM      9  C   LIG    1       -1.869  -4.887   3.618  0.00  0.00    +0.000 A 
ATOM     10  C   LIG    1       -0.991  -4.010   4.251  0.00  0.00    +0.200 A 
ATOM     11  C   LIG    1       -0.048  -4.493   5.154  0.00  0.00    -0.030 A 
ATOM     12  C   LIG    1        0.013  -5.830   5.431  0.00  0.00    +0.090 A 
BRANCH   7  14
ATOM     13  C   LIG    1        0.118  -8.662   6.168  0.00  0.00    +0.070 C 
ATOM     14  C   LIG    1       -0.802  -8.153   5.088  0.00  0.00    +0.400 C 
ATOM     15  O   LIG    1       -1.487  -8.931   4.458  0.00  0.00    -0.460 OA
ENDBRANCH   7  14
ENDBRANCH   1  10
BRANCH   4  16
ATOM     16  C   LIG    1       -1.932  -0.447   1.162  0.00  0.00    +0.300 C 
BRANCH  16  17
ATOM     17  C   LIG    1       -1.932   1.083   1.130  0.00  0.00    -0.030 C 
ATOM     18  C   LIG    1       -0.509   1.601   1.363  0.00  0.00    +0.010 C 
ATOM     19  C   LIG    1        0.392   1.123   0.221  0.00  0.00    +0.210 C 
ATOM     20  O   LIG    1       -0.137   1.581  -1.025  0.00  0.00    -0.380 OA
ATOM     21  C   LIG    1       -1.447   1.091  -1.318  0.00  0.00    +0.210 C 
ATOM     22  C   LIG    1       -2.422   1.567  -0.238  0.00  0.00    +0.020 C 
BRANCH  17  23
ATOM     23  C   LIG    1       -2.843   1.612   2.208  0.00  0.00    -0.080 A 
ATOM     24  C   LIG    1       -4.203   1.373   2.141  0.00  0.00    +0.010 A 
ATOM     25  C   LIG    1       -5.039   1.854   3.132  0.00  0.00    +0.010 A 
ATOM     26  C   LIG    1       -4.515   2.582   4.184  0.00  0.00    +0.000 A 
ATOM     27  C   LIG    1       -3.156   2.825   4.248  0.00  0.00    +0.000 A 
ATOM     28  C   LIG    1       -2.320   2.340   3.259  0.00  0.00    +0.010 A 
ENDBRANCH  17  23
ENDBRANCH  16  17
ENDBRANCH   4  16
TORSDOF 5
