REMARK  Name = ZINCrD0000075loP.1
REMARK                            x       y       z     vdW  Elec       q    Type
REMARK                         _______ _______ _______ _____ _____    ______ ____
ROOT
ATOM      1  C   LIG    1       -1.362   3.229   0.696  0.00  0.00    +0.480 C 
ATOM      2  N   LIG    1       -1.241   2.069   0.019  0.00  0.00    -0.660 N 
ATOM      3  H   LIG    1       -2.002   1.704  -0.457  0.00  0.00    +0.420 HD
ATOM      4  O   LIG    1       -0.389   3.729   1.220  0.00  0.00    -0.520 OA
ENDROOT
BRANCH   2   5
ATOM      5  C   LIG    1       -0.015   1.393   0.004  0.00  0.00    +0.150 A 
ATOM      6  C   LIG    1        0.008  -0.000  -0.001  0.00  0.00    +0.000 A 
ATOM      7  C   LIG    1        1.195  -0.676  -0.021  0.00  0.00    +0.100 A 
ATOM      8  C   LIG    1        2.400   0.031  -0.038  0.00  0.00    +0.040 A 
ATOM      9  N   LIG    1        3.705  -0.346  -0.059  0.00  0.00    -0.480 NA
ATOM     10  C   LIG    1        4.466   0.709  -0.068  0.00  0.00    +0.290 A 
ATOM     11  N   LIG    1        3.703   1.836  -0.053  0.00  0.00    -0.580 N 
ATOM     12  H   LIG    1        4.027   2.750  -0.055  0.00  0.00    +0.430 HD
ATOM     13  C   LIG    1        2.381   1.436  -0.034  0.00  0.00    +0.070 A 
ATOM     14  C   LIG    1        1.169   2.111  -0.013  0.00  0.00    +0.030 A 
BRANCH  10  15
ATOM     15  C   LIG    1        5.973   0.687  -0.090  0.00  0.00    +0.260 C 
ATOM     16  C   LIG    1        6.515  -0.155   1.086  0.00  0.00    +0.030 C 
ATOM     17  C   LIG    1        7.783   0.603   1.537  0.00  0.00    +0.000 C 
ATOM     18  C   LIG    1        7.857   1.814   0.581  0.00  0.00    +0.220 C 
ATOM     19  O   LIG    1        6.498   2.013   0.133  0.00  0.00    -0.380 OA
ENDBRANCH  10  15
ENDBRANCH   2   5
BRANCH   1  20
ATOM     20  C   LIG    1       -2.705   3.903   0.800  0.00  0.00    +0.240 C 
BRANCH  20  21
ATOM     21  C   LIG    1       -3.521   3.234   1.876  0.00  0.00    -0.130 A 
ATOM     22  C   LIG    1       -3.614   3.807   3.130  0.00  0.00    +0.120 A 
ATOM     23  C   LIG    1       -4.361   3.194   4.118  0.00  0.00    -0.010 A 
ATOM     24  C   LIG    1       -5.019   2.005   3.852  0.00  0.00    +0.140 A 
ATOM     25  C   LIG    1       -4.927   1.430   2.596  0.00  0.00    -0.040 A 
ATOM     26  F   LIG    1       -5.749   1.406   4.818  0.00  0.00    -0.130 F 
ATOM     27  C   LIG    1       -4.182   2.047   1.606  0.00  0.00    +0.140 A 
ATOM     28  F   LIG    1       -4.096   1.490   0.379  0.00  0.00    -0.130 F 
ENDBRANCH  20  21
BRANCH  20  29
ATOM     29  N   LIG    1       -2.517   5.320   1.139  0.00  0.00    -0.810 NA
ATOM     30  H   LIG    1       -2.028   5.806   0.402  0.00  0.00    +0.360 HD
ATOM     31  H   LIG    1       -2.035   5.421   2.019  0.00  0.00    +0.350 HD
ENDBRANCH  20  29
ENDBRANCH   1  20
TORSDOF 5
