REMARK  Name = ZINCrD0000075loP.0
REMARK                            x       y       z     vdW  Elec       q    Type
REMARK                         _______ _______ _______ _____ _____    ______ ____
ROOT
ATOM      1  C   LIG    1       10.358   0.934  -0.886  0.00  0.00    +0.530 C 
ATOM      2  N   LIG    1        9.276   0.137  -0.790  0.00  0.00    -0.670 N 
ATOM      3  H   LIG    1        9.385  -0.826  -0.748  0.00  0.00    +0.410 HD
ATOM      4  O   LIG    1       10.229   2.140  -0.842  0.00  0.00    -0.500 OA
ENDROOT
BRANCH   2   5
ATOM      5  C   LIG    1        7.993   0.699  -0.750  0.00  0.00    +0.140 A 
ATOM      6  C   LIG    1        7.725   1.866  -1.462  0.00  0.00    +0.040 A 
ATOM      7  C   LIG    1        6.468   2.428  -1.431  0.00  0.00    +0.040 A 
ATOM      8  C   LIG    1        5.460   1.831  -0.687  0.00  0.00    +0.040 A 
ATOM      9  N   LIG    1        4.132   2.133  -0.454  0.00  0.00    -0.580 N 
ATOM     10  H   LIG    1        3.643   2.890  -0.812  0.00  0.00    +0.430 HD
ATOM     11  C   LIG    1        3.637   1.171   0.370  0.00  0.00    +0.300 A 
ATOM     12  N   LIG    1        4.567   0.308   0.661  0.00  0.00    -0.480 NA
ATOM     13  C   LIG    1        5.722   0.653   0.034  0.00  0.00    +0.070 A 
ATOM     14  C   LIG    1        7.000   0.091  -0.004  0.00  0.00    +0.050 A 
BRANCH  11  15
ATOM     15  C   LIG    1        2.219   1.115   0.879  0.00  0.00    +0.260 C 
ATOM     16  C   LIG    1        1.570  -0.251   0.537  0.00  0.00    +0.050 C 
ATOM     17  C   LIG    1        0.062   0.099   0.535  0.00  0.00    +0.000 C 
ATOM     18  C   LIG    1        0.028   1.625   0.331  0.00  0.00    +0.210 C 
ATOM     19  O   LIG    1        1.388   2.067   0.181  0.00  0.00    -0.380 OA
ENDBRANCH  11  15
ENDBRANCH   2   5
BRANCH   1  20
ATOM     20  C   LIG    1       11.728   0.329  -1.049  0.00  0.00    +0.240 C 
BRANCH  20  21
ATOM     21  C   LIG    1       11.936  -0.064  -2.489  0.00  0.00    -0.170 A 
ATOM     22  C   LIG    1       12.661   0.757  -3.332  0.00  0.00    +0.100 A 
ATOM     23  C   LIG    1       12.856   0.396  -4.652  0.00  0.00    +0.000 A 
ATOM     24  C   LIG    1       12.316  -0.784  -5.134  0.00  0.00    +0.140 A 
ATOM     25  C   LIG    1       11.585  -1.605  -4.293  0.00  0.00    -0.040 A 
ATOM     26  F   LIG    1       12.503  -1.134  -6.425  0.00  0.00    -0.130 F 
ATOM     27  C   LIG    1       11.395  -1.245  -2.970  0.00  0.00    +0.140 A 
ATOM     28  F   LIG    1       10.681  -2.045  -2.147  0.00  0.00    -0.130 F 
ENDBRANCH  20  21
BRANCH  20  29
ATOM     29  N   LIG    1       12.748   1.312  -0.658  0.00  0.00    -0.820 NA
ATOM     30  H   LIG    1       12.690   2.140  -1.231  0.00  0.00    +0.360 HD
ATOM     31  H   LIG    1       13.672   0.909  -0.697  0.00  0.00    +0.360 HD
ENDBRANCH  20  29
ENDBRANCH   1  20
TORSDOF 5
