REMARK  Name = ZINCpk00000KfL2B.2
REMARK                            x       y       z     vdW  Elec       q    Type
REMARK                         _______ _______ _______ _____ _____    ______ ____
ROOT
ATOM      1  C   LIG    1       -5.470   1.605   4.335  0.00  0.00    +0.110 C 
ATOM      2  C   LIG    1       -5.398   2.219   5.758  0.00  0.00    +0.040 C 
ATOM      3  C   LIG    1       -6.892   2.218   6.173  0.00  0.00    +0.170 C 
ATOM      4  N   LIG    1       -7.631   2.539   4.934  0.00  0.00    -0.520 NA
ATOM      5  C   LIG    1       -6.796   2.163   3.778  0.00  0.00    +0.210 C 
ENDROOT
BRANCH   1   6
ATOM      6  N   LIG    1       -4.334   2.053   3.518  0.00  0.00    -0.520 NA
ATOM      7  C   LIG    1       -3.058   1.647   4.122  0.00  0.00    +0.200 C 
BRANCH   6   8
ATOM      8  C   LIG    1       -4.447   1.554   2.141  0.00  0.00    +0.310 C 
BRANCH   8  11
ATOM      9  C   LIG    1       -2.425   3.580  -0.015  0.00  0.00    +0.180 A 
ATOM     10  N   LIG    1       -3.567   3.374   0.595  0.00  0.00    -0.470 NA
ATOM     11  C   LIG    1       -3.412   2.225   1.277  0.00  0.00    +0.180 A 
ATOM     12  N   LIG    1       -2.202   1.804   1.057  0.00  0.00    -0.380 NA
ATOM     13  O   LIG    1       -1.619   2.568   0.318  0.00  0.00    +0.080 OA
BRANCH   9  15
ATOM     14  C   LIG    1       -1.501   5.881  -0.076  0.00  0.00    +0.060 C 
ATOM     15  C   LIG    1       -2.084   4.741  -0.914  0.00  0.00    +0.180 C 
ENDBRANCH   9  15
ENDBRANCH   8  11
ENDBRANCH   6   8
ENDBRANCH   1   6
BRANCH   4  16
ATOM     16  C   LIG    1       -8.925   1.844   4.897  0.00  0.00    +0.230 C 
BRANCH  16  17
ATOM     17  C   LIG    1       -9.647   2.057   6.203  0.00  0.00    -0.090 A 
ATOM     18  C   LIG    1       -9.465   1.166   7.245  0.00  0.00    +0.030 A 
ATOM     19  C   LIG    1      -10.120   1.357   8.449  0.00  0.00    +0.000 A 
ATOM     20  C   LIG    1      -10.968   2.433   8.613  0.00  0.00    +0.050 A 
ATOM     21  C   LIG    1      -11.160   3.333   7.564  0.00  0.00    -0.140 A 
ATOM     22  C   LIG    1      -10.492   3.138   6.354  0.00  0.00    +0.100 A 
BRANCH  21  23
ATOM     23  C   LIG    1      -12.067   4.488   7.732  0.00  0.00    +0.560 C 
ATOM     24  O   LIG    1      -12.232   5.270   6.816  0.00  0.00    -0.540 OA
ATOM     25  N   LIG    1      -12.711   4.674   8.902  0.00  0.00    -0.850 N 
ATOM     26  H   LIG    1      -13.306   5.432   9.013  0.00  0.00    +0.410 HD
ATOM     27  H   LIG    1      -12.579   4.051   9.633  0.00  0.00    +0.400 HD
ENDBRANCH  21  23
ENDBRANCH  16  17
ENDBRANCH   4  16
TORSDOF 7
