REMARK  Name = ZINCvU0000000Hqi.0
REMARK                            x       y       z     vdW  Elec       q    Type
REMARK                         _______ _______ _______ _____ _____    ______ ____
ROOT
ATOM      1  C   LIG    1        5.303   9.120   0.000  0.00  0.00    -0.170 A 
ATOM      2  C   LIG    1        5.038   7.777  -0.004  0.00  0.00    +0.040 A 
ATOM      3  S   LIG    1        6.480   6.870  -0.014  0.00  0.00    +0.340 S 
ATOM      4  C   LIG    1        7.483   8.309  -0.022  0.00  0.00    -0.080 A 
ATOM      5  C   LIG    1        6.727   9.413  -0.010  0.00  0.00    -0.010 A 
ENDROOT
BRANCH   5   6
ATOM      6  C   LIG    1        7.282  10.788  -0.007  0.00  0.00    -0.030 A 
ATOM      7  C   LIG    1        8.007  11.252  -1.103  0.00  0.00    +0.050 A 
ATOM      8  C   LIG    1        8.521  12.533  -1.095  0.00  0.00    +0.010 A 
ATOM      9  C   LIG    1        8.318  13.356  -0.002  0.00  0.00    +0.030 A 
ATOM     10  C   LIG    1        7.600  12.902   1.089  0.00  0.00    +0.030 A 
ATOM     11  C   LIG    1        7.076  11.624   1.091  0.00  0.00    -0.020 A 
ATOM     12 CL   LIG    1        6.168  11.058   2.458  0.00  0.00    -0.040 Cl
ENDBRANCH   5   6
BRANCH   2  13
ATOM     13  N   LIG    1        3.765   7.228   0.005  0.00  0.00    -0.630 N 
ATOM     14  H   LIG    1        2.987   7.807   0.015  0.00  0.00    +0.420 HD
ATOM     15  C   LIG    1        3.609   5.889  -0.001  0.00  0.00    +0.510 C 
ATOM     16  O   LIG    1        4.582   5.165  -0.013  0.00  0.00    -0.460 OA
BRANCH  15  17
ATOM     17  C   LIG    1        2.225   5.292   0.009  0.00  0.00    +0.260 C 
BRANCH  17  18
ATOM     18  O   LIG    1        2.321   3.867   0.001  0.00  0.00    -0.260 OA
BRANCH  18  19
ATOM     19  C   LIG    1        1.155   3.169   0.008  0.00  0.00    +0.190 A 
ATOM     20  C   LIG    1       -0.057   3.844   0.022  0.00  0.00    -0.070 A 
ATOM     21  C   LIG    1       -1.242   3.132   0.030  0.00  0.00    +0.130 A 
ATOM     22  C   LIG    1       -1.220   1.750   0.017  0.00  0.00    +0.000 A 
ATOM     23  C   LIG    1       -0.013   1.076   0.008  0.00  0.00    +0.140 A 
ATOM     24  C   LIG    1        1.174   1.782   0.000  0.00  0.00    -0.070 A 
BRANCH  24  25
ATOM     25  N   LIG    1        2.466   1.060  -0.016  0.00  0.00    +0.030 N 
ATOM     26  O   LIG    1        3.512   1.683  -0.022  0.00  0.00    -0.120 OA
ATOM     27  O   LIG    1        2.483  -0.158  -0.022  0.00  0.00    -0.180 OA
ENDBRANCH  24  25
ENDBRANCH  18  19
ENDBRANCH  17  18
ENDBRANCH  15  17
ENDBRANCH   2  13
BRANCH   1  28
ATOM     28  C   LIG    1        4.265  10.151   0.014  0.00  0.00    +0.530 C 
ATOM     29  O   LIG    1        3.842  10.574   1.073  0.00  0.00    -0.470 OA
BRANCH  28  30
ATOM     30  O   LIG    1        3.776  10.631  -1.148  0.00  0.00    -0.350 OA
BRANCH  30  32
ATOM     31  C   LIG    1        2.321  12.070  -2.468  0.00  0.00    +0.070 C 
ATOM     32  C   LIG    1        2.748  11.652  -1.059  0.00  0.00    +0.200 C 
ENDBRANCH  30  32
ENDBRANCH  28  30
ENDBRANCH   1  28
TORSDOF 9
