REMARK  Name = ZINCrD000000fIHj.0
REMARK                            x       y       z     vdW  Elec       q    Type
REMARK                         _______ _______ _______ _____ _____    ______ ____
ROOT
ATOM      1  C   LIG    1        3.995  -0.109  -6.053  0.00  0.00    +0.090 C 
ENDROOT
BRANCH   1   2
ATOM      2  C   LIG    1        4.260  -0.926  -7.292  0.00  0.00    +0.420 C 
ATOM      3  O   LIG    1        3.849  -2.064  -7.367  0.00  0.00    -0.440 OA
BRANCH   2   7
ATOM      4  C   LIG    1        6.439   0.755 -10.512  0.00  0.00    +0.190 A 
ATOM      5  C   LIG    1        5.968  -0.552 -10.600  0.00  0.00    +0.000 A 
ATOM      6  C   LIG    1        5.263  -1.100  -9.560  0.00  0.00    +0.110 A 
ATOM      7  C   LIG    1        5.016  -0.343  -8.408  0.00  0.00    -0.190 A 
ATOM      8  C   LIG    1        5.486   0.974  -8.326  0.00  0.00    +0.090 A 
ATOM      9  C   LIG    1        6.196   1.512  -9.369  0.00  0.00    -0.020 A 
BRANCH   4  12
ATOM     10  C   LIG    1        7.708   1.465 -13.977  0.00  0.00    +0.110 C 
ATOM     11  C   LIG    1        6.859   0.961 -12.839  0.00  0.00    +0.510 C 
ATOM     12  N   LIG    1        7.155   1.308 -11.571  0.00  0.00    -0.680 N 
ATOM     13  H   LIG    1        7.866   1.944 -11.396  0.00  0.00    +0.420 HD
ATOM     14  O   LIG    1        5.909   0.241 -13.065  0.00  0.00    -0.520 OA
ENDBRANCH   4  12
ENDBRANCH   2   7
ENDBRANCH   1   2
BRANCH   1  15
ATOM     15  S   LIG    1        3.049  -1.098  -4.869  0.00  0.00    +0.060 S 
BRANCH  15  16
ATOM     16  C   LIG    1        2.886   0.068  -3.558  0.00  0.00    +0.140 A 
ATOM     17  N   LIG    1        3.358   1.292  -3.539  0.00  0.00    -0.290 NA
ATOM     18  N   LIG    1        3.056   1.860  -2.427  0.00  0.00    -0.280 NA
ATOM     19  C   LIG    1        2.378   1.039  -1.675  0.00  0.00    +0.190 A 
ATOM     20  N   LIG    1        2.250  -0.134  -2.367  0.00  0.00    -0.460 N 
ATOM     21  C   LIG    1        1.570  -1.353  -1.923  0.00  0.00    +0.360 C 
BRANCH  19  22
ATOM     22  C   LIG    1        1.841   1.327  -0.297  0.00  0.00    +0.210 C 
BRANCH  22  23
ATOM     23  C   LIG    1        0.451   1.898  -0.409  0.00  0.00    -0.090 A 
ATOM     24  C   LIG    1       -0.645   1.055  -0.409  0.00  0.00    +0.010 A 
ATOM     25  C   LIG    1       -1.920   1.579  -0.517  0.00  0.00    +0.000 A 
ATOM     26  C   LIG    1       -2.099   2.946  -0.616  0.00  0.00    +0.000 A 
ATOM     27  C   LIG    1       -1.004   3.789  -0.616  0.00  0.00    +0.010 A 
ATOM     28  C   LIG    1        0.271   3.265  -0.513  0.00  0.00    +0.030 A 
ENDBRANCH  22  23
ENDBRANCH  19  22
ENDBRANCH  15  16
ENDBRANCH   1  15
TORSDOF 7
