REMARK  Name = ZINCnE000004wv69.0
REMARK                            x       y       z     vdW  Elec       q    Type
REMARK                         _______ _______ _______ _____ _____    ______ ____
ROOT
ATOM      1  S   LIG    1        1.216   8.035   0.034  0.00  0.00    +2.610 S 
ATOM      2  O   LIG    1        0.553   8.072   1.290  0.00  0.00    -1.010 OA
ATOM      3  O   LIG    1        0.529   8.086  -1.209  0.00  0.00    -1.010 OA
ENDROOT
BRANCH   1   7
ATOM      4  C   LIG    1        4.136  11.501   0.023  0.00  0.00    +0.010 A 
ATOM      5  C   LIG    1        3.672  10.970  -1.183  0.00  0.00    +0.070 A 
ATOM      6  C   LIG    1        2.783   9.915  -1.171  0.00  0.00    +0.140 A 
ATOM      7  C   LIG    1        2.351   9.382   0.030  0.00  0.00    -0.580 A 
ATOM      8  C   LIG    1        2.802   9.906   1.229  0.00  0.00    +0.150 A 
ATOM      9  C   LIG    1        3.695  10.959   1.233  0.00  0.00    -0.020 A 
ATOM     10 CL   LIG    1        4.265  11.610   2.738  0.00  0.00    -0.050 Cl
BRANCH   4  12
ATOM     11  N   LIG    1        5.789  13.466   0.015  0.00  0.00    -0.400 NA
ATOM     12  C   LIG    1        5.058  12.597   0.019  0.00  0.00    +0.260 C 
ENDBRANCH   4  12
ENDBRANCH   1   7
BRANCH   1  13
ATOM     13  N   LIG    1        2.109   6.641   0.018  0.00  0.00    -1.040 NA
BRANCH  13  14
ATOM     14  C   LIG    1        1.467   5.398   0.017  0.00  0.00    +0.410 A 
ATOM     15  N   LIG    1        0.162   5.209   0.029  0.00  0.00    -0.420 NA
ATOM     16  N   LIG    1       -0.097   3.833   0.024  0.00  0.00    -0.280 N 
ATOM     17  C   LIG    1       -1.259   3.116   0.031  0.00  0.00    +0.340 A 
ATOM     18  C   LIG    1       -1.236   1.766   0.018  0.00  0.00    -0.190 A 
ATOM     19  C   LIG    1       -0.013   1.076   0.008  0.00  0.00    +0.070 A 
ATOM     20  C   LIG    1        1.154   1.776   0.001  0.00  0.00    +0.020 A 
ATOM     21 BR   LIG    1       -2.861   0.799   0.020  0.00  0.00    -0.040 Br
ATOM     22  C   LIG    1        1.111   3.184   0.009  0.00  0.00    +0.090 A 
ATOM     23  C   LIG    1        2.100   4.159   0.004  0.00  0.00    -0.120 A 
ENDBRANCH  13  14
ENDBRANCH   1  13
TORSDOF 4
