REMARK  Name = ZINCvU0000000Haa.0
REMARK                            x       y       z     vdW  Elec       q    Type
REMARK                         _______ _______ _______ _____ _____    ______ ____
ROOT
ATOM      1  C   LIG    1        0.960   1.794  -0.585  0.00  0.00    +0.120 A 
ATOM      2  C   LIG    1       -0.235   1.095  -0.607  0.00  0.00    -0.040 A 
ATOM      3  C   LIG    1       -1.383   1.668  -0.074  0.00  0.00    +0.170 A 
ATOM      4  C   LIG    1       -1.334   2.945   0.470  0.00  0.00    -0.030 A 
ATOM      5  C   LIG    1       -0.142   3.643   0.493  0.00  0.00    +0.090 A 
ATOM      6  C   LIG    1        1.007   3.072  -0.033  0.00  0.00    +0.100 A 
ENDROOT
BRANCH   3   7
ATOM      7  N   LIG    1       -2.591   0.960  -0.090  0.00  0.00    -0.670 N 
ATOM      8  H   LIG    1       -3.428   1.433  -0.217  0.00  0.00    +0.410 HD
ATOM      9  C   LIG    1       -2.590  -0.378   0.070  0.00  0.00    +0.580 C 
ATOM     10  O   LIG    1       -1.552  -0.959   0.326  0.00  0.00    -0.510 OA
BRANCH   9  11
ATOM     11  C   LIG    1       -3.844  -1.136  -0.066  0.00  0.00    -0.150 A 
ATOM     12  C   LIG    1       -5.037  -0.554  -0.345  0.00  0.00    -0.050 A 
ATOM     13  S   LIG    1       -6.274  -1.721  -0.435  0.00  0.00    +0.200 S 
ATOM     14  C   LIG    1       -5.168  -3.038  -0.078  0.00  0.00    -0.200 A 
ATOM     15  C   LIG    1       -5.559  -4.499   0.025  0.00  0.00    +0.120 C 
ATOM     16  C   LIG    1       -4.293  -5.354  -0.070  0.00  0.00    -0.060 C 
ATOM     17  C   LIG    1       -3.736  -5.289  -1.494  0.00  0.00    +0.030 C 
ATOM     18  C   LIG    1       -4.627  -6.805   0.283  0.00  0.00    +0.040 C 
ATOM     19  C   LIG    1       -3.251  -4.815   0.915  0.00  0.00    +0.030 C 
ATOM     20  C   LIG    1       -2.733  -3.466   0.412  0.00  0.00    +0.120 C 
ATOM     21  C   LIG    1       -3.922  -2.575   0.091  0.00  0.00    -0.050 A 
ENDBRANCH   9  11
ENDBRANCH   3   7
BRANCH   6  22
ATOM     22  N   LIG    1        2.216   3.782  -0.010  0.00  0.00    -0.650 N 
ATOM     23  H   LIG    1        2.905   3.587  -0.665  0.00  0.00    +0.410 HD
ATOM     24  C   LIG    1        2.421   4.734   0.921  0.00  0.00    +0.570 C 
ATOM     25  O   LIG    1        1.531   5.030   1.694  0.00  0.00    -0.520 OA
BRANCH  24  26
ATOM     26  C   LIG    1        3.729   5.419   1.003  0.00  0.00    -0.190 A 
ATOM     27  C   LIG    1        3.953   6.414   1.962  0.00  0.00    +0.140 A 
ATOM     28  C   LIG    1        5.196   7.020   2.000  0.00  0.00    -0.030 A 
ATOM     29  C   LIG    1        6.164   6.636   1.090  0.00  0.00    +0.290 A 
ATOM     30  N   LIG    1        5.923   5.699   0.193  0.00  0.00    -0.490 NA
ATOM     31  C   LIG    1        4.759   5.089   0.121  0.00  0.00    +0.300 A 
ENDBRANCH  24  26
ENDBRANCH   6  22
BRANCH   1  33
ATOM     32  C   LIG    1        1.962  -0.081  -1.651  0.00  0.00    +0.250 C 
ATOM     33  O   LIG    1        2.085   1.232  -1.102  0.00  0.00    -0.320 OA
ENDBRANCH   1  33
TORSDOF 5
