REMARK  Name = ZINCkj000005mfI3.1
REMARK                            x       y       z     vdW  Elec       q    Type
REMARK                         _______ _______ _______ _____ _____    ______ ____
ROOT
ATOM      1  O   LIG    1        4.485   5.796  -1.146  0.00  0.00    -0.930 OA
ATOM      2  S   LIG    1        4.825   4.425  -0.987  0.00  0.00    +2.700 S 
ATOM      3  O   LIG    1        5.337   3.887   0.225  0.00  0.00    -0.930 OA
ENDROOT
BRANCH   2   4
ATOM      4  C   LIG    1        6.013   4.059  -2.235  0.00  0.00    -0.790 A 
ATOM      5  C   LIG    1        6.892   3.003  -2.066  0.00  0.00    +0.260 A 
ATOM      6  C   LIG    1        7.822   2.712  -3.049  0.00  0.00    -0.050 A 
ATOM      7  C   LIG    1        7.880   3.483  -4.197  0.00  0.00    +0.230 A 
ATOM      8  C   LIG    1        7.005   4.543  -4.364  0.00  0.00    -0.050 A 
ATOM      9  F   LIG    1        8.790   3.202  -5.155  0.00  0.00    -0.100 F 
ATOM     10  F   LIG    1        6.838   2.253  -0.943  0.00  0.00    -0.090 F 
ATOM     11  C   LIG    1        6.071   4.831  -3.383  0.00  0.00    +0.260 A 
ATOM     12  F   LIG    1        5.217   5.865  -3.546  0.00  0.00    -0.090 F 
ENDBRANCH   2   4
BRANCH   2  13
ATOM     13  N   LIG    1        3.458   3.561  -1.342  0.00  0.00    -1.120 NA
ATOM     14  H   LIG    1        2.638   4.024  -1.577  0.00  0.00    +0.420 HD
BRANCH  13  15
ATOM     15  C   LIG    1        3.486   2.097  -1.302  0.00  0.00    +0.310 C 
BRANCH  15  16
ATOM     16  C   LIG    1        2.054   1.559  -1.295  0.00  0.00    +0.000 C 
ATOM     17  C   LIG    1        2.081   0.030  -1.379  0.00  0.00    +0.050 C 
ATOM     18  C   LIG    1        0.648  -0.502  -1.293  0.00  0.00    +0.060 C 
ATOM     19  C   LIG    1        0.002  -0.004   0.002  0.00  0.00    +0.250 C 
ATOM     20  N   LIG    1       -0.018   1.464   0.010  0.00  0.00    -0.500 N 
ATOM     21  H   LIG    1       -0.492   1.788   0.840  0.00  0.00    +0.430 HD
ATOM     22  H   LIG    1       -0.508   1.797  -0.807  0.00  0.00    +0.430 HD
ATOM     23  C   LIG    1        1.356   1.980  -0.000  0.00  0.00    +0.260 C 
ENDBRANCH  15  16
ENDBRANCH  13  15
ENDBRANCH   2  13
TORSDOF 4
