REMARK  Name = ZINCrH000004tjkF.0
REMARK                            x       y       z     vdW  Elec       q    Type
REMARK                         _______ _______ _______ _____ _____    ______ ____
ROOT
ATOM      1  N   LIG    1        0.908  -0.491   1.046  0.00  0.00    -0.710 N 
ATOM      2  H   LIG    1        1.381   0.140   1.610  0.00  0.00    +0.410 HD
ATOM      3  C   LIG    1        1.083  -1.816   1.222  0.00  0.00    +0.560 C 
ATOM      4  O   LIG    1        0.490  -2.606   0.514  0.00  0.00    -0.520 OA
ENDROOT
BRANCH   3   5
ATOM      5  C   LIG    1        1.998  -2.308   2.276  0.00  0.00    -0.120 A 
ATOM      6  C   LIG    1        2.683  -1.399   3.084  0.00  0.00    +0.040 A 
ATOM      7  C   LIG    1        3.522  -1.853   4.080  0.00  0.00    +0.050 A 
ATOM      8  C   LIG    1        3.689  -3.227   4.272  0.00  0.00    -0.120 A 
ATOM      9  C   LIG    1        4.550  -3.730   5.360  0.00  0.00    +0.410 C 
ATOM     10  C   LIG    1        3.879  -4.476   6.497  0.00  0.00    +0.030 C 
ATOM     11  C   LIG    1        3.627  -5.908   6.099  0.00  0.00    +0.040 C 
ATOM     12  C   LIG    1        2.646  -6.072   4.948  0.00  0.00    +0.030 C 
ATOM     13  C   LIG    1        3.257  -5.622   3.626  0.00  0.00    +0.080 C 
ATOM     14  O   LIG    1        5.749  -3.553   5.345  0.00  0.00    -0.430 OA
ATOM     15  C   LIG    1        3.023  -4.132   3.446  0.00  0.00    -0.060 A 
ATOM     16  C   LIG    1        2.179  -3.681   2.458  0.00  0.00    +0.080 A 
ENDBRANCH   3   5
BRANCH   1  17
ATOM     17  C   LIG    1        0.002  -0.004   0.002  0.00  0.00    +0.290 C 
ATOM     18  C   LIG    1       -0.019   1.529   0.010  0.00  0.00    +0.070 C 
ATOM     19  C   LIG    1        1.424   2.030  -0.001  0.00  0.00    +0.090 C 
ATOM     20  C   LIG    1        2.204   1.374  -1.109  0.00  0.00    -0.080 A 
ATOM     21  C   LIG    1        3.398   1.968  -1.499  0.00  0.00    +0.000 A 
ATOM     22  C   LIG    1        4.165   1.408  -2.501  0.00  0.00    +0.000 A 
ATOM     23  C   LIG    1        3.742   0.248  -3.122  0.00  0.00    +0.000 A 
ATOM     24  C   LIG    1        2.555  -0.341  -2.738  0.00  0.00    +0.010 A 
ATOM     25  C   LIG    1        1.781   0.221  -1.732  0.00  0.00    -0.070 A 
ATOM     26  C   LIG    1        0.494  -0.472  -1.366  0.00  0.00    +0.120 C 
BRANCH  17  28
ATOM     27  N   LIG    1       -2.403  -0.917   0.430  0.00  0.00    -0.400 NA
ATOM     28  C   LIG    1       -1.355  -0.520   0.243  0.00  0.00    +0.200 C 
ENDBRANCH  17  28
ENDBRANCH   1  17
TORSDOF 3
