REMARK  Name = ZINCqH000000758u.0
REMARK                            x       y       z     vdW  Elec       q    Type
REMARK                         _______ _______ _______ _____ _____    ______ ____
ROOT
ATOM      1  C   LIG    1        1.009  -2.984  -1.139  0.00  0.00    +0.520 C 
ATOM      2  N   LIG    1        0.650  -3.678  -2.237  0.00  0.00    -0.680 N 
ATOM      3  H   LIG    1       -0.203  -4.138  -2.262  0.00  0.00    +0.410 HD
ATOM      4  O   LIG    1        2.108  -2.476  -1.074  0.00  0.00    -0.510 OA
ENDROOT
BRANCH   2   5
ATOM      5  C   LIG    1        1.509  -3.733  -3.340  0.00  0.00    +0.150 A 
ATOM      6  C   LIG    1        2.884  -3.757  -3.151  0.00  0.00    +0.020 A 
ATOM      7  C   LIG    1        3.729  -3.812  -4.243  0.00  0.00    +0.030 A 
ATOM      8  C   LIG    1        3.206  -3.843  -5.522  0.00  0.00    -0.010 A 
ATOM      9  C   LIG    1        1.837  -3.820  -5.714  0.00  0.00    +0.030 A 
ATOM     10  C   LIG    1        0.987  -3.771  -4.627  0.00  0.00    -0.140 A 
BRANCH  10  11
ATOM     11  C   LIG    1       -0.506  -3.752  -4.837  0.00  0.00    +0.250 C 
BRANCH  11  12
ATOM     12  C   LIG    1       -1.054  -5.176  -4.731  0.00  0.00    -0.050 C 
ATOM     13  C   LIG    1       -0.400  -6.055  -5.799  0.00  0.00    +0.020 C 
ATOM     14  C   LIG    1       -2.569  -5.157  -4.944  0.00  0.00    +0.030 C 
ENDBRANCH  11  12
BRANCH  11  15
ATOM     15  O   LIG    1       -0.798  -3.224  -6.132  0.00  0.00    -0.550 OA
ATOM     16  H   LIG    1       -0.414  -3.732  -6.859  0.00  0.00    +0.370 HD
ENDBRANCH  11  15
ENDBRANCH  10  11
ENDBRANCH   2   5
BRANCH   1  17
ATOM     17  C   LIG    1        0.043  -2.839   0.010  0.00  0.00    +0.130 C 
BRANCH  17  23
ATOM     18  C   LIG    1        0.629  -0.635   1.057  0.00  0.00    +0.180 A 
ATOM     19  C   LIG    1        1.213   0.123   2.066  0.00  0.00    -0.080 A 
ATOM     20  C   LIG    1        1.852  -0.501   3.114  0.00  0.00    +0.110 A 
ATOM     21  C   LIG    1        1.910  -1.899   3.158  0.00  0.00    -0.210 A 
ATOM     22  C   LIG    1        1.319  -2.653   2.137  0.00  0.00    +0.130 A 
ATOM     23  C   LIG    1        0.683  -2.025   1.104  0.00  0.00    -0.120 A 
BRANCH  21  24
ATOM     24  C   LIG    1        2.590  -2.573   4.272  0.00  0.00    +0.400 C 
ATOM     25  O   LIG    1        2.640  -3.784   4.309  0.00  0.00    -0.460 OA
ATOM     26  C   LIG    1        3.226  -1.759   5.370  0.00  0.00    +0.080 C 
ENDBRANCH  21  24
BRANCH  18  28
ATOM     27  C   LIG    1       -0.023   1.410   0.041  0.00  0.00    +0.240 C 
ATOM     28  O   LIG    1        0.000  -0.019   0.025  0.00  0.00    -0.310 OA
ENDBRANCH  18  28
ENDBRANCH  17  23
ENDBRANCH   1  17
TORSDOF 8
