REMARK  Name = ZINCpe000000YnPT.0
REMARK                            x       y       z     vdW  Elec       q    Type
REMARK                         _______ _______ _______ _____ _____    ______ ____
ROOT
ATOM      1  C   LIG    1        1.139   4.381  -1.345  0.00  0.00    +0.630 C 
ATOM      2  N   LIG    1        0.828   3.123  -0.975  0.00  0.00    -0.640 N 
ATOM      3  C   LIG    1        1.382   2.165   0.001  0.00  0.00    +0.300 C 
ATOM      4  C   LIG    1       -0.019   1.526   0.010  0.00  0.00    +0.000 C 
ATOM      5  C   LIG    1       -0.204   2.151  -1.384  0.00  0.00    +0.300 C 
ATOM      6  O   LIG    1        2.073   4.956  -0.819  0.00  0.00    -0.500 OA
ENDROOT
BRANCH   1  10
ATOM      7  C   LIG    1       -2.304   5.157  -4.763  0.00  0.00    +0.380 C 
ATOM      8  N   LIG    1       -1.158   5.413  -3.887  0.00  0.00    -0.240 N 
ATOM      9  N   LIG    1       -0.683   4.566  -3.046  0.00  0.00    -0.190 NA
ATOM     10  C   LIG    1        0.348   5.061  -2.386  0.00  0.00    +0.010 A 
ATOM     11  C   LIG    1        0.553   6.415  -2.898  0.00  0.00    +0.120 A 
ATOM     12  N   LIG    1        1.414   7.415  -2.653  0.00  0.00    -0.470 NA
ATOM     13  C   LIG    1        1.334   8.544  -3.299  0.00  0.00    +0.580 A 
ATOM     14  N   LIG    1        0.386   8.768  -4.245  0.00  0.00    -0.640 N 
ATOM     15  H   LIG    1        0.358   9.621  -4.705  0.00  0.00    +0.430 HD
ATOM     16  C   LIG    1       -0.520   7.812  -4.552  0.00  0.00    +0.570 A 
ATOM     17  O   LIG    1       -1.373   8.007  -5.401  0.00  0.00    -0.520 OA
ATOM     18  C   LIG    1       -0.450   6.579  -3.862  0.00  0.00    -0.110 A 
ENDBRANCH   1  10
BRANCH   4  19
ATOM     19  C   LIG    1        0.002  -0.004   0.002  0.00  0.00    +0.210 C 
BRANCH  19  20
ATOM     20  O   LIG    1       -1.332  -0.499   0.130  0.00  0.00    -0.310 OA
BRANCH  20  21
ATOM     21  C   LIG    1       -1.491  -1.849   0.139  0.00  0.00    +0.130 A 
ATOM     22  C   LIG    1       -0.386  -2.679   0.023  0.00  0.00    -0.080 A 
ATOM     23  C   LIG    1       -0.550  -4.051   0.038  0.00  0.00    +0.040 A 
ATOM     24  C   LIG    1       -1.815  -4.596   0.159  0.00  0.00    -0.040 A 
ATOM     25  C   LIG    1       -2.918  -3.771   0.270  0.00  0.00    +0.050 A 
ATOM     26  C   LIG    1       -2.759  -2.398   0.260  0.00  0.00    -0.020 A 
ENDBRANCH  20  21
ENDBRANCH  19  20
ENDBRANCH   4  19
TORSDOF 4
