REMARK  Name = ZINCrH000004uFdk.0
REMARK                            x       y       z     vdW  Elec       q    Type
REMARK                         _______ _______ _______ _____ _____    ______ ____
ROOT
ATOM      1  C   LIG    1        5.840   2.840  -3.064  0.00  0.00    +0.180 C 
ATOM      2  C   LIG    1        6.588   1.507  -3.270  0.00  0.00    +0.050 C 
ATOM      3  C   LIG    1        7.741   1.865  -4.241  0.00  0.00    +0.020 C 
ATOM      4  C   LIG    1        8.173   3.271  -3.756  0.00  0.00    +0.020 C 
ATOM      5  C   LIG    1        6.848   3.962  -3.372  0.00  0.00    +0.040 C 
ENDROOT
BRANCH   1   8
ATOM      6  O   LIG    1        3.747   1.137  -3.067  0.00  0.00    -0.570 OA
ATOM      7  C   LIG    1        3.680   2.050  -3.867  0.00  0.00    +0.700 C 
ATOM      8  N   LIG    1        4.700   2.924  -3.979  0.00  0.00    -0.740 N 
ATOM      9  H   LIG    1        4.678   3.609  -4.666  0.00  0.00    +0.400 HD
ATOM     10  N   LIG    1        2.586   2.188  -4.642  0.00  0.00    -0.740 N 
ATOM     11  H   LIG    1        2.533   2.916  -5.280  0.00  0.00    +0.400 HD
BRANCH  10  12
ATOM     12  C   LIG    1        1.478   1.237  -4.520  0.00  0.00    +0.320 C 
BRANCH  12  13
ATOM     13  C   LIG    1        0.387   1.611  -5.490  0.00  0.00    -0.110 A 
ATOM     14  C   LIG    1       -0.621   2.473  -5.098  0.00  0.00    +0.020 A 
ATOM     15  C   LIG    1       -1.619   2.820  -5.989  0.00  0.00    +0.000 A 
ATOM     16  C   LIG    1       -1.616   2.298  -7.269  0.00  0.00    +0.010 A 
ATOM     17  C   LIG    1       -0.611   1.431  -7.659  0.00  0.00    +0.000 A 
ATOM     18  C   LIG    1        0.390   1.089  -6.770  0.00  0.00    +0.020 A 
ENDBRANCH  12  13
ENDBRANCH  10  12
ENDBRANCH   1   8
BRANCH   1  19
ATOM     19  C   LIG    1        5.366   2.950  -1.637  0.00  0.00    +0.530 C 
ATOM     20  N   LIG    1        4.346   3.775  -1.328  0.00  0.00    -0.720 N 
ATOM     21  H   LIG    1        3.965   4.351  -2.009  0.00  0.00    +0.400 HD
ATOM     22  O   LIG    1        5.903   2.297  -0.768  0.00  0.00    -0.530 OA
BRANCH  20  23
ATOM     23  C   LIG    1        3.813   3.802   0.036  0.00  0.00    +0.320 C 
BRANCH  23  24
ATOM     24  C   LIG    1        2.688   4.800   0.117  0.00  0.00    -0.100 A 
ATOM     25  C   LIG    1        2.916   6.059   0.639  0.00  0.00    +0.040 A 
ATOM     26  C   LIG    1        1.883   6.975   0.714  0.00  0.00    +0.010 A 
ATOM     27  C   LIG    1        0.621   6.632   0.265  0.00  0.00    +0.030 A 
ATOM     28  C   LIG    1        0.392   5.373  -0.259  0.00  0.00    +0.020 A 
ATOM     29  C   LIG    1        1.425   4.457  -0.333  0.00  0.00    -0.020 A 
ATOM     30 CL   LIG    1        1.137   2.876  -0.991  0.00  0.00    -0.050 Cl
ENDBRANCH  23  24
ENDBRANCH  20  23
ENDBRANCH   1  19
TORSDOF 6
