REMARK  Name = ZINCpk000000mUdw.0
REMARK                            x       y       z     vdW  Elec       q    Type
REMARK                         _______ _______ _______ _____ _____    ______ ____
ROOT
ATOM      1  C   LIG    1       -2.449   0.876  -0.093  0.00  0.00    -0.280 A 
ATOM      2  C   LIG    1       -3.666   1.548  -0.189  0.00  0.00    +0.220 A 
ATOM      3  C   LIG    1       -4.842   0.805  -0.291  0.00  0.00    -0.080 A 
ATOM      4  C   LIG    1       -4.792  -0.551  -0.297  0.00  0.00    +0.340 A 
ATOM      5  N   LIG    1       -3.613  -1.211  -0.204  0.00  0.00    -0.480 N 
ATOM      6  C   LIG    1       -2.449  -0.543  -0.108  0.00  0.00    +0.540 A 
ATOM      7  O   LIG    1       -1.397  -1.155  -0.030  0.00  0.00    -0.550 OA
ENDROOT
BRANCH   1  10
ATOM      8  N   LIG    1       -0.011   0.967  -0.009  0.00  0.00    -0.720 N 
ATOM      9  H   LIG    1        0.004  -0.003  -0.028  0.00  0.00    +0.420 HD
ATOM     10  C   LIG    1       -1.187   1.624   0.017  0.00  0.00    +0.580 C 
ATOM     11  O   LIG    1       -1.206   2.835   0.130  0.00  0.00    -0.550 OA
BRANCH   8  12
ATOM     12  C   LIG    1        1.247   1.718  -0.013  0.00  0.00    +0.260 C 
BRANCH  12  13
ATOM     13  C   LIG    1        2.424   0.742  -0.050  0.00  0.00    +0.020 C 
BRANCH  13  14
ATOM     14  C   LIG    1        3.738   1.526  -0.054  0.00  0.00    +0.260 C 
BRANCH  14  17
ATOM     15  C   LIG    1        7.288   0.096  -0.136  0.00  0.00    +0.110 C 
ATOM     16  C   LIG    1        6.129   1.058  -0.099  0.00  0.00    +0.510 C 
ATOM     17  N   LIG    1        4.865   0.591  -0.089  0.00  0.00    -0.730 N 
ATOM     18  H   LIG    1        4.702  -0.365  -0.106  0.00  0.00    +0.400 HD
ATOM     19  O   LIG    1        6.333   2.254  -0.078  0.00  0.00    -0.550 OA
ENDBRANCH  14  17
ENDBRANCH  13  14
ENDBRANCH  12  13
ENDBRANCH   8  12
ENDBRANCH   1  10
BRANCH   5  20
ATOM     20  C   LIG    1       -3.605  -2.676  -0.213  0.00  0.00    +0.340 C 
BRANCH  20  21
ATOM     21  C   LIG    1       -3.485  -3.168  -1.633  0.00  0.00    -0.120 A 
ATOM     22  C   LIG    1       -2.236  -3.388  -2.185  0.00  0.00    +0.040 A 
ATOM     23  C   LIG    1       -2.126  -3.840  -3.487  0.00  0.00    +0.010 A 
ATOM     24  C   LIG    1       -3.264  -4.072  -4.236  0.00  0.00    +0.010 A 
ATOM     25  C   LIG    1       -4.512  -3.853  -3.684  0.00  0.00    -0.090 A 
ATOM     26  C   LIG    1       -5.753  -4.106  -4.502  0.00  0.00    +0.090 C 
ATOM     27  C   LIG    1       -4.623  -3.406  -2.381  0.00  0.00    +0.020 A 
ENDBRANCH  20  21
ENDBRANCH   5  20
TORSDOF 7
