REMARK  Name = ZINCrg00001JduSt.0
REMARK                            x       y       z     vdW  Elec       q    Type
REMARK                         _______ _______ _______ _____ _____    ______ ____
ROOT
ATOM      1  C   LIG    1       -0.667   6.142  -0.117  0.00  0.00    +0.080 C 
ATOM      2  C   LIG    1       -0.468   7.579   0.397  0.00  0.00    +0.310 C 
ATOM      3  N   LIG    1       -1.394   7.984  -0.678  0.00  0.00    -0.640 N 
ATOM      4  C   LIG    1       -1.601   9.124  -1.367  0.00  0.00    +0.520 C 
ATOM      5  O   LIG    1       -2.399   9.145  -2.280  0.00  0.00    -0.510 OA
ATOM      6  C   LIG    1       -2.003   6.640  -0.696  0.00  0.00    +0.310 C 
ENDROOT
BRANCH   1  14
ATOM      7  C   LIG    1        1.335   0.944  -0.727  0.00  0.00    +0.040 C 
ATOM      8  C   LIG    1        0.351   1.663   0.198  0.00  0.00    -0.020 C 
ATOM      9  C   LIG    1        0.721   1.378   1.657  0.00  0.00    +0.040 C 
ATOM     10  C   LIG    1       -0.394   1.897   2.574  0.00  0.00    +0.160 C 
ATOM     11  C   LIG    1       -0.723   3.309   2.159  0.00  0.00    +0.180 A 
ATOM     12  N   LIG    1       -1.385   4.212   2.817  0.00  0.00    -0.290 NA
ATOM     13  N   LIG    1       -1.448   5.293   2.119  0.00  0.00    -0.290 NA
ATOM     14  C   LIG    1       -0.825   5.122   0.981  0.00  0.00    +0.180 A 
ATOM     15  N   LIG    1       -0.351   3.861   0.976  0.00  0.00    -0.460 N 
ATOM     16  C   LIG    1        0.414   3.172  -0.062  0.00  0.00    +0.290 C 
ENDBRANCH   1  14
BRANCH   4  17
ATOM     17  C   LIG    1       -0.840  10.373  -1.003  0.00  0.00    +0.180 C 
ATOM     18  C   LIG    1       -1.565  11.596  -1.570  0.00  0.00    +0.050 C 
ATOM     19  C   LIG    1       -0.793  12.864  -1.200  0.00  0.00    +0.030 C 
ATOM     20  C   LIG    1        0.619  12.790  -1.786  0.00  0.00    +0.000 C 
ATOM     21  C   LIG    1        1.343  11.568  -1.219  0.00  0.00    +0.020 C 
ATOM     22  C   LIG    1        0.571  10.300  -1.589  0.00  0.00    +0.040 C 
BRANCH  17  23
ATOM     23  N   LIG    1       -0.758  10.487   0.455  0.00  0.00    -1.110 NA
ATOM     24  H   LIG    1        0.096  10.379   0.903  0.00  0.00    +0.420 HD
BRANCH  23  25
ATOM     25  S   LIG    1       -2.123  10.801   1.339  0.00  0.00    +2.600 S 
ATOM     26  O   LIG    1       -2.705  11.928   0.697  0.00  0.00    -0.940 OA
ATOM     27  O   LIG    1       -1.661  10.880   2.681  0.00  0.00    -0.950 OA
ATOM     28  C   LIG    1       -3.160   9.331   1.109  0.00  0.00    -0.290 C 
ENDBRANCH  23  25
ENDBRANCH  17  23
ENDBRANCH   4  17
TORSDOF 4
