REMARK  Name = ZINCpe000000Y8gO.0
REMARK                            x       y       z     vdW  Elec       q    Type
REMARK                         _______ _______ _______ _____ _____    ______ ____
ROOT
ATOM      1  C   LIG    1        2.374   0.974   0.484  0.00  0.00    +0.610 C 
ATOM      2  N   LIG    1        1.329   1.673  -0.002  0.00  0.00    -0.710 N 
ATOM      3  H   LIG    1        1.466   2.565  -0.358  0.00  0.00    +0.400 HD
ATOM      4  O   LIG    1        2.203  -0.144   0.930  0.00  0.00    -0.530 OA
ENDROOT
BRANCH   1  15
ATOM      5  C   LIG    1        4.498   0.724  -1.865  0.00  0.00    +0.160 C 
ATOM      6  C   LIG    1        4.681   1.462  -0.564  0.00  0.00    +0.110 A 
ATOM      7  N   LIG    1        5.749   2.119  -0.197  0.00  0.00    -0.290 NA
ATOM      8  N   LIG    1        5.532   2.663   1.070  0.00  0.00    -0.350 N 
ATOM      9  C   LIG    1        4.292   2.325   1.470  0.00  0.00    +0.130 A 
ATOM     10  C   LIG    1        3.678   2.727   2.787  0.00  0.00    +0.120 C 
ATOM     11  C   LIG    1        4.801   3.218   3.709  0.00  0.00    +0.030 C 
ATOM     12  C   LIG    1        5.676   4.217   2.946  0.00  0.00    +0.050 C 
ATOM     13  C   LIG    1        6.465   3.475   1.858  0.00  0.00    +0.260 C 
ATOM     14  C   LIG    1        7.149   4.498   0.949  0.00  0.00    +0.050 C 
ATOM     15  C   LIG    1        3.725   1.565   0.474  0.00  0.00    -0.290 A 
ENDBRANCH   1  15
BRANCH   2  16
ATOM     16  C   LIG    1       -0.013   1.086   0.008  0.00  0.00    +0.230 C 
ATOM     17  C   LIG    1       -0.939   1.683   1.080  0.00  0.00    +0.030 C 
ATOM     18  C   LIG    1       -1.349   2.730   0.028  0.00  0.00    -0.010 C 
ATOM     19  C   LIG    1       -0.959   1.695  -1.040  0.00  0.00    +0.040 C 
BRANCH  18  20
ATOM     20  C   LIG    1       -2.841   3.065   0.042  0.00  0.00    +0.230 C 
ATOM     21  N   LIG    1       -3.623   1.929   0.559  0.00  0.00    -0.720 N 
ATOM     22  H   LIG    1       -3.679   1.040   0.174  0.00  0.00    +0.440 HD
ATOM     23  C   LIG    1       -4.245   2.364   1.670  0.00  0.00    +0.700 C 
ATOM     24  N   LIG    1       -3.967   3.644   1.943  0.00  0.00    -0.680 N 
ATOM     25  H   LIG    1       -4.324   4.128   2.704  0.00  0.00    +0.430 HD
ATOM     26  O   LIG    1       -4.977   1.671   2.350  0.00  0.00    -0.540 OA
ATOM     27  C   LIG    1       -3.130   4.176   1.031  0.00  0.00    +0.530 C 
ATOM     28  O   LIG    1       -2.697   5.308   1.008  0.00  0.00    -0.460 OA
ENDBRANCH  18  20
ENDBRANCH   2  16
TORSDOF 3
