REMARK  Name = ZINCqH0000002Z1l.0
REMARK                            x       y       z     vdW  Elec       q    Type
REMARK                         _______ _______ _______ _____ _____    ______ ____
ROOT
ATOM      1  N   LIG    1        4.809   4.265   0.080  0.00  0.00    -0.590 N 
ATOM      2  C   LIG    1        3.632   3.616  -0.015  0.00  0.00    +0.580 C 
ATOM      3  O   LIG    1        2.596   4.246  -0.103  0.00  0.00    -0.510 OA
ENDROOT
BRANCH   2   4
ATOM      4  C   LIG    1        3.600   2.137  -0.011  0.00  0.00    -0.050 A 
ATOM      5  C   LIG    1        4.184   1.410   1.017  0.00  0.00    +0.030 A 
ATOM      6  C   LIG    1        4.136   0.016   0.988  0.00  0.00    +0.200 A 
ATOM      7  N   LIG    1        3.552  -0.635   0.012  0.00  0.00    -0.450 NA
ATOM      8  C   LIG    1        2.970  -0.001  -1.010  0.00  0.00    +0.140 A 
ATOM      9  C   LIG    1        2.349  -0.718  -2.048  0.00  0.00    +0.050 A 
ATOM     10  C   LIG    1        1.764  -0.047  -3.077  0.00  0.00    +0.050 A 
ATOM     11  C   LIG    1        1.769   1.346  -3.121  0.00  0.00    +0.030 A 
ATOM     12  C   LIG    1        2.362   2.074  -2.133  0.00  0.00    +0.050 A 
ATOM     13 CL   LIG    1        4.869  -0.880   2.281  0.00  0.00    -0.010 Cl
ATOM     14  C   LIG    1        2.973   1.415  -1.059  0.00  0.00    -0.070 A 
ENDBRANCH   2   4
BRANCH   1  16
ATOM     15  C   LIG    1        6.618   3.470  -1.361  0.00  0.00    +0.020 C 
ATOM     16  C   LIG    1        6.065   3.511   0.065  0.00  0.00    +0.270 C 
ENDBRANCH   1  16
BRANCH   1  17
ATOM     17  C   LIG    1        4.833   5.725   0.198  0.00  0.00    +0.340 C 
BRANCH  17  18
ATOM     18  C   LIG    1        4.791   6.112   1.654  0.00  0.00    +0.500 C 
ATOM     19  N   LIG    1        4.803   7.412   2.007  0.00  0.00    -0.730 N 
ATOM     20  H   LIG    1        4.840   8.100   1.323  0.00  0.00    +0.400 HD
ATOM     21  O   LIG    1        4.745   5.252   2.509  0.00  0.00    -0.530 OA
BRANCH  19  22
ATOM     22  C   LIG    1        4.762   7.788   3.422  0.00  0.00    +0.370 C 
BRANCH  22  23
ATOM     23  C   LIG    1        4.787   9.290   3.544  0.00  0.00    -0.210 A 
ATOM     24  C   LIG    1        3.710  10.078   3.568  0.00  0.00    +0.030 A 
ATOM     25  C   LIG    1        3.979  11.430   3.688  0.00  0.00    +0.000 A 
ATOM     26  C   LIG    1        5.274  11.741   3.760  0.00  0.00    -0.030 A 
ATOM     27  S   LIG    1        6.239  10.273   3.683  0.00  0.00    +0.120 S 
ENDBRANCH  22  23
ENDBRANCH  19  22
ENDBRANCH  17  18
ENDBRANCH   1  17
TORSDOF 6
