REMARK  Name = ZINCrH000004rT8b.0
REMARK                            x       y       z     vdW  Elec       q    Type
REMARK                         _______ _______ _______ _____ _____    ______ ____
ROOT
ATOM      1  C   LIG    1        0.571  -2.021   0.295  0.00  0.00    +0.180 A 
ATOM      2  N   LIG    1        0.959  -0.790   0.526  0.00  0.00    -0.470 NA
ATOM      3  C   LIG    1        0.002  -0.004   0.002  0.00  0.00    +0.190 A 
ATOM      4  N   LIG    1       -0.899  -0.783  -0.518  0.00  0.00    -0.370 NA
ATOM      5  O   LIG    1       -0.591  -1.945  -0.360  0.00  0.00    +0.080 OA
ENDROOT
BRANCH   1   6
ATOM      6  C   LIG    1        1.299  -3.281   0.689  0.00  0.00    +0.190 C 
BRANCH   6   7
ATOM      7  C   LIG    1        0.836  -3.724   2.079  0.00  0.00    +0.040 C 
BRANCH   7   8
ATOM      8  C   LIG    1        1.575  -5.002   2.478  0.00  0.00    +0.040 C 
BRANCH   8   9
ATOM      9  C   LIG    1        1.113  -5.446   3.868  0.00  0.00    +0.180 C 
BRANCH   9  10
ATOM     10  O   LIG    1        1.803  -6.640   4.241  0.00  0.00    -0.320 OA
BRANCH  10  16
ATOM     11  C   LIG    1        2.522 -10.123   7.583  0.00  0.00    +0.090 C 
ATOM     12  C   LIG    1        1.834  -8.865   7.120  0.00  0.00    -0.050 A 
ATOM     13  C   LIG    1        0.901  -8.248   7.931  0.00  0.00    -0.040 A 
ATOM     14  C   LIG    1        0.268  -7.094   7.509  0.00  0.00    +0.050 A 
ATOM     15  C   LIG    1        0.573  -6.550   6.276  0.00  0.00    -0.090 A 
ATOM     16  C   LIG    1        1.506  -7.170   5.457  0.00  0.00    +0.130 A 
ATOM     17  C   LIG    1        2.138  -8.328   5.883  0.00  0.00    -0.020 A 
ENDBRANCH  10  16
ENDBRANCH   9  10
ENDBRANCH   8   9
ENDBRANCH   7   8
ENDBRANCH   6   7
ENDBRANCH   1   6
BRANCH   3  18
ATOM     18  C   LIG    1       -0.018   1.503   0.010  0.00  0.00    +0.200 C 
BRANCH  18  19
ATOM     19  C   LIG    1       -0.724   1.989   1.250  0.00  0.00    +0.520 C 
ATOM     20  N   LIG    1       -0.863   3.311   1.472  0.00  0.00    -0.720 N 
ATOM     21  H   LIG    1       -0.509   3.950   0.833  0.00  0.00    +0.400 HD
ATOM     22  O   LIG    1       -1.166   1.190   2.049  0.00  0.00    -0.530 OA
BRANCH  20  23
ATOM     23  C   LIG    1       -1.548   3.783   2.677  0.00  0.00    +0.240 C 
ATOM     24  C   LIG    1       -3.057   3.816   2.426  0.00  0.00    +0.000 C 
ATOM     25  C   LIG    1       -3.773   4.309   3.685  0.00  0.00    +0.010 C 
ATOM     26  C   LIG    1       -3.284   5.717   4.032  0.00  0.00    +0.010 C 
ATOM     27  C   LIG    1       -1.775   5.684   4.283  0.00  0.00    +0.020 C 
ATOM     28  C   LIG    1       -1.059   5.191   3.024  0.00  0.00    +0.010 C 
ENDBRANCH  20  23
ENDBRANCH  18  19
ENDBRANCH   3  18
TORSDOF 9
