REMARK  Name = ZINCAx0000000aBY.0
REMARK                            x       y       z     vdW  Elec       q    Type
REMARK                         _______ _______ _______ _____ _____    ______ ____
ROOT
ATOM      1  C   LIG    1       -1.241   2.118   7.119  0.00  0.00    +0.310 C 
ENDROOT
BRANCH   1   2
ATOM      2  N   LIG    1       -0.304   1.418   8.002  0.00  0.00    -0.570 N 
ATOM      3  C   LIG    1       -0.574   0.177   8.422  0.00  0.00    +0.530 C 
ATOM      4  S   LIG    1        0.778  -0.323   9.454  0.00  0.00    -0.010 S 
ATOM      5  C   LIG    1        1.665   1.205   9.274  0.00  0.00    -0.240 C 
ATOM      6  C   LIG    1        2.856   1.548   9.826  0.00  0.00    +0.250 C 
ATOM      7  O   LIG    1       -1.558  -0.483   8.148  0.00  0.00    -0.420 OA
ATOM      8  C   LIG    1        0.812   2.010   8.393  0.00  0.00    +0.550 C 
ATOM      9  O   LIG    1        1.110   3.139   8.047  0.00  0.00    -0.450 OA
BRANCH   6  10
ATOM     10  C   LIG    1        3.522   2.792   9.419  0.00  0.00    -0.130 A 
ATOM     11  C   LIG    1        3.529   3.178   8.073  0.00  0.00    +0.130 A 
ATOM     12  C   LIG    1        4.149   4.348   7.698  0.00  0.00    -0.060 A 
ATOM     13  C   LIG    1        4.779   5.141   8.652  0.00  0.00    +0.130 A 
ATOM     14  C   LIG    1        4.780   4.760   9.988  0.00  0.00    -0.010 A 
ATOM     15  C   LIG    1        4.157   3.595  10.375  0.00  0.00    +0.100 A 
BRANCH  13  16
ATOM     16  O   LIG    1        5.394   6.291   8.276  0.00  0.00    -0.320 OA
BRANCH  16  17
ATOM     17  C   LIG    1        5.355   6.624   6.886  0.00  0.00    +0.600 C 
ATOM     18  F   LIG    1        4.024   6.758   6.476  0.00  0.00    -0.200 F 
ATOM     19  F   LIG    1        5.971   5.609   6.147  0.00  0.00    -0.200 F 
ENDBRANCH  16  17
ENDBRANCH  13  16
ENDBRANCH   6  10
ENDBRANCH   1   2
BRANCH   1  20
ATOM     20  C   LIG    1       -0.881   1.829   5.661  0.00  0.00    +0.270 C 
BRANCH  20  23
ATOM     21  O   LIG    1       -0.806   1.741   2.967  0.00  0.00    -0.530 OA
ATOM     22  C   LIG    1       -1.693   2.419   3.441  0.00  0.00    +0.520 C 
ATOM     23  N   LIG    1       -1.817   2.528   4.778  0.00  0.00    -0.730 N 
ATOM     24  H   LIG    1       -2.527   3.071   5.157  0.00  0.00    +0.400 HD
BRANCH  22  25
ATOM     25  C   LIG    1       -2.657   3.139   2.533  0.00  0.00    +0.040 C 
BRANCH  25  26
ATOM     26  C   LIG    1       -2.297   2.850   1.074  0.00  0.00    +0.320 C 
BRANCH  26  27
ATOM     27  N   LIG    1       -3.233   3.550   0.192  0.00  0.00    -0.590 N 
ATOM     28  C   LIG    1       -4.393   2.998  -0.251  0.00  0.00    +0.540 C 
ATOM     29  C   LIG    1       -5.188   4.120  -0.850  0.00  0.00    +0.000 C 
ATOM     30  C   LIG    1       -6.057   3.836  -2.048  0.00  0.00    +0.110 C 
ATOM     31  C   LIG    1       -6.436   5.167  -2.662  0.00  0.00    -0.030 C 
ATOM     32  C   LIG    1       -5.818   6.285  -2.427  0.00  0.00    -0.040 C 
ATOM     33  C   LIG    1       -4.610   6.420  -1.525  0.00  0.00    +0.110 C 
ATOM     34  C   LIG    1       -4.028   5.033  -1.357  0.00  0.00    +0.000 C 
ATOM     35  O   LIG    1       -4.720   1.833  -0.175  0.00  0.00    -0.460 OA
ATOM     36  C   LIG    1       -3.024   4.811  -0.267  0.00  0.00    +0.540 C 
ATOM     37  O   LIG    1       -2.191   5.599   0.126  0.00  0.00    -0.460 OA
ENDBRANCH  26  27
ENDBRANCH  25  26
ENDBRANCH  22  25
ENDBRANCH  20  23
ENDBRANCH   1  20
TORSDOF 9
