REMARK  Name = ZINCkj00000kIYKV.0
REMARK                            x       y       z     vdW  Elec       q    Type
REMARK                         _______ _______ _______ _____ _____    ______ ____
ROOT
ATOM      1  C   LIG    1        2.256   5.362   0.410  0.00  0.00    +0.180 C 
ATOM      2  C   LIG    1        2.475   3.906  -0.004  0.00  0.00    +0.140 C 
ATOM      3  C   LIG    1        1.159   3.170   0.009  0.00  0.00    -0.090 A 
ATOM      4  C   LIG    1        1.173   1.784   0.000  0.00  0.00    +0.040 A 
ATOM      5  C   LIG    1       -0.013   1.076   0.008  0.00  0.00    +0.050 A 
ATOM      6  C   LIG    1       -1.218   1.752   0.017  0.00  0.00    +0.040 A 
ATOM      7  C   LIG    1       -1.232   3.133   0.032  0.00  0.00    +0.050 A 
ATOM      8  C   LIG    1       -0.043   3.846   0.025  0.00  0.00    -0.140 A 
ATOM      9  C   LIG    1       -0.105   5.351   0.039  0.00  0.00    +0.340 C 
ATOM     10  N   LIG    1        1.169   5.923  -0.405  0.00  0.00    -0.490 N 
ATOM     11  H   LIG    1        1.322   5.694  -1.376  0.00  0.00    +0.440 HD
ATOM     12  H   LIG    1        1.146   6.926  -0.293  0.00  0.00    +0.440 HD
ENDROOT
BRANCH   1  15
ATOM     13  C   LIG    1        4.665   4.654   1.726  0.00  0.00    +0.310 C 
ATOM     14  N   LIG    1        4.658   5.799   0.812  0.00  0.00    -0.580 N 
ATOM     15  C   LIG    1        3.521   6.149   0.179  0.00  0.00    +0.510 C 
ATOM     16  O   LIG    1        3.515   7.096  -0.578  0.00  0.00    -0.530 OA
BRANCH  14  17
ATOM     17  C   LIG    1        5.887   6.564   0.587  0.00  0.00    +0.240 C 
ATOM     18  C   LIG    1        6.970   5.639   0.025  0.00  0.00    +0.000 C 
ATOM     19  C   LIG    1        8.273   6.428  -0.133  0.00  0.00    +0.230 C 
ATOM     20  O   LIG    1        8.653   6.975   1.131  0.00  0.00    -0.380 OA
ATOM     21  C   LIG    1        7.699   7.885   1.683  0.00  0.00    +0.230 C 
ATOM     22  C   LIG    1        6.373   7.154   1.914  0.00  0.00    -0.010 C 
ENDBRANCH  14  17
ENDBRANCH   1  15
TORSDOF 2
