REMARK  Name = ZINCrD000000A7dF.0
REMARK                            x       y       z     vdW  Elec       q    Type
REMARK                         _______ _______ _______ _____ _____    ______ ____
ROOT
ATOM      1  C   LIG    1        4.608  -0.011   1.511  0.00  0.00    -0.100 A 
ATOM      2  C   LIG    1        5.369  -0.866   0.738  0.00  0.00    +0.070 A 
ATOM      3  C   LIG    1        6.649  -0.503   0.358  0.00  0.00    -0.070 A 
ATOM      4  C   LIG    1        7.170   0.717   0.752  0.00  0.00    +0.070 A 
ATOM      5  C   LIG    1        6.412   1.574   1.527  0.00  0.00    -0.060 A 
ATOM      6 CL   LIG    1        7.603  -1.579  -0.615  0.00  0.00    -0.070 Cl
ATOM      7  C   LIG    1        5.127   1.214   1.904  0.00  0.00    +0.160 A 
ENDROOT
BRANCH   1   8
ATOM      8  C   LIG    1        3.214  -0.407   1.924  0.00  0.00    +0.250 C 
BRANCH   8  14
ATOM      9  O   LIG    1       -1.201   0.384  -2.197  0.00  0.00    -0.540 OA
ATOM     10  C   LIG    1       -1.202   0.709  -1.029  0.00  0.00    +0.550 C 
ATOM     11  N   LIG    1       -0.036   0.909  -0.384  0.00  0.00    -0.610 N 
ATOM     12  C   LIG    1       -0.015   1.310   1.031  0.00  0.00    +0.280 C 
ATOM     13  C   LIG    1        0.923   0.367   1.791  0.00  0.00    +0.170 C 
ATOM     14  N   LIG    1        2.235   0.350   1.131  0.00  0.00    -0.530 NA
ATOM     15  C   LIG    1        2.138  -0.184  -0.234  0.00  0.00    +0.170 C 
ATOM     16  C   LIG    1        1.250   0.737  -1.077  0.00  0.00    +0.290 C 
BRANCH  10  17
ATOM     17  C   LIG    1       -2.508   0.891  -0.299  0.00  0.00    -0.080 C 
ATOM     18  C   LIG    1       -3.346  -0.360  -0.029  0.00  0.00    +0.060 C 
ATOM     19  C   LIG    1       -3.797   0.650  -1.087  0.00  0.00    +0.060 C 
ENDBRANCH  10  17
ENDBRANCH   8  14
ENDBRANCH   1   8
BRANCH   7  20
ATOM     20  O   LIG    1        4.378   2.059   2.661  0.00  0.00    -0.290 OA
BRANCH  20  21
ATOM     21  C   LIG    1        4.976   3.304   3.028  0.00  0.00    +0.250 C 
BRANCH  21  22
ATOM     22  C   LIG    1        4.005   4.102   3.859  0.00  0.00    -0.150 A 
ATOM     23  C   LIG    1        3.120   4.981   3.253  0.00  0.00    +0.090 A 
ATOM     24  C   LIG    1        2.240   5.690   4.057  0.00  0.00    -0.030 A 
ATOM     25  C   LIG    1        2.283   5.508   5.426  0.00  0.00    +0.270 A 
ATOM     26  N   LIG    1        3.142   4.667   5.968  0.00  0.00    -0.490 NA
ATOM     27  C   LIG    1        3.989   3.972   5.235  0.00  0.00    +0.280 A 
ENDBRANCH  21  22
ENDBRANCH  20  21
ENDBRANCH   7  20
TORSDOF 6
