REMARK  Name = ZINCrD00000fMTQ6.0
REMARK                            x       y       z     vdW  Elec       q    Type
REMARK                         _______ _______ _______ _____ _____    ______ ____
ROOT
ATOM      1  C   LIG    1       -1.924   2.792  -2.539  0.00  0.00    -0.060 A 
ATOM      2  C   LIG    1       -1.459   2.703  -1.262  0.00  0.00    +0.080 A 
ATOM      3  C   LIG    1       -1.720   3.665  -0.132  0.00  0.00    +0.140 C 
ATOM      4  C   LIG    1       -0.398   3.976   0.577  0.00  0.00    +0.020 C 
ATOM      5  C   LIG    1       -0.157   2.947   1.677  0.00  0.00    +0.010 C 
ATOM      6  C   LIG    1       -0.717   1.586   1.266  0.00  0.00    +0.030 C 
ATOM      7  C   LIG    1       -0.004   1.091   0.005  0.00  0.00    +0.280 C 
ATOM      8  N   LIG    1       -0.718   1.574  -1.181  0.00  0.00    -0.440 N 
ATOM      9  C   LIG    1       -0.753   0.974  -2.407  0.00  0.00    +0.240 A 
ATOM     10  N   LIG    1       -1.475   1.712  -3.215  0.00  0.00    -0.440 NA
ENDROOT
BRANCH   1  12
ATOM     11  O   LIG    1       -3.109   4.794  -2.371  0.00  0.00    -0.540 OA
ATOM     12  C   LIG    1       -2.768   3.870  -3.084  0.00  0.00    +0.620 C 
ATOM     13  N   LIG    1       -3.160   3.832  -4.373  0.00  0.00    -0.610 N 
ATOM     14  C   LIG    1       -4.006   4.844  -5.052  0.00  0.00    +0.260 C 
ATOM     15  C   LIG    1       -4.089   4.404  -6.506  0.00  0.00    -0.030 C 
ATOM     16  C   LIG    1       -5.381   4.657  -7.255  0.00  0.00    +0.020 C 
ATOM     17  C   LIG    1       -5.216   4.018  -8.647  0.00  0.00    +0.220 C 
ATOM     18  O   LIG    1       -4.838   2.648  -8.564  0.00  0.00    -0.390 OA
ATOM     19  C   LIG    1       -3.676   2.337  -7.773  0.00  0.00    +0.240 C 
ATOM     20  C   LIG    1       -3.954   2.856  -6.377  0.00  0.00    -0.060 C 
ATOM     21  C   LIG    1       -2.814   2.772  -5.357  0.00  0.00    +0.290 C 
ENDBRANCH   1  12
BRANCH   9  22
ATOM     22  C   LIG    1       -0.086  -0.298  -2.765  0.00  0.00    -0.010 A 
ATOM     23  C   LIG    1        0.970  -0.777  -1.990  0.00  0.00    +0.010 A 
ATOM     24  C   LIG    1        1.584  -1.967  -2.325  0.00  0.00    +0.010 A 
ATOM     25  C   LIG    1        1.161  -2.678  -3.434  0.00  0.00    +0.020 A 
ATOM     26  C   LIG    1        0.117  -2.205  -4.210  0.00  0.00    +0.010 A 
ATOM     27  C   LIG    1       -0.508  -1.020  -3.882  0.00  0.00    +0.050 A 
ENDBRANCH   9  22
TORSDOF 2
