REMARK  Name = ZINCrH000004rvaV.0
REMARK                            x       y       z     vdW  Elec       q    Type
REMARK                         _______ _______ _______ _____ _____    ______ ____
ROOT
ATOM      1  N   LIG    1       -0.018   1.465   0.010  0.00  0.00    -0.990 NA
ATOM      2  C   LIG    1        0.002  -0.004   0.002  0.00  0.00    +0.290 C 
ATOM      3  C   LIG    1        0.880  -0.492   1.159  0.00  0.00    +0.030 C 
ATOM      4  C   LIG    1        2.263   0.156   1.052  0.00  0.00    +0.050 C 
ATOM      5  C   LIG    1        2.125   1.677   1.158  0.00  0.00    +0.000 C 
ATOM      6  C   LIG    1        1.261   2.189   0.002  0.00  0.00    +0.330 C 
ENDROOT
BRANCH   5   7
ATOM      7  C   LIG    1        3.490   2.312   1.087  0.00  0.00    +0.520 C 
ATOM      8  N   LIG    1        4.425   2.005   2.008  0.00  0.00    -0.620 N 
ATOM      9  H   LIG    1        4.219   1.376   2.717  0.00  0.00    +0.430 HD
ATOM     10  O   LIG    1        3.747   3.099   0.201  0.00  0.00    -0.490 OA
BRANCH   8  11
ATOM     11  C   LIG    1        5.679   2.589   1.942  0.00  0.00    +0.310 A 
ATOM     12  N   LIG    1        6.639   2.364   2.771  0.00  0.00    -0.510 NA
ATOM     13  C   LIG    1        7.806   3.009   2.575  0.00  0.00    +0.100 A 
ATOM     14  C   LIG    1        8.994   2.934   3.332  0.00  0.00    +0.060 A 
ATOM     15  C   LIG    1       10.093   3.674   2.975  0.00  0.00    +0.040 A 
ATOM     16  C   LIG    1       10.055   4.505   1.865  0.00  0.00    +0.030 A 
ATOM     17  C   LIG    1        8.906   4.593   1.111  0.00  0.00    +0.060 A 
ATOM     18  C   LIG    1        7.781   3.851   1.459  0.00  0.00    -0.220 A 
ATOM     19  S   LIG    1        6.189   3.736   0.712  0.00  0.00    +0.180 S 
ENDBRANCH   8  11
ENDBRANCH   5   7
BRANCH   1  20
ATOM     20  S   LIG    1       -1.454   2.289   0.021  0.00  0.00    +2.710 S 
ATOM     21  O   LIG    1       -2.427   1.408  -0.523  0.00  0.00    -0.940 OA
ATOM     22  O   LIG    1       -1.183   3.576  -0.517  0.00  0.00    -0.940 OA
BRANCH  20  27
ATOM     23  C   LIG    1       -3.361   2.243   5.419  0.00  0.00    +0.160 C 
ATOM     24  C   LIG    1       -2.743   2.502   4.070  0.00  0.00    -0.130 A 
ATOM     25  C   LIG    1       -2.015   3.573   3.750  0.00  0.00    -0.020 A 
ATOM     26  C   LIG    1       -1.545   3.592   2.448  0.00  0.00    +0.160 A 
ATOM     27  C   LIG    1       -1.898   2.540   1.708  0.00  0.00    -0.800 A 
ATOM     28  S   LIG    1       -2.869   1.437   2.675  0.00  0.00    +0.220 S 
ENDBRANCH  20  27
ENDBRANCH   1  20
TORSDOF 4
