REMARK  Name = ZINCpk00000e9W5k.0
REMARK                            x       y       z     vdW  Elec       q    Type
REMARK                         _______ _______ _______ _____ _____    ______ ____
ROOT
ATOM      1  C   LIG    1       -1.590  -0.945  -0.064  0.00  0.00    -0.000 C 
ATOM      2  C   LIG    1       -2.374  -0.607   1.206  0.00  0.00    +0.070 C 
ATOM      3  C   LIG    1       -1.474  -0.819   2.428  0.00  0.00    +0.270 C 
ATOM      4  N   LIG    1       -0.943  -2.188   2.392  0.00  0.00    -0.600 N 
ATOM      5  C   LIG    1       -0.250  -2.646   1.180  0.00  0.00    +0.290 C 
ATOM      6  C   LIG    1       -1.087  -3.009   3.451  0.00  0.00    +0.590 C 
ATOM      7  O   LIG    1       -0.726  -4.168   3.376  0.00  0.00    -0.520 OA
ATOM      8  C   LIG    1       -1.164  -2.414  -0.028  0.00  0.00    +0.060 C 
ENDROOT
BRANCH   6   9
ATOM      9  C   LIG    1       -1.685  -2.501   4.703  0.00  0.00    -0.030 A 
ATOM     10  N   LIG    1       -0.978  -1.718   5.512  0.00  0.00    -0.370 NA
ATOM     11  C   LIG    1       -1.514  -1.266   6.627  0.00  0.00    +0.160 A 
ATOM     12  C   LIG    1       -2.817  -1.603   6.965  0.00  0.00    +0.310 A 
ATOM     13  N   LIG    1       -3.533  -2.379   6.171  0.00  0.00    -0.500 NA
ATOM     14  C   LIG    1       -3.006  -2.838   5.042  0.00  0.00    +0.390 A 
BRANCH  14  15
ATOM     15  N   LIG    1       -3.753  -3.647   4.205  0.00  0.00    -0.830 N 
ATOM     16  H   LIG    1       -4.687  -3.819   4.404  0.00  0.00    +0.410 HD
ATOM     17  H   LIG    1       -3.344  -4.043   3.420  0.00  0.00    +0.410 HD
ENDBRANCH  14  15
ENDBRANCH   6   9
BRANCH   1  18
ATOM     18  C   LIG    1       -2.462  -0.705  -1.270  0.00  0.00    -0.090 A 
ATOM     19  C   LIG    1       -2.749  -1.745  -2.134  0.00  0.00    +0.020 A 
ATOM     20  C   LIG    1       -3.552  -1.526  -3.237  0.00  0.00    +0.010 A 
ATOM     21  C   LIG    1       -4.062  -0.265  -3.482  0.00  0.00    +0.010 A 
ATOM     22  C   LIG    1       -3.771   0.777  -2.621  0.00  0.00    +0.010 A 
ATOM     23  C   LIG    1       -2.971   0.557  -1.515  0.00  0.00    +0.030 A 
ENDBRANCH   1  18
BRANCH   1  24
ATOM     24  C   LIG    1       -0.367  -0.068  -0.147  0.00  0.00    +0.470 C 
ATOM     25  O   LIG    1        0.733  -0.568  -0.174  0.00  0.00    -0.490 OA
BRANCH  24  27
ATOM     26  C   LIG    1        0.722   2.048  -0.271  0.00  0.00    +0.250 C 
ATOM     27  O   LIG    1       -0.499   1.267  -0.191  0.00  0.00    -0.350 OA
ENDBRANCH  24  27
ENDBRANCH   1  24
TORSDOF 5
