REMARK  Name = ZINCkj000005lgWG.1
REMARK                            x       y       z     vdW  Elec       q    Type
REMARK                         _______ _______ _______ _____ _____    ______ ____
ROOT
ATOM      1  C   LIG    1       -2.789   0.462  -1.232  0.00  0.00    +0.330 C 
ENDROOT
BRANCH   1   6
ATOM      2  C   LIG    1       -1.330   1.944   0.019  0.00  0.00    +0.170 C 
ATOM      3  C   LIG    1       -1.456   2.804   1.295  0.00  0.00    +0.080 C 
ATOM      4  C   LIG    1       -2.941   2.703   1.701  0.00  0.00    +0.080 C 
ATOM      5  C   LIG    1       -3.587   1.791   0.636  0.00  0.00    +0.270 C 
ATOM      6  N   LIG    1       -2.460   0.984   0.101  0.00  0.00    -0.380 N 
ATOM      7  H   LIG    1       -2.236   0.229   0.732  0.00  0.00    +0.430 HD
BRANCH   2  11
ATOM      8  N   LIG    1        1.143   1.898   0.001  0.00  0.00    -0.820 N 
ATOM      9  H   LIG    1        1.130   2.868   0.007  0.00  0.00    +0.410 HD
ATOM     10  H   LIG    1        1.990   1.425  -0.009  0.00  0.00    +0.420 HD
ATOM     11  C   LIG    1       -0.014   1.209   0.009  0.00  0.00    +0.520 C 
ATOM     12  O   LIG    1        0.002  -0.004   0.002  0.00  0.00    -0.530 OA
ENDBRANCH   2  11
ENDBRANCH   1   6
BRANCH   1  13
ATOM     13  C   LIG    1       -3.852  -0.598  -1.109  0.00  0.00    -0.170 A 
ATOM     14  C   LIG    1       -3.490  -1.922  -0.940  0.00  0.00    +0.090 A 
ATOM     15  C   LIG    1       -4.463  -2.896  -0.821  0.00  0.00    +0.000 A 
ATOM     16  C   LIG    1       -5.805  -2.545  -0.883  0.00  0.00    +0.180 A 
ATOM     17  C   LIG    1       -6.165  -1.216  -1.058  0.00  0.00    +0.010 A 
ATOM     18  C   LIG    1       -5.188  -0.246  -1.170  0.00  0.00    +0.080 A 
BRANCH  16  19
ATOM     19  N   LIG    1       -6.795  -3.532  -0.768  0.00  0.00    -0.430 N 
ATOM     20  C   LIG    1       -6.589  -4.877  -0.599  0.00  0.00    +0.120 A 
ATOM     21  C   LIG    1       -7.804  -5.452  -0.534  0.00  0.00    +0.170 A 
ATOM     22  N   LIG    1       -8.730  -4.492  -0.669  0.00  0.00    -0.470 NA
ATOM     23  C   LIG    1       -8.138  -3.337  -0.810  0.00  0.00    +0.400 A 
ENDBRANCH  16  19
ENDBRANCH   1  13
TORSDOF 4
