REMARK  Name = ZINCkj000005lgWG.0
REMARK                            x       y       z     vdW  Elec       q    Type
REMARK                         _______ _______ _______ _____ _____    ______ ____
ROOT
ATOM      1  C   LIG    1        0.143   1.863  -2.278  0.00  0.00    +0.330 C 
ENDROOT
BRANCH   1   6
ATOM      2  C   LIG    1       -1.585   2.732  -0.849  0.00  0.00    +0.160 C 
ATOM      3  C   LIG    1       -1.315   3.068   0.632  0.00  0.00    +0.100 C 
ATOM      4  C   LIG    1       -0.811   1.719   1.213  0.00  0.00    +0.080 C 
ATOM      5  C   LIG    1       -0.010   1.145   0.017  0.00  0.00    +0.270 C 
ATOM      6  N   LIG    1       -0.780   1.542  -1.181  0.00  0.00    -0.370 N 
ATOM      7  H   LIG    1       -1.389   0.787  -1.459  0.00  0.00    +0.430 HD
BRANCH   2  11
ATOM      8  N   LIG    1       -2.086   4.512  -2.491  0.00  0.00    -0.830 N 
ATOM      9  H   LIG    1       -1.820   5.257  -3.053  0.00  0.00    +0.420 HD
ATOM     10  H   LIG    1       -3.009   4.215  -2.485  0.00  0.00    +0.410 HD
ATOM     11  C   LIG    1       -1.172   3.889  -1.721  0.00  0.00    +0.510 C 
ATOM     12  O   LIG    1       -0.017   4.261  -1.730  0.00  0.00    -0.510 OA
ENDBRANCH   2  11
ENDBRANCH   1   6
BRANCH   1  13
ATOM     13  C   LIG    1        0.855   0.610  -2.719  0.00  0.00    -0.170 A 
ATOM     14  C   LIG    1        2.054   0.253  -2.129  0.00  0.00    +0.080 A 
ATOM     15  C   LIG    1        2.706  -0.897  -2.528  0.00  0.00    +0.010 A 
ATOM     16  C   LIG    1        2.162  -1.690  -3.529  0.00  0.00    +0.180 A 
ATOM     17  C   LIG    1        0.960  -1.327  -4.122  0.00  0.00    +0.010 A 
ATOM     18  C   LIG    1        0.310  -0.178  -3.716  0.00  0.00    +0.080 A 
BRANCH  16  19
ATOM     19  N   LIG    1        2.824  -2.856  -3.940  0.00  0.00    -0.430 N 
ATOM     20  C   LIG    1        4.013  -3.333  -3.451  0.00  0.00    +0.120 A 
ATOM     21  C   LIG    1        4.280  -4.471  -4.119  0.00  0.00    +0.170 A 
ATOM     22  N   LIG    1        3.291  -4.683  -4.999  0.00  0.00    -0.470 NA
ATOM     23  C   LIG    1        2.413  -3.722  -4.902  0.00  0.00    +0.400 A 
ENDBRANCH  16  19
ENDBRANCH   1  13
TORSDOF 4
