REMARK  Name = ZINCpk00000eb7jy.0
REMARK                            x       y       z     vdW  Elec       q    Type
REMARK                         _______ _______ _______ _____ _____    ______ ____
ROOT
ATOM      1  C   LIG    1        1.882   5.821   0.278  0.00  0.00    -0.010 C 
ATOM      2  C   LIG    1        1.073   6.281  -0.938  0.00  0.00    +0.020 C 
ATOM      3  C   LIG    1       -0.186   5.418  -1.060  0.00  0.00    +0.030 C 
ATOM      4  C   LIG    1        0.220   3.946  -1.175  0.00  0.00    +0.170 C 
ATOM      5  N   LIG    1        0.991   3.555   0.012  0.00  0.00    -0.510 NA
ATOM      6  C   LIG    1        2.228   4.338   0.124  0.00  0.00    +0.180 C 
ENDROOT
BRANCH   5   7
ATOM      7  C   LIG    1        1.278   2.115   0.001  0.00  0.00    +0.190 C 
ATOM      8  C   LIG    1        2.074   1.763  -1.258  0.00  0.00    +0.030 C 
BRANCH   7   9
ATOM      9  C   LIG    1       -0.016   1.344   0.009  0.00  0.00    +0.510 C 
ATOM     10  N   LIG    1        0.002  -0.004   0.002  0.00  0.00    -0.640 N 
ATOM     11  H   LIG    1        0.849  -0.478  -0.009  0.00  0.00    +0.420 HD
ATOM     12  O   LIG    1       -1.075   1.935   0.018  0.00  0.00    -0.440 OA
BRANCH  10  13
ATOM     13  C   LIG    1       -1.192  -0.715   0.010  0.00  0.00    +0.530 A 
ATOM     14  N   LIG    1       -2.338  -0.053   0.030  0.00  0.00    -0.500 NA
ATOM     15  C   LIG    1       -3.492  -0.699   0.033  0.00  0.00    +0.350 A 
ATOM     16  C   LIG    1       -3.491  -2.085   0.025  0.00  0.00    -0.110 A 
ATOM     17  C   LIG    1       -2.273  -2.746   0.009  0.00  0.00    +0.350 A 
ATOM     18  N   LIG    1       -1.155  -2.039   0.002  0.00  0.00    -0.550 NA
ENDBRANCH  10  13
ENDBRANCH   7   9
ENDBRANCH   5   7
BRANCH   1  19
ATOM     19  C   LIG    1        3.172   6.639   0.373  0.00  0.00    +0.330 C 
BRANCH  19  23
ATOM     20  C   LIG    1        2.038  11.484  -0.260  0.00  0.00    +0.190 C 
ATOM     21  C   LIG    1        2.350  10.143   0.352  0.00  0.00    +0.220 A 
ATOM     22  N   LIG    1        2.614   9.048  -0.312  0.00  0.00    -0.320 NA
ATOM     23  N   LIG    1        2.842   8.041   0.640  0.00  0.00    -0.370 N 
ATOM     24  C   LIG    1        2.704   8.621   1.845  0.00  0.00    +0.280 A 
ATOM     25  C   LIG    1        2.861   7.938   3.179  0.00  0.00    +0.190 C 
ATOM     26  N   LIG    1        2.409   9.882   1.657  0.00  0.00    -0.540 NA
ENDBRANCH  19  23
ENDBRANCH   1  19
TORSDOF 5
