REMARK  Name = ZINCtV00001bB34J.0
REMARK                            x       y       z     vdW  Elec       q    Type
REMARK                         _______ _______ _______ _____ _____    ______ ____
ROOT
ATOM      1  C   LIG    1        0.633   1.023  -0.160  0.00  0.00    +0.070 C 
ATOM      2  C   LIG    1       -0.416   1.051   0.954  0.00  0.00    +0.190 C 
ENDROOT
BRANCH   2   3
ATOM      3  C   LIG    1       -1.476   0.017   0.672  0.00  0.00    +0.520 C 
ATOM      4  N   LIG    1       -2.270   0.144  -0.410  0.00  0.00    -0.670 N 
ATOM      5  H   LIG    1       -2.211   0.937  -0.964  0.00  0.00    +0.420 HD
ATOM      6  O   LIG    1       -1.614  -0.928   1.419  0.00  0.00    -0.480 OA
BRANCH   4   7
ATOM      7  C   LIG    1       -3.179  -0.871  -0.733  0.00  0.00    +0.180 A 
ATOM      8  C   LIG    1       -3.792  -1.603   0.275  0.00  0.00    +0.080 A 
ATOM      9  C   LIG    1       -4.689  -2.604  -0.048  0.00  0.00    -0.010 A 
ATOM     10  C   LIG    1       -4.976  -2.877  -1.374  0.00  0.00    -0.040 A 
ATOM     11  C   LIG    1       -4.367  -2.149  -2.381  0.00  0.00    +0.090 A 
ATOM     12 CL   LIG    1       -6.104  -4.135  -1.775  0.00  0.00    -0.030 Cl
ATOM     13 CL   LIG    1       -5.455  -3.520   1.212  0.00  0.00    -0.030 Cl
ATOM     14  C   LIG    1       -3.474  -1.143  -2.064  0.00  0.00    -0.050 A 
ATOM     15 CL   LIG    1       -2.715  -0.226  -3.327  0.00  0.00    -0.040 Cl
ENDBRANCH   4   7
ENDBRANCH   2   3
BRANCH   2  16
ATOM     16  O   LIG    1        0.220   0.758   2.226  0.00  0.00    -0.310 OA
BRANCH  16  17
ATOM     17  C   LIG    1        0.696   1.807   2.928  0.00  0.00    +0.520 C 
ATOM     18  O   LIG    1        0.582   2.935   2.489  0.00  0.00    -0.510 OA
BRANCH  17  19
ATOM     19  C   LIG    1        1.351   1.586   4.222  0.00  0.00    -0.140 C 
ATOM     20  C   LIG    1        1.838   2.659   4.941  0.00  0.00    +0.240 C 
BRANCH  19  21
ATOM     21  C   LIG    1        1.489   0.218   4.755  0.00  0.00    -0.160 A 
ATOM     22  C   LIG    1        2.594  -0.551   4.653  0.00  0.00    +0.050 A 
ATOM     23  C   LIG    1        2.482  -1.799   5.231  0.00  0.00    +0.010 A 
ATOM     24  C   LIG    1        1.302  -2.055   5.802  0.00  0.00    -0.030 A 
ATOM     25  S   LIG    1        0.241  -0.663   5.628  0.00  0.00    +0.140 S 
ENDBRANCH  19  21
BRANCH  20  26
ATOM     26  C   LIG    1        2.333   2.466   6.248  0.00  0.00    -0.240 A 
ATOM     27  C   LIG    1        2.844   3.448   7.060  0.00  0.00    +0.080 A 
ATOM     28  C   LIG    1        3.255   2.978   8.284  0.00  0.00    -0.020 A 
ATOM     29  C   LIG    1        3.090   1.664   8.474  0.00  0.00    -0.100 A 
ATOM     30  S   LIG    1        2.390   0.930   7.102  0.00  0.00    +0.260 S 
ENDBRANCH  20  26
ENDBRANCH  17  19
ENDBRANCH  16  17
ENDBRANCH   2  16
TORSDOF 7
