REMARK  Name = ZINCpk00001AZiwD.0
REMARK                            x       y       z     vdW  Elec       q    Type
REMARK                         _______ _______ _______ _____ _____    ______ ____
ROOT
ATOM      1  C   LIG    1       -2.638   1.829   0.842  0.00  0.00    +0.590 C 
ATOM      2  N   LIG    1       -2.970   0.524   0.784  0.00  0.00    -0.610 N 
ATOM      3  C   LIG    1       -2.193  -0.586   0.184  0.00  0.00    +0.250 C 
ATOM      4  C   LIG    1       -2.386  -1.766   1.166  0.00  0.00    +0.170 C 
ATOM      5  C   LIG    1       -3.709  -1.462   1.898  0.00  0.00    +0.100 C 
ATOM      6  C   LIG    1       -4.197  -0.125   1.299  0.00  0.00    +0.290 C 
ATOM      7  O   LIG    1       -3.339   2.606   1.454  0.00  0.00    -0.520 OA
ENDROOT
BRANCH   5   8
ATOM      8  C   LIG    1       -4.717  -2.552   1.637  0.00  0.00    +0.010 A 
ATOM      9  N   LIG    1       -5.001  -3.570   2.417  0.00  0.00    -0.270 NA
ATOM     10  N   LIG    1       -5.912  -4.281   1.852  0.00  0.00    -0.250 N 
ATOM     11  H   LIG    1       -6.293  -5.090   2.228  0.00  0.00    +0.470 HD
ATOM     12  N   LIG    1       -6.249  -3.774   0.719  0.00  0.00    -0.280 NA
ATOM     13  C   LIG    1       -5.545  -2.683   0.519  0.00  0.00    +0.180 A 
ENDBRANCH   5   8
BRANCH   1  14
ATOM     14  C   LIG    1       -1.395   2.322   0.146  0.00  0.00    -0.110 C 
ATOM     15  C   LIG    1       -0.659   3.509   0.771  0.00  0.00    +0.080 C 
ATOM     16  C   LIG    1       -0.056   2.105   0.854  0.00  0.00    +0.060 C 
BRANCH  14  22
ATOM     17  C   LIG    1       -2.570   2.526  -2.060  0.00  0.00    +0.140 A 
ATOM     18  C   LIG    1       -2.579   2.442  -3.445  0.00  0.00    -0.080 A 
ATOM     19  C   LIG    1       -1.436   2.062  -4.121  0.00  0.00    +0.050 A 
ATOM     20  C   LIG    1       -0.283   1.765  -3.418  0.00  0.00    -0.020 A 
ATOM     21  C   LIG    1       -0.271   1.847  -2.038  0.00  0.00    +0.050 A 
ATOM     22  C   LIG    1       -1.411   2.227  -1.357  0.00  0.00    -0.080 A 
BRANCH  17  24
ATOM     23  C   LIG    1       -4.880   3.074  -2.168  0.00  0.00    +0.240 C 
ATOM     24  O   LIG    1       -3.693   2.900  -1.393  0.00  0.00    -0.300 OA
ENDBRANCH  17  24
ENDBRANCH  14  22
ENDBRANCH   1  14
BRANCH   4  25
ATOM     25  O   LIG    1       -1.304  -1.824   2.099  0.00  0.00    -0.370 OA
ATOM     26  C   LIG    1       -0.220  -2.655   1.681  0.00  0.00    +0.200 C 
ENDBRANCH   4  25
TORSDOF 5
