REMARK  Name = ZINCpk00001AZiwD.1
REMARK                            x       y       z     vdW  Elec       q    Type
REMARK                         _______ _______ _______ _____ _____    ______ ____
ROOT
ATOM      1  C   LIG    1        4.970  -0.261   0.628  0.00  0.00    +0.590 C 
ATOM      2  N   LIG    1        5.288   1.047   0.566  0.00  0.00    -0.610 N 
ATOM      3  C   LIG    1        4.439   2.110   0.009  0.00  0.00    +0.230 C 
ATOM      4  C   LIG    1        5.201   3.441   0.178  0.00  0.00    +0.170 C 
ATOM      5  C   LIG    1        6.191   3.131   1.331  0.00  0.00    +0.110 C 
ATOM      6  C   LIG    1        6.542   1.650   1.052  0.00  0.00    +0.280 C 
ATOM      7  O   LIG    1        5.707  -1.038   1.196  0.00  0.00    -0.520 OA
ENDROOT
BRANCH   5   8
ATOM      8  C   LIG    1        7.415   4.005   1.242  0.00  0.00    -0.010 A 
ATOM      9  C   LIG    1        8.526   3.771   0.505  0.00  0.00    +0.150 A 
ATOM     10  N   LIG    1        9.355   4.816   0.730  0.00  0.00    -0.390 N 
ATOM     11  H   LIG    1       10.234   4.939   0.338  0.00  0.00    +0.450 HD
ATOM     12  N   LIG    1        8.779   5.617   1.556  0.00  0.00    -0.080 NA
ATOM     13  N   LIG    1        7.621   5.162   1.881  0.00  0.00    -0.250 NA
ENDBRANCH   5   8
BRANCH   1  14
ATOM     14  C   LIG    1        3.698  -0.758  -0.010  0.00  0.00    -0.110 C 
ATOM     15  C   LIG    1        3.012  -1.967   0.630  0.00  0.00    +0.090 C 
ATOM     16  C   LIG    1        2.397  -0.574   0.774  0.00  0.00    +0.050 C 
BRANCH  14  22
ATOM     17  C   LIG    1        4.753  -0.901  -2.280  0.00  0.00    +0.140 A 
ATOM     18  C   LIG    1        4.688  -0.785  -3.661  0.00  0.00    -0.080 A 
ATOM     19  C   LIG    1        3.506  -0.403  -4.266  0.00  0.00    +0.050 A 
ATOM     20  C   LIG    1        2.389  -0.136  -3.496  0.00  0.00    -0.020 A 
ATOM     21  C   LIG    1        2.451  -0.251  -2.120  0.00  0.00    +0.050 A 
ATOM     22  C   LIG    1        3.631  -0.633  -1.510  0.00  0.00    -0.080 A 
BRANCH  17  24
ATOM     23  C   LIG    1        7.058  -1.433  -2.526  0.00  0.00    +0.240 C 
ATOM     24  O   LIG    1        5.915  -1.278  -1.683  0.00  0.00    -0.300 OA
ENDBRANCH  17  24
ENDBRANCH  14  22
ENDBRANCH   1  14
BRANCH   4  25
ATOM     25  O   LIG    1        4.306   4.492   0.549  0.00  0.00    -0.360 OA
ATOM     26  C   LIG    1        3.689   5.148  -0.560  0.00  0.00    +0.200 C 
ENDBRANCH   4  25
TORSDOF 5
