REMARK  Name = ZINCvU00000004kY.0
REMARK                            x       y       z     vdW  Elec       q    Type
REMARK                         _______ _______ _______ _____ _____    ______ ____
ROOT
ATOM      1  C   LIG    1        1.750   2.577   0.420  0.00  0.00    +0.090 C 
ATOM      2  C   LIG    1        0.537   2.808  -0.484  0.00  0.00    +0.080 C 
ATOM      3  C   LIG    1        0.674   1.956  -1.748  0.00  0.00    +0.020 C 
ATOM      4  C   LIG    1        1.949   2.353  -2.496  0.00  0.00    +0.420 C 
ATOM      5  N   LIG    1        1.878   3.775  -2.853  0.00  0.00    -0.740 N 
ATOM      6  H   LIG    1        2.375   4.436  -2.348  0.00  0.00    +0.410 HD
ATOM      7  C   LIG    1        1.084   4.157  -3.929  0.00  0.00    +0.240 A 
ATOM      8  C   LIG    1        0.490   5.406  -3.990  0.00  0.00    -0.050 A 
ATOM      9  C   LIG    1       -0.276   5.747  -5.088  0.00  0.00    +0.080 A 
ATOM     10  C   LIG    1       -0.453   4.849  -6.130  0.00  0.00    -0.040 A 
ATOM     11  C   LIG    1        0.126   3.598  -6.082  0.00  0.00    +0.120 A 
ATOM     12  C   LIG    1        0.894   3.238  -4.977  0.00  0.00    -0.200 A 
ATOM     13  C   LIG    1        1.509   1.904  -4.865  0.00  0.00    +0.580 C 
ATOM     14  O   LIG    1        1.502   1.144  -5.814  0.00  0.00    -0.520 OA
ATOM     15  C   LIG    1        3.161   2.122  -1.590  0.00  0.00    +0.040 C 
ATOM     16  N   LIG    1        2.081   1.534  -3.702  0.00  0.00    -0.580 N 
ATOM     17  C   LIG    1        3.025   2.973  -0.327  0.00  0.00    +0.070 C 
ENDROOT
BRANCH  16  18
ATOM     18  C   LIG    1        2.815   0.344  -3.646  0.00  0.00    +0.130 A 
ATOM     19  C   LIG    1        2.210  -0.826  -3.205  0.00  0.00    +0.050 A 
ATOM     20  C   LIG    1        2.935  -2.001  -3.156  0.00  0.00    +0.000 A 
ATOM     21  C   LIG    1        4.266  -2.010  -3.537  0.00  0.00    +0.110 A 
ATOM     22  C   LIG    1        4.873  -0.844  -3.971  0.00  0.00    +0.000 A 
ATOM     23  F   LIG    1        4.975  -3.160  -3.483  0.00  0.00    -0.130 F 
ATOM     24  C   LIG    1        4.150   0.332  -4.027  0.00  0.00    +0.050 A 
ENDBRANCH  16  18
BRANCH   1  25
ATOM     25  C   LIG    1        1.615   3.416   1.665  0.00  0.00    -0.080 A 
ATOM     26  C   LIG    1        2.577   4.361   1.969  0.00  0.00    +0.020 A 
ATOM     27  C   LIG    1        2.451   5.134   3.108  0.00  0.00    +0.010 A 
ATOM     28  C   LIG    1        1.369   4.954   3.949  0.00  0.00    +0.010 A 
ATOM     29  C   LIG    1        0.410   4.005   3.648  0.00  0.00    +0.020 A 
ATOM     30  C   LIG    1        0.533   3.236   2.506  0.00  0.00    +0.010 A 
ENDBRANCH   1  25
BRANCH   1  32
ATOM     31  N   LIG    1        1.876   0.057   1.079  0.00  0.00    -0.410 NA
ATOM     32  C   LIG    1        1.821   1.154   0.792  0.00  0.00    +0.210 C 
ENDBRANCH   1  32
TORSDOF 3
