REMARK  Name = ZINCrH000004kZpw.0
REMARK                            x       y       z     vdW  Elec       q    Type
REMARK                         _______ _______ _______ _____ _____    ______ ____
ROOT
ATOM      1  N   LIG    1        3.055   0.564  -1.600  0.00  0.00    -1.060 N 
ATOM      2  H   LIG    1        2.931  -0.340  -1.929  0.00  0.00    +0.430 HD
ENDROOT
BRANCH   1   3
ATOM      3  C   LIG    1        3.406   1.587  -2.484  0.00  0.00    +0.120 A 
ATOM      4  C   LIG    1        2.459   2.101  -3.363  0.00  0.00    +0.030 A 
ATOM      5  C   LIG    1        2.798   3.117  -4.237  0.00  0.00    +0.030 A 
ATOM      6  C   LIG    1        4.082   3.623  -4.250  0.00  0.00    +0.050 A 
ATOM      7  C   LIG    1        5.044   3.110  -3.373  0.00  0.00    +0.020 A 
ATOM      8  C   LIG    1        4.699   2.087  -2.487  0.00  0.00    +0.060 A 
BRANCH   7   9
ATOM      9  C   LIG    1        6.377   3.632  -3.385  0.00  0.00    -0.100 C 
ATOM     10  C   LIG    1        7.470   4.060  -3.394  0.00  0.00    -0.080 C 
BRANCH  10  11
ATOM     11  C   LIG    1        8.804   4.582  -3.405  0.00  0.00    -0.100 A 
ATOM     12  C   LIG    1        9.255   5.577  -4.222  0.00  0.00    +0.050 A 
ATOM     13  C   LIG    1       10.581   5.903  -4.042  0.00  0.00    +0.010 A 
ATOM     14  C   LIG    1       11.218   5.199  -3.100  0.00  0.00    -0.040 A 
ATOM     15  S   LIG    1       10.115   4.046  -2.362  0.00  0.00    +0.150 S 
ENDBRANCH  10  11
ENDBRANCH   7   9
ENDBRANCH   1   3
BRANCH   1  16
ATOM     16  S   LIG    1        2.853   0.893   0.010  0.00  0.00    +2.690 S 
ATOM     17  O   LIG    1        2.435  -0.321   0.619  0.00  0.00    -0.940 OA
ATOM     18  O   LIG    1        4.008   1.611   0.421  0.00  0.00    -0.940 OA
BRANCH  16  22
ATOM     19  C   LIG    1       -0.633   3.766   0.362  0.00  0.00    -0.070 A 
ATOM     20  C   LIG    1       -0.863   2.391   0.286  0.00  0.00    +0.070 A 
ATOM     21  C   LIG    1        0.203   1.522   0.184  0.00  0.00    +0.120 A 
ATOM     22  C   LIG    1        1.497   2.010   0.147  0.00  0.00    -0.650 A 
ATOM     23  C   LIG    1        1.732   3.372   0.217  0.00  0.00    +0.130 A 
ATOM     24  C   LIG    1        0.675   4.253   0.324  0.00  0.00    +0.080 A 
BRANCH  19  25
ATOM     25  C   LIG    1       -1.770   4.703   0.476  0.00  0.00    +0.500 C 
ATOM     26  O   LIG    1       -1.567   5.899   0.538  0.00  0.00    -0.490 OA
BRANCH  25  28
ATOM     27  C   LIG    1       -4.098   5.209   0.626  0.00  0.00    +0.290 C 
ATOM     28  O   LIG    1       -3.031   4.231   0.513  0.00  0.00    -0.350 OA
ENDBRANCH  25  28
ENDBRANCH  19  25
ENDBRANCH  16  22
ENDBRANCH   1  16
TORSDOF 7
