REMARK  Name = ZINCnE000001Nbia.0
REMARK                            x       y       z     vdW  Elec       q    Type
REMARK                         _______ _______ _______ _____ _____    ______ ____
ROOT
ATOM      1  C   LIG    1       -4.837   4.711   0.074  0.00  0.00    -0.330 A 
ATOM      2  C   LIG    1       -3.851   5.661   0.062  0.00  0.00    +0.290 A 
ATOM      3  N   LIG    1       -2.640   5.170   0.058  0.00  0.00    -0.470 NA
ATOM      4  C   LIG    1       -2.521   3.872   0.056  0.00  0.00    +0.030 A 
ATOM      5  S   LIG    1       -4.060   3.130   0.073  0.00  0.00    +0.290 S 
ENDROOT
BRANCH   1  11
ATOM      6  C   LIG    1       -8.602   1.240   1.177  0.00  0.00    +0.030 C 
ATOM      7  C   LIG    1       -8.095   1.710  -0.188  0.00  0.00    -0.140 C 
ATOM      8  C   LIG    1       -9.068   2.747  -0.809  0.00  0.00    +0.050 C 
ATOM      9  C   LIG    1       -8.613   4.054  -0.110  0.00  0.00    +0.260 C 
ATOM     10  N   LIG    1       -7.146   3.937  -0.013  0.00  0.00    -0.610 N 
ATOM     11  C   LIG    1       -6.280   4.965   0.086  0.00  0.00    +0.610 C 
ATOM     12  O   LIG    1       -6.697   6.104   0.187  0.00  0.00    -0.540 OA
ATOM     13  C   LIG    1       -6.785   2.512  -0.038  0.00  0.00    +0.260 C 
BRANCH   7  14
ATOM     14  C   LIG    1       -7.898   0.537  -1.114  0.00  0.00    +0.510 C 
ATOM     15  O   LIG    1       -8.543   0.460  -2.146  0.00  0.00    -0.690 OA
ATOM     16  O   LIG    1       -7.095  -0.336  -0.831  0.00  0.00    -0.690 OA
ENDBRANCH   7  14
ENDBRANCH   1  11
BRANCH   4  17
ATOM     17  C   LIG    1       -1.235   3.145   0.047  0.00  0.00    -0.010 A 
ATOM     18  C   LIG    1       -0.030   3.850   0.033  0.00  0.00    +0.090 A 
ATOM     19  C   LIG    1        1.167   3.165   0.025  0.00  0.00    +0.020 A 
ATOM     20  C   LIG    1        1.177   1.781   0.029  0.00  0.00    +0.040 A 
ATOM     21  C   LIG    1       -0.013   1.075   0.043  0.00  0.00    +0.040 A 
ATOM     22  C   LIG    1       -1.219   1.748   0.046  0.00  0.00    -0.040 A 
ATOM     23 CL   LIG    1       -2.711   0.860   0.056  0.00  0.00    -0.010 Cl
ENDBRANCH   4  17
TORSDOF 3
