REMARK  Name = ZINCpe000027pGQT.0
REMARK                            x       y       z     vdW  Elec       q    Type
REMARK                         _______ _______ _______ _____ _____    ______ ____
ROOT
ATOM      1  N   LIG    1       -0.273   1.268   4.898  0.00  0.00    -0.670 N 
ATOM      2  H   LIG    1        0.519   0.717   5.004  0.00  0.00    +0.410 HD
ATOM      3  C   LIG    1       -0.708   1.592   3.665  0.00  0.00    +0.520 C 
ATOM      4  O   LIG    1       -1.644   2.352   3.532  0.00  0.00    -0.490 OA
ENDROOT
BRANCH   1   9
ATOM      5  C   LIG    1       -1.740   1.386   8.272  0.00  0.00    +0.160 A 
ATOM      6  C   LIG    1       -2.329   2.644   8.256  0.00  0.00    -0.030 A 
ATOM      7  C   LIG    1       -2.233   3.438   7.130  0.00  0.00    +0.050 A 
ATOM      8  C   LIG    1       -1.553   2.984   6.016  0.00  0.00    +0.010 A 
ATOM      9  C   LIG    1       -0.962   1.727   6.026  0.00  0.00    +0.160 A 
ATOM     10  C   LIG    1       -1.061   0.925   7.154  0.00  0.00    -0.010 A 
BRANCH   5  13
ATOM     11  C   LIG    1       -0.966  -1.177  10.919  0.00  0.00    +0.110 C 
ATOM     12  C   LIG    1       -0.821  -0.236   9.751  0.00  0.00    +0.510 C 
ATOM     13  N   LIG    1       -1.838   0.581   9.413  0.00  0.00    -0.680 N 
ATOM     14  H   LIG    1       -2.638   0.612   9.961  0.00  0.00    +0.410 HD
ATOM     15  O   LIG    1        0.211  -0.214   9.114  0.00  0.00    -0.530 OA
ENDBRANCH   5  13
ENDBRANCH   1   9
BRANCH   3  16
ATOM     16  C   LIG    1       -0.032   1.010   2.450  0.00  0.00    +0.140 C 
ATOM     17  C   LIG    1        1.194   1.854   2.095  0.00  0.00    +0.080 C 
BRANCH  16  18
ATOM     18  N   LIG    1       -0.971   1.009   1.320  0.00  0.00    -0.510 NA
ATOM     19  C   LIG    1       -2.140   0.169   1.608  0.00  0.00    +0.180 C 
ATOM     20  C   LIG    1       -3.174   0.336   0.490  0.00  0.00    +0.310 C 
ATOM     21  N   LIG    1       -2.517   0.067  -0.798  0.00  0.00    -1.010 NA
ATOM     22  C   LIG    1       -1.262   0.772  -1.100  0.00  0.00    +0.310 C 
ATOM     23  C   LIG    1       -0.303   0.588   0.081  0.00  0.00    +0.190 C 
BRANCH  21  24
ATOM     24  S   LIG    1       -3.172  -1.002  -1.880  0.00  0.00    +2.760 S 
ATOM     25  F   LIG    1       -4.023  -0.142  -2.943  0.00  0.00    -0.480 F 
ATOM     26  O   LIG    1       -4.111  -1.783  -1.153  0.00  0.00    -0.940 OA
ATOM     27  O   LIG    1       -2.083  -1.564  -2.599  0.00  0.00    -0.940 OA
ENDBRANCH  21  24
ENDBRANCH  16  18
ENDBRANCH   3  16
TORSDOF 5
