REMARK  Name = ZINCkj00000dDqUl.1
REMARK                            x       y       z     vdW  Elec       q    Type
REMARK                         _______ _______ _______ _____ _____    ______ ____
ROOT
ATOM      1  C   LIG    1       -0.013   1.086   0.008  0.00  0.00    +0.180 C 
ATOM      2  C   LIG    1        1.423   1.617  -0.003  0.00  0.00    +0.030 C 
ATOM      3  C   LIG    1        2.140   1.153   1.268  0.00  0.00    +0.070 C 
ATOM      4  C   LIG    1        1.366   1.645   2.493  0.00  0.00    +0.180 C 
ATOM      5  N   LIG    1       -0.001   1.110   2.458  0.00  0.00    -0.510 NA
ATOM      6  C   LIG    1       -0.725   1.580   1.269  0.00  0.00    +0.200 C 
ENDROOT
BRANCH   1   7
ATOM      7  N   LIG    1       -0.725   1.573  -1.181  0.00  0.00    -0.380 N 
ATOM      8  C   LIG    1       -2.103   1.065  -1.169  0.00  0.00    +0.330 C 
ATOM      9  H   LIG    1       -0.738   2.582  -1.175  0.00  0.00    +0.420 HD
BRANCH   7  10
ATOM     10  C   LIG    1       -0.039   1.100  -2.391  0.00  0.00    +0.250 C 
BRANCH  10  11
ATOM     11  C   LIG    1       -0.706   1.708  -3.626  0.00  0.00    +0.040 C 
BRANCH  11  12
ATOM     12  C   LIG    1        0.009   1.215  -4.886  0.00  0.00    +0.180 C 
BRANCH  12  14
ATOM     13  C   LIG    1       -0.020   1.385  -7.277  0.00  0.00    +0.230 C 
ATOM     14  O   LIG    1       -0.614   1.784  -6.040  0.00  0.00    -0.390 OA
ENDBRANCH  12  14
ENDBRANCH  11  12
ENDBRANCH  10  11
ENDBRANCH   7  10
ENDBRANCH   1   7
BRANCH   5  15
ATOM     15  C   LIG    1       -0.731   1.448   3.687  0.00  0.00    +0.390 C 
BRANCH  15  16
ATOM     16  C   LIG    1       -0.932   2.940   3.757  0.00  0.00    +0.120 A 
ATOM     17  N   LIG    1       -0.129   3.799   4.311  0.00  0.00    -0.370 NA
ATOM     18  O   LIG    1       -0.573   4.922   4.197  0.00  0.00    +0.080 OA
ATOM     19  C   LIG    1       -1.741   4.884   3.548  0.00  0.00    +0.190 A 
ATOM     20  C   LIG    1       -2.618   6.062   3.209  0.00  0.00    +0.250 C 
ATOM     21  N   LIG    1       -1.978   3.626   3.264  0.00  0.00    -0.490 NA
ENDBRANCH  15  16
ENDBRANCH   5  15
TORSDOF 7
