REMARK  Name = ZINCkj00000dDqUl.0
REMARK                            x       y       z     vdW  Elec       q    Type
REMARK                         _______ _______ _______ _____ _____    ______ ____
ROOT
ATOM      1  C   LIG    1       -0.729   1.579   1.267  0.00  0.00    +0.180 C 
ATOM      2  C   LIG    1       -0.764   3.110   1.262  0.00  0.00    +0.040 C 
ATOM      3  C   LIG    1       -1.466   3.591  -0.011  0.00  0.00    +0.060 C 
ATOM      4  C   LIG    1       -0.729   3.040  -1.234  0.00  0.00    +0.190 C 
ATOM      5  N   LIG    1       -0.723   1.572  -1.182  0.00  0.00    -0.530 NA
ATOM      6  C   LIG    1       -0.013   1.086   0.008  0.00  0.00    +0.200 C 
ENDROOT
BRANCH   1   7
ATOM      7  N   LIG    1       -0.006   1.110   2.458  0.00  0.00    -0.380 N 
ATOM      8  C   LIG    1       -0.694   1.584   3.666  0.00  0.00    +0.330 C 
ATOM      9  H   LIG    1        0.936   1.471   2.443  0.00  0.00    +0.420 HD
BRANCH   7  10
ATOM     10  C   LIG    1        0.032  -0.358   2.460  0.00  0.00    +0.260 C 
BRANCH  10  11
ATOM     11  C   LIG    1        0.889  -0.844   3.631  0.00  0.00    +0.050 C 
BRANCH  11  12
ATOM     12  C   LIG    1        0.929  -2.374   3.633  0.00  0.00    +0.180 C 
BRANCH  12  14
ATOM     13  C   LIG    1        1.833  -4.250   4.820  0.00  0.00    +0.230 C 
ATOM     14  O   LIG    1        1.730  -2.828   4.726  0.00  0.00    -0.390 OA
ENDBRANCH  12  14
ENDBRANCH  11  12
ENDBRANCH  10  11
ENDBRANCH   7  10
ENDBRANCH   1   7
BRANCH   5  15
ATOM     15  C   LIG    1       -0.145   1.005  -2.408  0.00  0.00    +0.340 C 
BRANCH  15  16
ATOM     16  C   LIG    1       -1.039   1.323  -3.578  0.00  0.00    +0.170 A 
ATOM     17  N   LIG    1       -2.021   0.595  -4.017  0.00  0.00    -0.360 NA
ATOM     18  O   LIG    1       -2.547   1.128  -4.971  0.00  0.00    +0.080 OA
ATOM     19  C   LIG    1       -1.925   2.279  -5.246  0.00  0.00    +0.190 A 
ATOM     20  C   LIG    1       -2.263   3.239  -6.357  0.00  0.00    +0.250 C 
ATOM     21  N   LIG    1       -0.963   2.412  -4.365  0.00  0.00    -0.490 NA
ENDBRANCH  15  16
ENDBRANCH   5  15
TORSDOF 7
