REMARK  Name = ZINCpe00000xZvQh.0
REMARK                            x       y       z     vdW  Elec       q    Type
REMARK                         _______ _______ _______ _____ _____    ______ ____
ROOT
ATOM      1  C   LIG    1        7.021   2.276  -0.442  0.00  0.00    +0.040 C 
ATOM      2  C   LIG    1        6.762   1.604   0.908  0.00  0.00    -0.090 C 
ATOM      3  C   LIG    1        6.169   2.625   1.880  0.00  0.00    +0.040 C 
ENDROOT
BRANCH   2   4
ATOM      4  C   LIG    1        5.778   0.447   0.721  0.00  0.00    +0.290 C 
BRANCH   4   5
ATOM      5  N   LIG    1        4.517   0.961   0.180  0.00  0.00    -0.730 N 
ATOM      6  H   LIG    1        4.417   1.909   0.001  0.00  0.00    +0.400 HD
ATOM      7  C   LIG    1        3.496   0.117  -0.067  0.00  0.00    +0.560 C 
ATOM      8  O   LIG    1        3.621  -1.068   0.157  0.00  0.00    -0.520 OA
BRANCH   7   9
ATOM      9  C   LIG    1        2.199   0.646  -0.623  0.00  0.00    -0.180 C 
ATOM     10  C   LIG    1        2.184   1.978  -1.377  0.00  0.00    +0.100 C 
ATOM     11  C   LIG    1        1.070  -0.361  -0.885  0.00  0.00    +0.120 C 
ATOM     12  C   LIG    1        0.679  -0.542  -2.352  0.00  0.00    +0.010 C 
ATOM     13  C   LIG    1        0.492  -2.036  -2.028  0.00  0.00    +0.010 C 
ATOM     14  C   LIG    1        1.484  -1.832  -0.867  0.00  0.00    +0.070 C 
ATOM     15  O   LIG    1        0.002  -0.004   0.002  0.00  0.00    -0.340 OA
ATOM     16  C   LIG    1       -0.018   1.442   0.010  0.00  0.00    +0.240 C 
ATOM     17  C   LIG    1        1.470   1.862  -0.002  0.00  0.00    -0.040 C 
ENDBRANCH   7   9
ENDBRANCH   4   5
ENDBRANCH   2   4
BRANCH   2  18
ATOM     18  C   LIG    1        8.079   1.067   1.472  0.00  0.00    +0.290 C 
BRANCH  18  19
ATOM     19  N   LIG    1        9.021   2.174   1.651  0.00  0.00    -0.710 N 
ATOM     20  H   LIG    1        8.757   3.078   1.418  0.00  0.00    +0.410 HD
ATOM     21  C   LIG    1       10.254   1.937   2.139  0.00  0.00    +0.500 C 
ATOM     22  O   LIG    1       10.585   0.807   2.430  0.00  0.00    -0.490 OA
BRANCH  21  23
ATOM     23  C   LIG    1       11.224   3.076   2.324  0.00  0.00    +0.290 C 
ATOM     24  F   LIG    1       10.997   3.686   3.562  0.00  0.00    -0.170 F 
ATOM     25  F   LIG    1       11.041   4.014   1.302  0.00  0.00    -0.180 F 
BRANCH  23  26
ATOM     26  C   LIG    1       12.656   2.540   2.274  0.00  0.00    +0.220 C 
BRANCH  26  27
ATOM     27  O   LIG    1       12.888   1.917   1.009  0.00  0.00    -0.550 OA
ATOM     28  H   LIG    1       13.778   1.554   0.907  0.00  0.00    +0.400 HD
ENDBRANCH  26  27
ENDBRANCH  23  26
ENDBRANCH  21  23
ENDBRANCH  18  19
ENDBRANCH   2  18
TORSDOF 8
