REMARK  Name = ZINCqH0000004Uqp.0
REMARK                            x       y       z     vdW  Elec       q    Type
REMARK                         _______ _______ _______ _____ _____    ______ ____
ROOT
ATOM      1  C   LIG    1       -3.822   3.361   2.635  0.00  0.00    +0.490 A 
ATOM      2  C   LIG    1       -4.683   4.485   2.684  0.00  0.00    -0.220 A 
ATOM      3  C   LIG    1       -5.185   5.337   1.613  0.00  0.00    -0.030 A 
ATOM      4  C   LIG    1       -5.986   6.319   2.021  0.00  0.00    -0.020 A 
ATOM      5  S   LIG    1       -6.207   6.281   3.759  0.00  0.00    +0.190 S 
ATOM      6  C   LIG    1       -5.159   4.881   3.935  0.00  0.00    +0.120 A 
ATOM      7  N   LIG    1       -4.779   4.197   5.022  0.00  0.00    -0.530 NA
ATOM      8  C   LIG    1       -3.975   3.163   4.925  0.00  0.00    +0.560 A 
ATOM      9  N   LIG    1       -3.502   2.747   3.764  0.00  0.00    -0.580 NA
ENDROOT
BRANCH   3  10
ATOM     10  C   LIG    1       -4.832   5.127   0.188  0.00  0.00    -0.050 A 
ATOM     11  C   LIG    1       -3.497   5.148  -0.212  0.00  0.00    +0.050 A 
ATOM     12  C   LIG    1       -3.174   4.947  -1.538  0.00  0.00    -0.010 A 
ATOM     13  C   LIG    1       -4.174   4.736  -2.473  0.00  0.00    +0.110 A 
ATOM     14  C   LIG    1       -5.503   4.720  -2.081  0.00  0.00    -0.010 A 
ATOM     15  F   LIG    1       -3.853   4.545  -3.772  0.00  0.00    -0.130 F 
ATOM     16  C   LIG    1       -5.836   4.914  -0.756  0.00  0.00    +0.070 A 
ENDBRANCH   3  10
BRANCH   1  17
ATOM     17  N   LIG    1       -3.319   2.914   1.426  0.00  0.00    -0.700 N 
ATOM     18  H   LIG    1       -3.621   3.316   0.596  0.00  0.00    +0.410 HD
BRANCH  17  19
ATOM     19  C   LIG    1       -2.330   1.833   1.398  0.00  0.00    +0.280 C 
BRANCH  19  20
ATOM     20  C   LIG    1       -1.943   1.534  -0.051  0.00  0.00    +0.150 C 
BRANCH  20  25
ATOM     21  N   LIG    1       -1.188  -0.905  -0.158  0.00  0.00    -0.470 N 
ATOM     22  C   LIG    1        0.016  -1.525  -0.160  0.00  0.00    +0.380 A 
ATOM     23  N   LIG    1        0.931  -0.598  -0.086  0.00  0.00    -0.290 NA
ATOM     24  N   LIG    1        0.372   0.559  -0.038  0.00  0.00    -0.280 NA
ATOM     25  C   LIG    1       -0.925   0.422  -0.079  0.00  0.00    +0.180 A 
BRANCH  21  27
ATOM     26  C   LIG    1       -2.983  -1.571  -1.679  0.00  0.00    +0.040 C 
ATOM     27  C   LIG    1       -2.507  -1.540  -0.226  0.00  0.00    +0.300 C 
ENDBRANCH  21  27
ENDBRANCH  20  25
ENDBRANCH  19  20
ENDBRANCH  17  19
ENDBRANCH   1  17
TORSDOF 6
