REMARK  Name = ZINCrg000000tOKZ.0
REMARK                            x       y       z     vdW  Elec       q    Type
REMARK                         _______ _______ _______ _____ _____    ______ ____
ROOT
ATOM      1  O   LIG    1       -3.042  -0.245  -1.750  0.00  0.00    -0.500 OA
ATOM      2  C   LIG    1       -1.850  -0.090  -1.570  0.00  0.00    +0.610 C 
ATOM      3  N   LIG    1       -1.242  -0.693  -0.529  0.00  0.00    -0.580 N 
ENDROOT
BRANCH   3   4
ATOM      4  C   LIG    1        0.146  -0.358  -0.198  0.00  0.00    +0.290 C 
ATOM      5  C   LIG    1        1.078  -0.778  -1.348  0.00  0.00    +0.050 C 
ATOM      6  C   LIG    1        2.455  -0.120  -1.133  0.00  0.00    -0.300 C 
ATOM      7  S   LIG    1        2.109   1.415  -0.201  0.00  0.00    +2.380 S 
ATOM      8  O   LIG    1        2.710   1.332   1.084  0.00  0.00    -0.920 OA
ATOM      9  O   LIG    1        2.364   2.539  -1.032  0.00  0.00    -0.900 OA
ATOM     10  C   LIG    1        0.299   1.177  -0.041  0.00  0.00    -0.330 C 
ENDBRANCH   3   4
BRANCH   2  11
ATOM     11  C   LIG    1       -1.068   0.760  -2.491  0.00  0.00    -0.070 A 
ATOM     12  N   LIG    1       -1.511   1.306  -3.609  0.00  0.00    -0.160 NA
ATOM     13  N   LIG    1       -0.564   1.982  -4.160  0.00  0.00    -0.150 N 
ATOM     14  N   LIG    1        0.584   1.884  -3.364  0.00  0.00    -0.250 NA
ATOM     15  C   LIG    1        0.277   1.136  -2.330  0.00  0.00    +0.210 A 
BRANCH  13  16
ATOM     16  C   LIG    1       -0.666   2.699  -5.360  0.00  0.00    +0.140 A 
ATOM     17  C   LIG    1       -1.817   2.606  -6.131  0.00  0.00    +0.030 A 
ATOM     18  C   LIG    1       -1.917   3.318  -7.310  0.00  0.00    +0.040 A 
ATOM     19  C   LIG    1       -0.867   4.115  -7.729  0.00  0.00    +0.020 A 
ATOM     20  C   LIG    1        0.284   4.205  -6.966  0.00  0.00    +0.040 A 
ATOM     21  C   LIG    1        0.387   3.499  -5.783  0.00  0.00    +0.050 A 
ENDBRANCH  13  16
ENDBRANCH   2  11
BRANCH   3  22
ATOM     22  C   LIG    1       -1.967  -1.683   0.270  0.00  0.00    +0.330 C 
BRANCH  22  23
ATOM     23  C   LIG    1       -2.682  -0.980   1.426  0.00  0.00    +0.140 C 
ATOM     24  C   LIG    1       -3.449  -2.014   2.274  0.00  0.00    +0.010 C 
ATOM     25  C   LIG    1       -2.852  -1.858   3.694  0.00  0.00    +0.000 C 
ATOM     26  C   LIG    1       -2.236  -0.437   3.632  0.00  0.00    +0.200 C 
ATOM     27  O   LIG    1       -1.718  -0.352   2.288  0.00  0.00    -0.370 OA
ENDBRANCH  22  23
ENDBRANCH   3  22
TORSDOF 5
