REMARK  Name = ZINCqH00000360Pq.0
REMARK                            x       y       z     vdW  Elec       q    Type
REMARK                         _______ _______ _______ _____ _____    ______ ____
ROOT
ATOM      1  N   LIG    1       -6.016   1.851   0.353  0.00  0.00    -0.520 NA
ATOM      2  C   LIG    1       -5.954   2.608   1.611  0.00  0.00    +0.190 C 
ATOM      3  C   LIG    1       -7.097   3.625   1.649  0.00  0.00    +0.190 C 
ATOM      4  N   LIG    1       -8.380   2.920   1.525  0.00  0.00    -0.500 N 
ATOM      5  C   LIG    1       -8.443   2.163   0.267  0.00  0.00    +0.200 C 
ATOM      6  C   LIG    1       -7.299   1.146   0.230  0.00  0.00    +0.200 C 
ENDROOT
BRANCH   4   7
ATOM      7  C   LIG    1       -9.453   3.810   1.628  0.00  0.00    +0.110 A 
ATOM      8  C   LIG    1       -9.626   4.804   0.674  0.00  0.00    +0.010 A 
ATOM      9  C   LIG    1      -10.688   5.683   0.778  0.00  0.00    -0.020 A 
ATOM     10  C   LIG    1      -11.579   5.572   1.831  0.00  0.00    +0.040 A 
ATOM     11  C   LIG    1      -11.409   4.582   2.783  0.00  0.00    +0.060 A 
ATOM     12 CL   LIG    1      -10.905   6.926  -0.414  0.00  0.00    -0.060 Cl
ATOM     13  C   LIG    1      -10.353   3.698   2.682  0.00  0.00    -0.010 A 
ATOM     14 CL   LIG    1      -10.145   2.452   3.873  0.00  0.00    -0.040 Cl
ENDBRANCH   4   7
BRANCH   1  15
ATOM     15  C   LIG    1       -4.888   0.916   0.245  0.00  0.00    +0.220 C 
BRANCH  15  18
ATOM     16  N   LIG    1       -2.428   1.037   0.019  0.00  0.00    -0.670 N 
ATOM     17  H   LIG    1       -2.418   0.071  -0.063  0.00  0.00    +0.410 HD
ATOM     18  C   LIG    1       -3.602   1.691   0.130  0.00  0.00    +0.510 C 
ATOM     19  O   LIG    1       -3.622   2.904   0.137  0.00  0.00    -0.500 OA
BRANCH  16  23
ATOM     20  C   LIG    1        1.158   3.165   0.036  0.00  0.00    +0.110 A 
ATOM     21  C   LIG    1        0.082   3.614   0.787  0.00  0.00    +0.010 A 
ATOM     22  C   LIG    1       -1.107   2.912   0.779  0.00  0.00    +0.060 A 
ATOM     23  C   LIG    1       -1.224   1.753   0.023  0.00  0.00    +0.110 A 
ATOM     24  C   LIG    1       -0.148   1.307  -0.732  0.00  0.00    +0.030 A 
ATOM     25  C   LIG    1        1.040   2.010  -0.724  0.00  0.00    -0.060 A 
BRANCH  20  27
ATOM     26  C   LIG    1        3.395   3.337  -0.753  0.00  0.00    +0.250 C 
ATOM     27  O   LIG    1        2.328   3.857   0.044  0.00  0.00    -0.320 OA
ENDBRANCH  20  27
ENDBRANCH  16  23
ENDBRANCH  15  18
ENDBRANCH   1  15
TORSDOF 5
