REMARK  Name = ZINCtV00000L6kwh.0
REMARK                            x       y       z     vdW  Elec       q    Type
REMARK                         _______ _______ _______ _____ _____    ______ ____
ROOT
ATOM      1  C   LIG    1        2.727   0.698   0.164  0.00  0.00    -0.150 A 
ATOM      2  C   LIG    1        3.912   1.407   0.375  0.00  0.00    +0.050 A 
ATOM      3  C   LIG    1        3.891   2.784   0.418  0.00  0.00    +0.020 A 
ATOM      4  C   LIG    1        2.700   3.471   0.247  0.00  0.00    +0.060 A 
ATOM      5  C   LIG    1        1.522   2.786   0.031  0.00  0.00    +0.010 A 
ATOM      6  C   LIG    1        1.523   1.398  -0.015  0.00  0.00    +0.210 A 
ENDROOT
BRANCH   1   8
ATOM      7  O   LIG    1        1.720  -1.387  -0.129  0.00  0.00    -0.490 OA
ATOM      8  C   LIG    1        2.741  -0.776   0.123  0.00  0.00    +0.560 C 
ATOM      9  N   LIG    1        3.885  -1.446   0.365  0.00  0.00    -0.670 N 
ATOM     10  H   LIG    1        4.712  -0.958   0.506  0.00  0.00    +0.420 HD
BRANCH   9  11
ATOM     11  C   LIG    1        3.881  -2.845   0.411  0.00  0.00    +0.140 A 
ATOM     12  C   LIG    1        2.999  -3.564  -0.384  0.00  0.00    +0.090 A 
ATOM     13  C   LIG    1        2.996  -4.946  -0.338  0.00  0.00    +0.050 A 
ATOM     14  C   LIG    1        3.871  -5.614   0.501  0.00  0.00    +0.080 A 
ATOM     15  C   LIG    1        4.754  -4.900   1.297  0.00  0.00    +0.060 A 
ATOM     16  F   LIG    1        5.607  -5.555   2.114  0.00  0.00    -0.110 F 
ATOM     17  F   LIG    1        3.865  -6.965   0.543  0.00  0.00    -0.120 F 
ATOM     18  C   LIG    1        4.764  -3.517   1.249  0.00  0.00    +0.070 A 
ATOM     19  F   LIG    1        5.628  -2.820   2.020  0.00  0.00    -0.120 F 
ENDBRANCH   9  11
ENDBRANCH   1   8
BRANCH   6  20
ATOM     20  N   LIG    1        0.338   0.706  -0.232  0.00  0.00    -0.690 N 
ATOM     21  H   LIG    1       -0.027   0.637  -1.128  0.00  0.00    +0.410 HD
BRANCH  20  22
ATOM     22  C   LIG    1       -0.333   0.112   0.845  0.00  0.00    +0.240 A 
ATOM     23  C   LIG    1        0.115   0.321   2.143  0.00  0.00    -0.050 A 
ATOM     24  C   LIG    1       -0.549  -0.260   3.204  0.00  0.00    +0.050 A 
ATOM     25  C   LIG    1       -1.658  -1.064   2.973  0.00  0.00    -0.150 A 
ATOM     26  C   LIG    1       -2.103  -1.278   1.675  0.00  0.00    +0.090 A 
ATOM     27  C   LIG    1       -1.442  -0.691   0.614  0.00  0.00    -0.030 A 
BRANCH  25  28
ATOM     28  S   LIG    1       -2.501  -1.812   4.327  0.00  0.00    -0.100 S 
BRANCH  28  29
ATOM     29  C   LIG    1       -1.555  -1.238   5.765  0.00  0.00    +0.430 C 
ATOM     30  F   LIG    1       -1.588   0.159   5.817  0.00  0.00    -0.180 F 
ATOM     31  F   LIG    1       -0.229  -1.669   5.652  0.00  0.00    -0.180 F 
ENDBRANCH  28  29
ENDBRANCH  25  28
ENDBRANCH  20  22
ENDBRANCH   6  20
TORSDOF 6
