REMARK  Name = ZINCpk00000y6xOq.0
REMARK                            x       y       z     vdW  Elec       q    Type
REMARK                         _______ _______ _______ _____ _____    ______ ____
ROOT
ATOM      1  N   LIG    1       -0.721   1.571  -1.179  0.00  0.00    -0.720 N 
ATOM      2  H   LIG    1       -1.516   2.118  -1.079  0.00  0.00    +0.400 HD
ATOM      3  C   LIG    1       -0.268   1.258  -2.409  0.00  0.00    +0.510 C 
ATOM      4  O   LIG    1        0.726   0.575  -2.534  0.00  0.00    -0.520 OA
ENDROOT
BRANCH   3   5
ATOM      5  C   LIG    1       -0.997   1.758  -3.630  0.00  0.00    +0.240 C 
ATOM      6  C   LIG    1       -2.432   1.228  -3.619  0.00  0.00    +0.070 C 
BRANCH   5   7
ATOM      7  N   LIG    1       -0.311   1.285  -4.835  0.00  0.00    -0.580 N 
ATOM      8  C   LIG    1       -0.129  -0.030  -5.121  0.00  0.00    +0.560 C 
ATOM      9  C   LIG    1        0.856  -0.083  -6.247  0.00  0.00    +0.000 C 
ATOM     10  C   LIG    1        0.708  -1.158  -7.303  0.00  0.00    +0.110 C 
ATOM     11  C   LIG    1        1.604  -0.765  -8.460  0.00  0.00    -0.040 C 
ATOM     12  C   LIG    1        2.071   0.432  -8.652  0.00  0.00    -0.030 C 
ATOM     13  C   LIG    1        1.762   1.611  -7.776  0.00  0.00    +0.110 C 
ATOM     14  C   LIG    1        0.534   1.267  -6.960  0.00  0.00    +0.000 C 
ATOM     15  O   LIG    1       -0.660  -0.974  -4.576  0.00  0.00    -0.460 OA
ATOM     16  C   LIG    1        0.209   2.120  -5.772  0.00  0.00    +0.550 C 
ATOM     17  O   LIG    1        0.377   3.316  -5.668  0.00  0.00    -0.470 OA
ENDBRANCH   5   7
ENDBRANCH   3   5
BRANCH   1  18
ATOM     18  C   LIG    1       -0.013   1.086   0.008  0.00  0.00    +0.260 C 
BRANCH  18  19
ATOM     19  C   LIG    1       -0.729   1.579   1.267  0.00  0.00    +0.100 C 
BRANCH  19  20
ATOM     20  C   LIG    1        0.011   1.072   2.506  0.00  0.00    +0.030 C 
ATOM     21  N   LIG    1        1.426   0.715   2.381  0.00  0.00    -0.120 NA
ATOM     22  N   LIG    1        0.647  -0.246   2.453  0.00  0.00    -0.110 NA
BRANCH  20  23
ATOM     23  C   LIG    1       -0.498   1.585   3.855  0.00  0.00    +0.120 C 
BRANCH  23  24
ATOM     24  C   LIG    1        0.346   0.986   4.981  0.00  0.00    +0.160 C 
BRANCH  24  26
ATOM     25  C   LIG    1       -0.536   1.873   7.313  0.00  0.00    +0.030 C 
ATOM     26  C   LIG    1       -0.144   1.479   6.278  0.00  0.00    -0.190 C 
ENDBRANCH  24  26
ENDBRANCH  23  24
ENDBRANCH  20  23
ENDBRANCH  19  20
ENDBRANCH  18  19
ENDBRANCH   1  18
TORSDOF 8
