REMARK  Name = ZINCtV000002I1BT.0
REMARK                            x       y       z     vdW  Elec       q    Type
REMARK                         _______ _______ _______ _____ _____    ______ ____
ROOT
ATOM      1  C   LIG    1        6.030   6.983  -2.060  0.00  0.00    +0.160 C 
ENDROOT
BRANCH   1   4
ATOM      2  C   LIG    1        2.822   5.950  -0.687  0.00  0.00    +0.030 A 
ATOM      3  N   LIG    1        3.711   6.247  -1.574  0.00  0.00    -0.420 NA
ATOM      4  C   LIG    1        4.900   6.609  -1.136  0.00  0.00    +0.080 A 
ATOM      5  C   LIG    1        5.021   6.619   0.195  0.00  0.00    -0.070 A 
ATOM      6  S   LIG    1        3.475   6.128   0.883  0.00  0.00    +0.160 S 
BRANCH   2   7
ATOM      7  C   LIG    1        1.412   5.516  -0.990  0.00  0.00    +0.320 C 
BRANCH   7   8
ATOM      8  O   LIG    1        1.367   4.093  -1.114  0.00  0.00    -0.300 OA
BRANCH   8  13
ATOM      9  C   LIG    1       -3.638   1.781  -2.267  0.00  0.00    +0.090 C 
ATOM     10  C   LIG    1       -2.299   2.400  -1.955  0.00  0.00    -0.120 A 
ATOM     11  C   LIG    1       -1.186   1.594  -1.802  0.00  0.00    +0.050 A 
ATOM     12  C   LIG    1        0.043   2.159  -1.522  0.00  0.00    -0.010 A 
ATOM     13  C   LIG    1        0.159   3.535  -1.389  0.00  0.00    +0.130 A 
ATOM     14  C   LIG    1       -0.961   4.340  -1.537  0.00  0.00    -0.080 A 
ATOM     15  C   LIG    1       -2.188   3.771  -1.817  0.00  0.00    +0.050 A 
ENDBRANCH   8  13
ENDBRANCH   7   8
ENDBRANCH   2   7
ENDBRANCH   1   4
BRANCH   1  16
ATOM     16  C   LIG    1        6.274   5.859  -3.035  0.00  0.00    +0.520 C 
ATOM     17  N   LIG    1        7.245   5.971  -3.963  0.00  0.00    -0.610 N 
ATOM     18  C   LIG    1        8.063   7.185  -4.025  0.00  0.00    +0.270 C 
ATOM     19  O   LIG    1        5.596   4.855  -2.984  0.00  0.00    -0.500 OA
BRANCH  17  20
ATOM     20  C   LIG    1        7.481   4.880  -4.911  0.00  0.00    +0.300 C 
ATOM     21  C   LIG    1        7.137   5.349  -6.326  0.00  0.00    +0.040 C 
BRANCH  20  22
ATOM     22  C   LIG    1        8.931   4.472  -4.856  0.00  0.00    -0.090 A 
ATOM     23  C   LIG    1        9.788   4.828  -5.880  0.00  0.00    +0.060 A 
ATOM     24  C   LIG    1       11.118   4.455  -5.830  0.00  0.00    +0.030 A 
ATOM     25  C   LIG    1       11.592   3.725  -4.754  0.00  0.00    -0.020 A 
ATOM     26  C   LIG    1       10.735   3.369  -3.728  0.00  0.00    +0.040 A 
ATOM     27 CL   LIG    1       13.263   3.256  -4.691  0.00  0.00    -0.050 Cl
ATOM     28  C   LIG    1        9.405   3.747  -3.776  0.00  0.00    -0.010 A 
ATOM     29 CL   LIG    1        8.330   3.307  -2.486  0.00  0.00    -0.040 Cl
ENDBRANCH  20  22
ENDBRANCH  17  20
ENDBRANCH   1  16
TORSDOF 7
