REMARK  Name = ZINCtV000002zxtl.0
REMARK                            x       y       z     vdW  Elec       q    Type
REMARK                         _______ _______ _______ _____ _____    ______ ____
ROOT
ATOM      1  C   LIG    1        1.175   2.080   0.016  0.00  0.00    +0.050 A 
ATOM      2  C   LIG    1       -0.014   1.366   0.033  0.00  0.00    -0.010 A 
ATOM      3  C   LIG    1        0.010  -0.016   0.032  0.00  0.00    -0.010 A 
ATOM      4  C   LIG    1        1.216  -0.691   0.014  0.00  0.00    +0.030 A 
ATOM      5  C   LIG    1        2.406   0.012  -0.003  0.00  0.00    +0.020 A 
ATOM      6  C   LIG    1        2.392   1.399  -0.003  0.00  0.00    +0.180 A 
ENDROOT
BRANCH   6   7
ATOM      7  N   LIG    1        3.597   2.113  -0.020  0.00  0.00    -0.650 N 
ATOM      8  H   LIG    1        3.630   3.016   0.333  0.00  0.00    +0.420 HD
ATOM      9  C   LIG    1        4.710   1.546  -0.526  0.00  0.00    +0.580 C 
ATOM     10  O   LIG    1        4.648   0.454  -1.059  0.00  0.00    -0.520 OA
BRANCH   9  11
ATOM     11  C   LIG    1        6.001   2.248  -0.434  0.00  0.00    -0.150 A 
ATOM     12  C   LIG    1        6.150   3.471   0.141  0.00  0.00    -0.040 A 
ATOM     13  S   LIG    1        7.776   3.978   0.075  0.00  0.00    +0.200 S 
ATOM     14  C   LIG    1        8.276   2.515  -0.756  0.00  0.00    -0.190 A 
ATOM     15  C   LIG    1        7.238   1.710  -0.950  0.00  0.00    +0.060 A 
BRANCH  14  16
ATOM     16  C   LIG    1        9.688   2.214  -1.189  0.00  0.00    +0.070 C 
ATOM     17  C   LIG    1       10.604   2.194   0.036  0.00  0.00    +0.020 C 
ATOM     18  C   LIG    1       12.037   1.888  -0.404  0.00  0.00    +0.010 C 
ATOM     19  C   LIG    1       12.512   2.968  -1.379  0.00  0.00    +0.000 C 
ATOM     20  C   LIG    1       11.596   2.988  -2.604  0.00  0.00    +0.010 C 
ATOM     21  C   LIG    1       10.163   3.293  -2.164  0.00  0.00    +0.020 C 
ENDBRANCH  14  16
ENDBRANCH   9  11
ENDBRANCH   6   7
BRANCH   1  23
ATOM     22  C   LIG    1        0.562   3.996   1.257  0.00  0.00    +0.200 C 
ATOM     23  N   LIG    1        1.154   3.479   0.016  0.00  0.00    -0.500 N 
BRANCH  23  24
ATOM     24  C   LIG    1        0.442   3.995  -1.161  0.00  0.00    +0.230 C 
BRANCH  24  25
ATOM     25  C   LIG    1        0.648   5.484  -1.260  0.00  0.00    -0.080 A 
ATOM     26  C   LIG    1       -0.237   6.347  -0.641  0.00  0.00    +0.010 A 
ATOM     27  C   LIG    1       -0.046   7.713  -0.727  0.00  0.00    +0.000 A 
ATOM     28  C   LIG    1        1.025   8.217  -1.440  0.00  0.00    +0.000 A 
ATOM     29  C   LIG    1        1.908   7.355  -2.064  0.00  0.00    +0.000 A 
ATOM     30  C   LIG    1        1.719   5.988  -1.973  0.00  0.00    +0.020 A 
ENDBRANCH  24  25
ENDBRANCH  23  24
ENDBRANCH   1  23
TORSDOF 6
