REMARK  Name = ZINCrD00000F5Lkx.0
REMARK                            x       y       z     vdW  Elec       q    Type
REMARK                         _______ _______ _______ _____ _____    ______ ____
ROOT
ATOM      1  C   LIG    1        2.529   5.611   0.231  0.00  0.00    +0.190 C 
ATOM      2  C   LIG    1        1.096   6.065   0.120  0.00  0.00    +0.140 A 
ATOM      3  C   LIG    1        0.651   7.356   0.082  0.00  0.00    -0.100 A 
ATOM      4  N   LIG    1       -0.689   7.342  -0.020  0.00  0.00    -0.190 NA
ATOM      5  N   LIG    1       -1.107   6.124  -0.054  0.00  0.00    -0.060 NA
ATOM      6  N   LIG    1        0.004   5.273   0.039  0.00  0.00    -0.320 N 
ENDROOT
BRANCH   3   7
ATOM      7  C   LIG    1        1.498   8.562   0.144  0.00  0.00    +0.620 C 
ATOM      8  N   LIG    1        0.934   9.785   0.097  0.00  0.00    -0.610 N 
ATOM      9  C   LIG    1       -0.518  10.069  -0.021  0.00  0.00    +0.280 C 
ATOM     10  C   LIG    1       -0.635  11.587  -0.109  0.00  0.00    -0.030 C 
ATOM     11  C   LIG    1       -1.847  12.226   0.538  0.00  0.00    +0.040 C 
ATOM     12  C   LIG    1       -1.712  13.746   0.348  0.00  0.00    +0.000 C 
ATOM     13  C   LIG    1       -0.409  14.273   0.942  0.00  0.00    +0.000 C 
ATOM     14  C   LIG    1        0.812  13.518   0.389  0.00  0.00    +0.040 C 
ATOM     15  C   LIG    1        0.609  12.049   0.708  0.00  0.00    -0.020 C 
ATOM     16  C   LIG    1        1.660  11.082   0.149  0.00  0.00    +0.270 C 
ATOM     17  O   LIG    1        2.706   8.453   0.237  0.00  0.00    -0.530 OA
ENDBRANCH   3   7
BRANCH   6  18
ATOM     18  C   LIG    1       -0.015   3.874   0.041  0.00  0.00    +0.140 A 
ATOM     19  C   LIG    1        0.829   3.167  -0.787  0.00  0.00    +0.050 A 
ATOM     20  C   LIG    1        0.816   1.775  -0.791  0.00  0.00    +0.060 A 
ATOM     21  C   LIG    1       -0.025   1.076   0.019  0.00  0.00    +0.080 A 
ATOM     22  C   LIG    1       -0.906   1.759   0.875  0.00  0.00    +0.140 A 
ATOM     23  N   LIG    1       -1.745   1.092   1.675  0.00  0.00    -0.470 NA
ATOM     24  C   LIG    1       -2.570   1.723   2.475  0.00  0.00    +0.310 A 
ATOM     25  C   LIG    1       -2.615   3.113   2.533  0.00  0.00    -0.020 A 
ATOM     26  C   LIG    1       -1.776   3.855   1.751  0.00  0.00    +0.090 A 
ATOM     27  C   LIG    1       -0.897   3.175   0.890  0.00  0.00    -0.090 A 
ENDBRANCH   6  18
TORSDOF 2
