REMARK  Name = ZINCvU0000000Bxh.0
REMARK                            x       y       z     vdW  Elec       q    Type
REMARK                         _______ _______ _______ _____ _____    ______ ____
ROOT
ATOM      1  S   LIG    1        0.345   3.653   1.711  0.00  0.00    +0.080 S 
ENDROOT
BRANCH   1   3
ATOM      2  N   LIG    1       -1.513   1.563   1.770  0.00  0.00    -0.450 N 
ATOM      3  C   LIG    1       -0.959   2.663   2.361  0.00  0.00    +0.150 A 
ATOM      4  N   LIG    1       -1.581   2.846   3.504  0.00  0.00    -0.290 NA
ATOM      5  N   LIG    1       -2.475   1.937   3.670  0.00  0.00    -0.240 NA
ATOM      6  C   LIG    1       -2.481   1.121   2.641  0.00  0.00    +0.220 A 
BRANCH   6   7
ATOM      7  C   LIG    1       -3.363  -0.050   2.455  0.00  0.00    -0.010 A 
ATOM      8  C   LIG    1       -2.823  -1.280   2.075  0.00  0.00    +0.060 A 
ATOM      9  C   LIG    1       -3.651  -2.370   1.903  0.00  0.00    +0.050 A 
ATOM     10  C   LIG    1       -5.015  -2.247   2.105  0.00  0.00    -0.010 A 
ATOM     11  C   LIG    1       -5.558  -1.030   2.481  0.00  0.00    +0.050 A 
ATOM     12 CL   LIG    1       -6.050  -3.623   1.886  0.00  0.00    -0.040 Cl
ATOM     13  C   LIG    1       -4.739   0.067   2.663  0.00  0.00    +0.010 A 
ATOM     14 CL   LIG    1       -5.420   1.591   3.143  0.00  0.00    -0.030 Cl
ENDBRANCH   6   7
BRANCH   2  16
ATOM     15  C   LIG    1       -2.077   1.511  -0.609  0.00  0.00    +0.060 C 
ATOM     16  C   LIG    1       -1.147   0.973   0.480  0.00  0.00    +0.300 C 
ENDBRANCH   2  16
ENDBRANCH   1   3
BRANCH   1  17
ATOM     17  C   LIG    1        0.504   4.874   3.038  0.00  0.00    +0.020 C 
ATOM     18  C   LIG    1        0.977   4.180   4.316  0.00  0.00    +0.100 C 
BRANCH  17  19
ATOM     19  C   LIG    1        1.507   5.925   2.636  0.00  0.00    +0.540 C 
ATOM     20  N   LIG    1        1.421   7.169   3.148  0.00  0.00    -0.540 N 
ATOM     21  O   LIG    1        2.391   5.651   1.852  0.00  0.00    -0.490 OA
BRANCH  20  22
ATOM     22  C   LIG    1        2.268   8.179   2.678  0.00  0.00    +0.150 A 
ATOM     23  C   LIG    1        2.289   9.418   3.305  0.00  0.00    -0.030 A 
ATOM     24  C   LIG    1        3.130  10.410   2.842  0.00  0.00    +0.030 A 
ATOM     25  C   LIG    1        3.943  10.175   1.749  0.00  0.00    -0.020 A 
ATOM     26  C   LIG    1        3.921   8.945   1.119  0.00  0.00    +0.030 A 
ATOM     27  C   LIG    1        3.086   7.946   1.580  0.00  0.00    +0.010 A 
ENDBRANCH  20  22
BRANCH  20  28
ATOM     28  C   LIG    1        0.441   7.464   4.196  0.00  0.00    +0.320 C 
BRANCH  28  29
ATOM     29  C   LIG    1        1.114   7.362   5.566  0.00  0.00    +0.190 C 
BRANCH  29  30
ATOM     30  C   LIG    1        0.103   7.534   6.623  0.00  0.00    +0.200 C 
ATOM     31  N   LIG    1       -0.677   7.666   7.438  0.00  0.00    -0.410 NA
ENDBRANCH  29  30
ENDBRANCH  28  29
ENDBRANCH  20  28
ENDBRANCH  17  19
ENDBRANCH   1  17
TORSDOF 9
