REMARK  Name = ZINCvU00000005vO.0
REMARK                            x       y       z     vdW  Elec       q    Type
REMARK                         _______ _______ _______ _____ _____    ______ ____
ROOT
ATOM      1  C   LIG    1       -2.595   6.903   0.474  0.00  0.00    +0.560 C 
ATOM      2  N   LIG    1       -1.313   6.775   0.079  0.00  0.00    -0.610 N 
ATOM      3  C   LIG    1       -0.972   6.440  -1.311  0.00  0.00    +0.320 C 
ATOM      4  C   LIG    1        0.121   5.408  -1.316  0.00  0.00    -0.050 C 
ATOM      5  C   LIG    1        0.799   5.068  -0.244  0.00  0.00    -0.030 C 
ATOM      6  C   LIG    1        0.562   5.638   1.123  0.00  0.00    +0.060 C 
ATOM      7  C   LIG    1       -0.198   6.964   1.022  0.00  0.00    +0.290 C 
ATOM      8  O   LIG    1       -2.854   7.088   1.648  0.00  0.00    -0.510 OA
ENDROOT
BRANCH   5   9
ATOM      9  C   LIG    1        1.859   4.052  -0.393  0.00  0.00    -0.150 A 
ATOM     10  C   LIG    1        3.199   4.274  -0.401  0.00  0.00    +0.240 A 
ATOM     11  N   LIG    1        3.860   3.091  -0.560  0.00  0.00    -0.590 N 
ATOM     12  H   LIG    1        4.825   2.995  -0.596  0.00  0.00    +0.420 HD
ATOM     13  C   LIG    1        2.960   2.052  -0.661  0.00  0.00    +0.090 A 
ATOM     14  C   LIG    1        3.106   0.679  -0.829  0.00  0.00    -0.010 A 
ATOM     15  C   LIG    1        1.991  -0.128  -0.897  0.00  0.00    +0.030 A 
ATOM     16  C   LIG    1        0.718   0.416  -0.799  0.00  0.00    -0.020 A 
ATOM     17  C   LIG    1        0.552   1.773  -0.633  0.00  0.00    +0.050 A 
ATOM     18  C   LIG    1        1.671   2.601  -0.563  0.00  0.00    -0.090 A 
ENDBRANCH   5   9
BRANCH   1  24
ATOM     19  C   LIG    1       -4.824   6.045  -0.250  0.00  0.00    -0.050 A 
ATOM     20  C   LIG    1       -5.844   5.975  -1.192  0.00  0.00    -0.010 A 
ATOM     21  C   LIG    1       -5.734   6.665  -2.381  0.00  0.00    +0.060 A 
ATOM     22  C   LIG    1       -4.610   7.431  -2.647  0.00  0.00    +0.000 A 
ATOM     23  C   LIG    1       -3.591   7.516  -1.724  0.00  0.00    +0.070 A 
ATOM     24  C   LIG    1       -3.684   6.820  -0.516  0.00  0.00    -0.110 A 
BRANCH  19  25
ATOM     25  S   LIG    1       -4.962   5.165   1.271  0.00  0.00    -0.010 S 
BRANCH  25  26
ATOM     26  C   LIG    1       -6.574   4.346   1.124  0.00  0.00    +0.220 C 
BRANCH  26  31
ATOM     27  C   LIG    1       -8.044   2.874   5.679  0.00  0.00    +0.200 C 
ATOM     28  C   LIG    1       -7.458   2.905   4.291  0.00  0.00    +0.170 A 
ATOM     29  N   LIG    1       -6.871   1.918   3.682  0.00  0.00    -0.380 NA
ATOM     30  O   LIG    1       -6.510   2.262   2.576  0.00  0.00    +0.090 OA
ATOM     31  C   LIG    1       -6.843   3.540   2.369  0.00  0.00    +0.190 A 
ATOM     32  N   LIG    1       -7.443   3.959   3.457  0.00  0.00    -0.460 NA
ENDBRANCH  26  31
ENDBRANCH  25  26
ENDBRANCH  19  25
ENDBRANCH   1  24
TORSDOF 5
