REMARK  Name = ZINCrH000004nfyX.0
REMARK                            x       y       z     vdW  Elec       q    Type
REMARK                         _______ _______ _______ _____ _____    ______ ____
ROOT
ATOM      1  N   LIG    1        2.502   2.950  -0.006  0.00  0.00    -0.630 N 
ATOM      2  H   LIG    1        2.071   3.819   0.002  0.00  0.00    +0.430 HD
ATOM      3  C   LIG    1        3.847   2.866  -0.020  0.00  0.00    +0.490 C 
ATOM      4  O   LIG    1        4.387   1.780  -0.030  0.00  0.00    -0.450 OA
ENDROOT
BRANCH   1  10
ATOM      5  C   LIG    1       -0.752  -2.287  -0.004  0.00  0.00    +0.150 A 
ATOM      6  C   LIG    1        0.570  -2.719  -0.018  0.00  0.00    -0.040 A 
ATOM      7  C   LIG    1        1.600  -1.813  -0.023  0.00  0.00    +0.120 A 
ATOM      8  C   LIG    1        1.335  -0.427  -0.013  0.00  0.00    +0.070 A 
ATOM      9  N   LIG    1        2.210   0.599  -0.016  0.00  0.00    -0.450 NA
ATOM     10  C   LIG    1        1.736   1.796  -0.005  0.00  0.00    +0.320 A 
ATOM     11  S   LIG    1       -0.022   1.758   0.012  0.00  0.00    +0.080 S 
ATOM     12  C   LIG    1        0.002  -0.004   0.002  0.00  0.00    -0.140 A 
ATOM     13  C   LIG    1       -1.034  -0.935   0.007  0.00  0.00    +0.030 A 
BRANCH   5  15
ATOM     14  C   LIG    1       -1.399  -4.575  -0.010  0.00  0.00    +0.250 C 
ATOM     15  O   LIG    1       -1.765  -3.194   0.001  0.00  0.00    -0.310 OA
ENDBRANCH   5  15
ENDBRANCH   1  10
BRANCH   3  16
ATOM     16  C   LIG    1        4.681   4.122  -0.021  0.00  0.00    +0.370 C 
BRANCH  16  17
ATOM     17  N   LIG    1        6.101   3.765  -0.037  0.00  0.00    -0.480 N 
ATOM     18  C   LIG    1        6.741   3.607  -1.224  0.00  0.00    +0.400 A 
ATOM     19  C   LIG    1        8.053   3.278  -1.264  0.00  0.00    -0.280 A 
ATOM     20  C   LIG    1        8.766   3.096  -0.071  0.00  0.00    +0.180 A 
ATOM     21  C   LIG    1        8.123   3.255   1.122  0.00  0.00    -0.150 A 
ATOM     22 CL   LIG    1        8.978   3.037   2.616  0.00  0.00    -0.010 Cl
ATOM     23  C   LIG    1        6.760   3.602   1.127  0.00  0.00    +0.530 A 
ATOM     24  O   LIG    1        6.172   3.752   2.186  0.00  0.00    -0.500 OA
BRANCH  19  25
ATOM     25  C   LIG    1        8.747   3.108  -2.591  0.00  0.00    +0.530 C 
ATOM     26  F   LIG    1        7.806   2.772  -3.570  0.00  0.00    -0.170 F 
ATOM     27  F   LIG    1        9.700   2.088  -2.491  0.00  0.00    -0.170 F 
ATOM     28  F   LIG    1        9.380   4.305  -2.943  0.00  0.00    -0.170 F 
ENDBRANCH  19  25
ENDBRANCH  16  17
ENDBRANCH   3  16
TORSDOF 5
