REMARK  Name = ZINCpk00000xWUX4.0
REMARK                            x       y       z     vdW  Elec       q    Type
REMARK                         _______ _______ _______ _____ _____    ______ ____
ROOT
ATOM      1  C   LIG    1        7.132   4.862  -1.516  0.00  0.00    +0.140 C 
ATOM      2  C   LIG    1        6.833   3.887  -0.372  0.00  0.00    +0.290 C 
ATOM      3  N   LIG    1        5.378   3.676  -0.311  0.00  0.00    -0.610 N 
ATOM      4  C   LIG    1        4.507   4.862  -0.292  0.00  0.00    +0.270 C 
ATOM      5  C   LIG    1        4.920   5.789  -1.435  0.00  0.00    +0.240 C 
ATOM      6  C   LIG    1        4.858   2.433  -0.280  0.00  0.00    +0.610 C 
ATOM      7  O   LIG    1        5.595   1.466  -0.249  0.00  0.00    -0.500 OA
ATOM      8  O   LIG    1        6.327   6.032  -1.361  0.00  0.00    -0.380 OA
ENDROOT
BRANCH   6   9
ATOM      9  C   LIG    1        3.400   2.245  -0.282  0.00  0.00    -0.030 A 
ATOM     10  C   LIG    1        2.766   1.050  -0.401  0.00  0.00    +0.090 A 
ATOM     11  C   LIG    1        1.334   1.345  -0.353  0.00  0.00    -0.120 A 
ATOM     12  C   LIG    1        0.178   0.564  -0.422  0.00  0.00    +0.060 A 
ATOM     13  C   LIG    1       -1.058   1.171  -0.350  0.00  0.00    +0.090 A 
ATOM     14  C   LIG    1       -1.153   2.550  -0.200  0.00  0.00    +0.040 A 
ATOM     15  C   LIG    1       -0.020   3.330  -0.130  0.00  0.00    +0.070 A 
ATOM     16  F   LIG    1       -2.180   0.423  -0.421  0.00  0.00    -0.130 F 
ATOM     17  C   LIG    1        1.236   2.741  -0.205  0.00  0.00    +0.050 A 
ATOM     18  O   LIG    1        2.490   3.235  -0.168  0.00  0.00    -0.180 OA
ENDBRANCH   6   9
BRANCH   1  19
ATOM     19  C   LIG    1        8.612   5.250  -1.483  0.00  0.00    +0.270 C 
BRANCH  19  21
ATOM     20  C   LIG    1       10.277   6.681  -2.449  0.00  0.00    +0.320 C 
ATOM     21  N   LIG    1        8.891   6.208  -2.561  0.00  0.00    -0.360 N 
ATOM     22  H   LIG    1        8.261   6.993  -2.486  0.00  0.00    +0.430 HD
BRANCH  21  23
ATOM     23  C   LIG    1        8.702   5.551  -3.861  0.00  0.00    +0.150 C 
BRANCH  23  24
ATOM     24  C   LIG    1        8.868   6.564  -4.965  0.00  0.00    +0.490 C 
ATOM     25  O   LIG    1        8.750   6.222  -6.129  0.00  0.00    -0.640 OA
ATOM     26  O   LIG    1        9.121   7.726  -4.693  0.00  0.00    -0.670 OA
ENDBRANCH  23  24
ENDBRANCH  21  23
ENDBRANCH  19  21
ENDBRANCH   1  19
TORSDOF 5
