REMARK  Name = ZINCpk00000xWUX4.1
REMARK                            x       y       z     vdW  Elec       q    Type
REMARK                         _______ _______ _______ _____ _____    ______ ____
ROOT
ATOM      1  C   LIG    1       -0.581   2.010   1.339  0.00  0.00    +0.140 C 
ATOM      2  C   LIG    1       -0.070   1.272   0.096  0.00  0.00    +0.290 C 
ATOM      3  N   LIG    1       -0.769   1.808  -1.083  0.00  0.00    -0.610 N 
ATOM      4  C   LIG    1       -2.237   1.890  -1.039  0.00  0.00    +0.270 C 
ATOM      5  C   LIG    1       -2.643   2.598   0.258  0.00  0.00    +0.240 C 
ATOM      6  C   LIG    1       -0.083   2.213  -2.171  0.00  0.00    +0.610 C 
ATOM      7  O   LIG    1        1.132   2.260  -2.142  0.00  0.00    -0.500 OA
ATOM      8  O   LIG    1       -2.010   1.952   1.365  0.00  0.00    -0.380 OA
ENDROOT
BRANCH   6   9
ATOM      9  C   LIG    1       -0.804   2.599  -3.392  0.00  0.00    -0.030 A 
ATOM     10  C   LIG    1       -0.236   3.157  -4.492  0.00  0.00    +0.090 A 
ATOM     11  C   LIG    1       -1.323   3.365  -5.449  0.00  0.00    -0.120 A 
ATOM     12  C   LIG    1       -1.393   3.889  -6.741  0.00  0.00    +0.060 A 
ATOM     13  C   LIG    1       -2.611   3.951  -7.385  0.00  0.00    +0.090 A 
ATOM     14  C   LIG    1       -3.761   3.494  -6.752  0.00  0.00    +0.040 A 
ATOM     15  C   LIG    1       -3.704   2.974  -5.477  0.00  0.00    +0.070 A 
ATOM     16  F   LIG    1       -2.687   4.457  -8.635  0.00  0.00    -0.130 F 
ATOM     17  C   LIG    1       -2.488   2.902  -4.809  0.00  0.00    +0.060 A 
ATOM     18  O   LIG    1       -2.132   2.455  -3.588  0.00  0.00    -0.180 OA
ENDBRANCH   6   9
BRANCH   1  19
ATOM     19  C   LIG    1       -0.018   1.344   2.596  0.00  0.00    +0.270 C 
BRANCH  19  21
ATOM     20  C   LIG    1        0.027   3.420   3.797  0.00  0.00    +0.310 C 
ATOM     21  N   LIG    1       -0.508   2.052   3.786  0.00  0.00    -0.360 N 
ATOM     22  H   LIG    1       -1.516   2.086   3.766  0.00  0.00    +0.430 HD
BRANCH  21  23
ATOM     23  C   LIG    1       -0.066   1.343   4.994  0.00  0.00    +0.160 C 
BRANCH  23  24
ATOM     24  C   LIG    1       -0.670   1.997   6.210  0.00  0.00    +0.490 C 
ATOM     25  O   LIG    1       -0.427   1.559   7.322  0.00  0.00    -0.640 OA
ATOM     26  O   LIG    1       -1.401   2.965   6.082  0.00  0.00    -0.670 OA
ENDBRANCH  23  24
ENDBRANCH  21  23
ENDBRANCH  19  21
ENDBRANCH   1  19
TORSDOF 5
