REMARK  Name = ZINCrH000004sm5Z.0
REMARK                            x       y       z     vdW  Elec       q    Type
REMARK                         _______ _______ _______ _____ _____    ______ ____
ROOT
ATOM      1  C   LIG    1        0.011   6.275  -1.380  0.00  0.00    +0.520 C 
ATOM      2  N   LIG    1       -0.004   7.599  -1.630  0.00  0.00    -0.520 N 
ATOM      3  H   LIG    1        0.075   8.232  -0.898  0.00  0.00    +0.430 HD
ATOM      4  O   LIG    1       -0.088   5.484  -2.294  0.00  0.00    -0.520 OA
ENDROOT
BRANCH   2   5
ATOM      5  N   LIG    1       -0.135   8.062  -2.946  0.00  0.00    -0.520 N 
ATOM      6  H   LIG    1       -0.137   7.433  -3.683  0.00  0.00    +0.450 HD
BRANCH   5   7
ATOM      7  C   LIG    1       -0.261   9.430  -3.194  0.00  0.00    +0.230 A 
ATOM      8  C   LIG    1       -0.965  10.254  -2.317  0.00  0.00    -0.020 A 
ATOM      9  C   LIG    1       -1.064  11.605  -2.597  0.00  0.00    +0.360 A 
ATOM     10  N   LIG    1       -0.510  12.114  -3.684  0.00  0.00    -0.520 NA
ATOM     11  C   LIG    1        0.161  11.364  -4.542  0.00  0.00    +0.360 A 
ATOM     12  F   LIG    1        0.709  11.932  -5.638  0.00  0.00    -0.080 F 
ATOM     13  F   LIG    1       -1.739  12.414  -1.751  0.00  0.00    -0.080 F 
ATOM     14  F   LIG    1       -1.538   9.741  -1.207  0.00  0.00    -0.100 F 
ATOM     15  C   LIG    1        0.309  10.005  -4.330  0.00  0.00    -0.010 A 
ATOM     16  F   LIG    1        0.995   9.246  -5.212  0.00  0.00    -0.100 F 
ENDBRANCH   5   7
ENDBRANCH   2   5
BRANCH   1  17
ATOM     17  C   LIG    1        0.150   5.776   0.035  0.00  0.00    +0.130 C 
BRANCH  17  21
ATOM     18  C   LIG    1        0.119   1.501   0.050  0.00  0.00    -0.020 A 
ATOM     19  C   LIG    1       -1.076   2.210   0.164  0.00  0.00    +0.030 A 
ATOM     20  C   LIG    1       -1.059   3.590   0.165  0.00  0.00    +0.030 A 
ATOM     21  C   LIG    1        0.139   4.269   0.041  0.00  0.00    -0.070 A 
ATOM     22  C   LIG    1        1.328   3.571  -0.078  0.00  0.00    +0.030 A 
ATOM     23  C   LIG    1        1.323   2.191  -0.074  0.00  0.00    +0.050 A 
BRANCH  18  27
ATOM     24  C   LIG    1        2.200  -2.982  -0.153  0.00  0.00    +0.180 C 
ATOM     25  C   LIG    1        1.069  -1.992  -0.040  0.00  0.00    +0.050 A 
ATOM     26  N   LIG    1        1.208  -0.712  -0.062  0.00  0.00    -0.470 NA
ATOM     27  C   LIG    1        0.108   0.018   0.054  0.00  0.00    +0.110 A 
ATOM     28  C   LIG    1       -1.023  -0.707   0.171  0.00  0.00    -0.080 A 
ATOM     29  S   LIG    1       -0.580  -2.412   0.129  0.00  0.00    +0.130 S 
ENDBRANCH  18  27
ENDBRANCH  17  21
ENDBRANCH   1  17
TORSDOF 5
