REMARK  Name = ZINCbu0000000GEr.0
REMARK                            x       y       z     vdW  Elec       q    Type
REMARK                         _______ _______ _______ _____ _____    ______ ____
ROOT
ATOM      1  C   LIG    1        2.397   0.028  -0.020  0.00  0.00    -0.150 A 
ATOM      2  C   LIG    1        1.209  -0.679  -0.013  0.00  0.00    +0.100 A 
ATOM      3  C   LIG    1        0.002  -0.004   0.002  0.00  0.00    +0.030 A 
ATOM      4  C   LIG    1       -0.017   1.380   0.010  0.00  0.00    +0.140 A 
ATOM      5  C   LIG    1        1.175   2.088   0.002  0.00  0.00    -0.070 A 
ATOM      6 CL   LIG    1        1.154   3.824   0.011  0.00  0.00    -0.020 Cl
ATOM      7  F   LIG    1       -1.195   2.040   0.019  0.00  0.00    -0.110 F 
ATOM      8  C   LIG    1        2.380   1.410  -0.013  0.00  0.00    +0.050 A 
ENDROOT
BRANCH   1  10
ATOM      9  C   LIG    1        4.291  -0.748   1.378  0.00  0.00    +0.100 C 
ATOM     10  C   LIG    1        3.711  -0.709  -0.037  0.00  0.00    +0.240 C 
BRANCH  10  11
ATOM     11  N   LIG    1        4.649  -0.018  -0.932  0.00  0.00    -0.640 N 
ATOM     12  H   LIG    1        4.266   0.007  -1.865  0.00  0.00    +0.440 HD
ATOM     13  H   LIG    1        5.529  -0.512  -0.943  0.00  0.00    +0.440 HD
ATOM     14  H   LIG    1        4.796   0.924  -0.603  0.00  0.00    +0.430 HD
ENDBRANCH  10  11
ENDBRANCH   1  10
TORSDOF 2
