REMARK  Name = ZINCrH000004syuU.0
REMARK                            x       y       z     vdW  Elec       q    Type
REMARK                         _______ _______ _______ _____ _____    ______ ____
ROOT
ATOM      1  C   LIG    1       -3.612   5.966  -0.474  0.00  0.00    +0.570 C 
ATOM      2  N   LIG    1       -4.787   5.319  -0.606  0.00  0.00    -0.700 N 
ATOM      3  H   LIG    1       -4.820   4.353  -0.529  0.00  0.00    +0.400 HD
ATOM      4  O   LIG    1       -3.571   7.177  -0.570  0.00  0.00    -0.520 OA
ENDROOT
BRANCH   1  16
ATOM      5  C   LIG    1       -1.158   7.384   0.076  0.00  0.00    +0.160 C 
ATOM      6  C   LIG    1       -1.170   5.877   0.056  0.00  0.00    +0.220 A 
ATOM      7  N   LIG    1       -0.059   5.227   0.289  0.00  0.00    -0.480 NA
ATOM      8  C   LIG    1       -0.013   3.889   0.284  0.00  0.00    +0.160 A 
ATOM      9  C   LIG    1        1.190   3.210   0.538  0.00  0.00    +0.060 A 
ATOM     10  C   LIG    1        1.214   1.847   0.528  0.00  0.00    -0.000 A 
ATOM     11  C   LIG    1        0.060   1.109   0.269  0.00  0.00    +0.020 A 
ATOM     12  C   LIG    1       -1.123   1.732   0.013  0.00  0.00    +0.070 A 
ATOM     13 CL   LIG    1        2.706   1.017   0.843  0.00  0.00    -0.050 Cl
ATOM     14  C   LIG    1       -1.185   3.136   0.021  0.00  0.00    -0.120 A 
ATOM     15  C   LIG    1       -2.390   3.813  -0.233  0.00  0.00    +0.130 A 
ATOM     16  C   LIG    1       -2.374   5.203  -0.213  0.00  0.00    -0.180 A 
ENDBRANCH   1  16
BRANCH   2  17
ATOM     17  C   LIG    1       -6.015   6.076  -0.864  0.00  0.00    +0.350 C 
BRANCH  17  18
ATOM     18  C   LIG    1       -7.179   5.124  -0.968  0.00  0.00    -0.160 A 
ATOM     19  C   LIG    1       -7.668   4.748  -2.207  0.00  0.00    +0.120 A 
ATOM     20  C   LIG    1       -8.738   3.864  -2.255  0.00  0.00    -0.030 A 
ATOM     21  C   LIG    1       -9.285   3.401  -1.075  0.00  0.00    +0.310 A 
ATOM     22  N   LIG    1       -8.800   3.782   0.091  0.00  0.00    -0.500 NA
ATOM     23  C   LIG    1       -7.778   4.617   0.178  0.00  0.00    +0.380 A 
BRANCH  23  24
ATOM     24  N   LIG    1       -7.297   4.994   1.436  0.00  0.00    -0.330 N 
ATOM     25  C   LIG    1       -8.007   5.003   2.594  0.00  0.00    +0.260 A 
ATOM     26  C   LIG    1       -7.179   5.426   3.577  0.00  0.00    -0.100 A 
ATOM     27  C   LIG    1       -5.930   5.693   3.006  0.00  0.00    +0.250 A 
ATOM     28  N   LIG    1       -5.999   5.435   1.725  0.00  0.00    -0.270 NA
ENDBRANCH  23  24
ENDBRANCH  17  18
ENDBRANCH   2  17
TORSDOF 4
