REMARK  Name = ZINCrD00000F5LHi.0
REMARK                            x       y       z     vdW  Elec       q    Type
REMARK                         _______ _______ _______ _____ _____    ______ ____
ROOT
ATOM      1  C   LIG    1        0.060  -4.252  -0.023  0.00  0.00    +0.430 C 
ATOM      2  O   LIG    1       -0.988  -4.877  -0.017  0.00  0.00    -0.460 OA
ENDROOT
BRANCH   1   3
ATOM      3  C   LIG    1        0.040  -2.774  -0.014  0.00  0.00    -0.200 A 
ATOM      4  C   LIG    1       -1.178  -2.091   0.002  0.00  0.00    +0.120 A 
ATOM      5  C   LIG    1       -1.193  -0.714   0.010  0.00  0.00    -0.020 A 
ATOM      6  C   LIG    1        0.002  -0.004   0.002  0.00  0.00    +0.160 A 
ATOM      7  C   LIG    1        1.216  -0.681  -0.019  0.00  0.00    -0.090 A 
ATOM      8  C   LIG    1        1.239  -2.058  -0.021  0.00  0.00    +0.110 A 
BRANCH   6   9
ATOM      9  O   LIG    1       -0.016   1.353   0.009  0.00  0.00    -0.290 OA
BRANCH   9  10
ATOM     10  C   LIG    1        1.248   2.019   0.001  0.00  0.00    +0.240 C 
BRANCH  10  11
ATOM     11  C   LIG    1        1.030   3.510   0.011  0.00  0.00    +0.510 C 
ATOM     12  N   LIG    1        2.088   4.346   0.005  0.00  0.00    -0.620 N 
ATOM     13  C   LIG    1        3.449   3.804  -0.010  0.00  0.00    +0.290 C 
ATOM     14  C   LIG    1        1.876   5.795   0.015  0.00  0.00    +0.290 C 
ATOM     15  O   LIG    1       -0.097   3.959   0.024  0.00  0.00    -0.510 OA
ENDBRANCH  10  11
ENDBRANCH   9  10
ENDBRANCH   6   9
ENDBRANCH   1   3
BRANCH   1  17
ATOM     16  C   LIG    1        1.306  -6.303  -0.047  0.00  0.00    +0.160 C 
ATOM     17  C   LIG    1        1.288  -4.939  -0.038  0.00  0.00    -0.080 C 
BRANCH  16  26
ATOM     18  C   LIG    1        2.781 -10.610   3.533  0.00  0.00    +0.190 C 
ATOM     19  C   LIG    1        3.150  -9.709   2.383  0.00  0.00    -0.160 A 
ATOM     20  C   LIG    1        2.407  -8.758   1.839  0.00  0.00    +0.200 A 
ATOM     21  N   LIG    1        2.924  -8.033   0.794  0.00  0.00    -0.400 N 
ATOM     22  C   LIG    1        4.177  -8.377   0.402  0.00  0.00    +0.160 A 
ATOM     23  N   LIG    1        4.563  -7.619  -0.609  0.00  0.00    -0.450 NA
ATOM     24  C   LIG    1        3.598  -6.766  -0.921  0.00  0.00    +0.100 A 
ATOM     25  C   LIG    1        3.649  -5.734  -2.018  0.00  0.00    +0.160 C 
ATOM     26  C   LIG    1        2.534  -6.990  -0.062  0.00  0.00    -0.040 A 
ATOM     27  S   LIG    1        4.672  -9.698   1.474  0.00  0.00    +0.170 S 
ENDBRANCH  16  26
ENDBRANCH   1  17
TORSDOF 6
