REMARK  Name = ZINCqH0000051CjJ.0
REMARK                            x       y       z     vdW  Elec       q    Type
REMARK                         _______ _______ _______ _____ _____    ______ ____
ROOT
ATOM      1  O   LIG    1       -5.055  -2.631  -5.241  0.00  0.00    -0.530 OA
ATOM      2  C   LIG    1       -5.934  -2.166  -4.542  0.00  0.00    +0.560 C 
ATOM      3  N   LIG    1       -5.647  -1.190  -3.658  0.00  0.00    -0.600 N 
ATOM      4  C   LIG    1       -6.749  -0.593  -2.877  0.00  0.00    +0.260 C 
ATOM      5  C   LIG    1       -6.340  -0.375  -1.410  0.00  0.00    +0.040 C 
ATOM      6  C   LIG    1       -5.523  -1.555  -0.930  0.00  0.00    +0.190 C 
ATOM      7  N   LIG    1       -4.104  -1.273  -1.141  0.00  0.00    -0.560 NA
ATOM      8  C   LIG    1       -3.580  -1.611  -2.411  0.00  0.00    +0.170 C 
ATOM      9  C   LIG    1       -4.269  -0.767  -3.510  0.00  0.00    +0.300 C 
ENDROOT
BRANCH   2  10
ATOM     10  C   LIG    1       -7.317  -2.670  -4.662  0.00  0.00    -0.140 A 
ATOM     11  C   LIG    1       -7.563  -4.045  -4.679  0.00  0.00    +0.100 A 
ATOM     12  C   LIG    1       -8.856  -4.510  -4.786  0.00  0.00    -0.020 A 
ATOM     13  C   LIG    1       -9.911  -3.616  -4.888  0.00  0.00    +0.120 A 
ATOM     14  C   LIG    1       -9.672  -2.250  -4.877  0.00  0.00    -0.020 A 
ATOM     15  F   LIG    1      -11.176  -4.077  -4.997  0.00  0.00    -0.130 F 
ATOM     16  C   LIG    1       -8.384  -1.774  -4.765  0.00  0.00    +0.080 A 
ENDBRANCH   2  10
BRANCH   7  17
ATOM     17  C   LIG    1       -3.287  -1.847  -0.064  0.00  0.00    +0.210 C 
BRANCH  17  18
ATOM     18  C   LIG    1       -1.903  -1.195  -0.072  0.00  0.00    +0.200 C 
BRANCH  18  19
ATOM     19  O   LIG    1       -2.028   0.192   0.247  0.00  0.00    -0.280 OA
BRANCH  19  20
ATOM     20  C   LIG    1       -0.883   0.923   0.284  0.00  0.00    +0.140 A 
ATOM     21  C   LIG    1        0.336   0.318   0.018  0.00  0.00    -0.070 A 
ATOM     22  C   LIG    1        1.499   1.064   0.049  0.00  0.00    +0.060 A 
ATOM     23  C   LIG    1        1.449   2.412   0.352  0.00  0.00    -0.020 A 
ATOM     24  C   LIG    1        0.236   3.018   0.624  0.00  0.00    +0.070 A 
ATOM     25  C   LIG    1       -0.930   2.276   0.592  0.00  0.00    -0.070 A 
ATOM     26 CL   LIG    1       -2.453   3.037   0.933  0.00  0.00    -0.060 Cl
ENDBRANCH  19  20
ENDBRANCH  18  19
ENDBRANCH  17  18
ENDBRANCH   7  17
TORSDOF 5
