REMARK  Name = ZINCnE000001IIye.0
REMARK                            x       y       z     vdW  Elec       q    Type
REMARK                         _______ _______ _______ _____ _____    ______ ____
ROOT
ATOM      1  C   LIG    1        0.264   5.573  -0.709  0.00  0.00    +0.590 A 
ATOM      2  N   LIG    1        1.108   6.301  -0.004  0.00  0.00    -0.560 NA
ATOM      3  C   LIG    1        2.042   5.713   0.756  0.00  0.00    +0.230 A 
ATOM      4  C   LIG    1        2.955   6.458   1.517  0.00  0.00    +0.050 A 
ATOM      5  C   LIG    1        3.885   5.811   2.274  0.00  0.00    +0.070 A 
ATOM      6  C   LIG    1        3.945   4.419   2.304  0.00  0.00    -0.070 A 
ATOM      7  C   LIG    1        3.072   3.664   1.575  0.00  0.00    +0.100 A 
ATOM      8 CL   LIG    1        5.146   3.634   3.281  0.00  0.00    -0.080 Cl
ATOM      9  C   LIG    1        2.101   4.298   0.792  0.00  0.00    -0.210 A 
ATOM     10  C   LIG    1        1.171   3.567   0.011  0.00  0.00    +0.300 A 
ATOM     11  N   LIG    1        0.286   4.243  -0.709  0.00  0.00    -0.550 NA
ENDROOT
BRANCH  10  12
ATOM     12  C   LIG    1        1.184   2.087   0.002  0.00  0.00    -0.050 A 
ATOM     13  C   LIG    1        1.064   1.392  -1.202  0.00  0.00    +0.060 A 
ATOM     14  C   LIG    1        1.076   0.012  -1.203  0.00  0.00    +0.010 A 
ATOM     15  C   LIG    1        1.207  -0.682  -0.014  0.00  0.00    +0.010 A 
ATOM     16  C   LIG    1        1.326   0.001   1.183  0.00  0.00    +0.010 A 
ATOM     17  C   LIG    1        1.315   1.380   1.198  0.00  0.00    +0.040 A 
ENDBRANCH  10  12
BRANCH   1  19
ATOM     18  C   LIG    1       -1.637   5.441  -2.275  0.00  0.00    +0.310 C 
ATOM     19  N   LIG    1       -0.684   6.220  -1.481  0.00  0.00    -0.540 N 
BRANCH  19  20
ATOM     20  C   LIG    1       -0.736   7.684  -1.504  0.00  0.00    +0.220 C 
BRANCH  20  21
ATOM     21  C   LIG    1        0.149   8.200  -2.609  0.00  0.00    +0.490 C 
ATOM     22  O   LIG    1        0.248   9.400  -2.800  0.00  0.00    -0.700 OA
ATOM     23  O   LIG    1        0.766   7.418  -3.312  0.00  0.00    -0.690 OA
ENDBRANCH  20  21
ENDBRANCH  19  20
ENDBRANCH   1  19
TORSDOF 4
