REMARK  Name = ZINCrD000000Azcj.0
REMARK                            x       y       z     vdW  Elec       q    Type
REMARK                         _______ _______ _______ _____ _____    ______ ____
ROOT
ATOM      1  N   LIG    1       -1.841   2.495   1.632  0.00  0.00    -1.060 N 
ATOM      2  H   LIG    1       -2.200   1.699   2.056  0.00  0.00    +0.430 HD
ENDROOT
BRANCH   1   6
ATOM      3  C   LIG    1        0.594   5.088   3.795  0.00  0.00    -0.060 A 
ATOM      4  C   LIG    1       -0.771   5.078   4.016  0.00  0.00    +0.030 A 
ATOM      5  C   LIG    1       -1.581   4.220   3.300  0.00  0.00    +0.020 A 
ATOM      6  C   LIG    1       -1.024   3.365   2.358  0.00  0.00    +0.120 A 
ATOM      7  C   LIG    1        0.348   3.373   2.142  0.00  0.00    +0.040 A 
ATOM      8  C   LIG    1        1.152   4.238   2.858  0.00  0.00    +0.030 A 
BRANCH   3   9
ATOM      9  C   LIG    1        1.476   6.026   4.578  0.00  0.00    +0.110 C 
BRANCH   9  11
ATOM     10  O   LIG    1        1.587   4.209   6.080  0.00  0.00    -0.530 OA
ATOM     11  C   LIG    1        1.939   5.344   5.840  0.00  0.00    +0.520 C 
ATOM     12  N   LIG    1        2.743   5.997   6.703  0.00  0.00    -0.710 N 
ATOM     13  H   LIG    1        3.025   6.905   6.511  0.00  0.00    +0.400 HD
BRANCH  12  14
ATOM     14  C   LIG    1        3.193   5.334   7.929  0.00  0.00    +0.220 C 
ATOM     15  C   LIG    1        3.159   6.148   9.225  0.00  0.00    +0.010 C 
ATOM     16  C   LIG    1        4.499   5.824   8.559  0.00  0.00    +0.010 C 
ENDBRANCH  12  14
ENDBRANCH   9  11
ENDBRANCH   3   9
ENDBRANCH   1   6
BRANCH   1  17
ATOM     17  S   LIG    1       -2.198   2.821   0.048  0.00  0.00    +2.690 S 
ATOM     18  O   LIG    1       -0.959   3.072  -0.599  0.00  0.00    -0.940 OA
ATOM     19  O   LIG    1       -3.106   1.812  -0.374  0.00  0.00    -0.950 OA
BRANCH  17  20
ATOM     20  C   LIG    1       -3.092   4.339   0.017  0.00  0.00    -0.680 A 
ATOM     21  C   LIG    1       -4.460   4.340   0.219  0.00  0.00    +0.160 A 
ATOM     22  C   LIG    1       -5.162   5.530   0.187  0.00  0.00    +0.010 A 
ATOM     23  C   LIG    1       -4.497   6.720  -0.044  0.00  0.00    +0.140 A 
ATOM     24  C   LIG    1       -3.129   6.719  -0.245  0.00  0.00    -0.200 A 
ATOM     25  C   LIG    1       -2.427   5.528  -0.215  0.00  0.00    +0.180 A 
BRANCH  24  26
ATOM     26  C   LIG    1       -2.403   8.015  -0.497  0.00  0.00    +0.510 C 
ATOM     27  F   LIG    1       -1.096   7.921  -0.008  0.00  0.00    -0.170 F 
ATOM     28  F   LIG    1       -3.071   9.057   0.155  0.00  0.00    -0.170 F 
ATOM     29  F   LIG    1       -2.369   8.271  -1.872  0.00  0.00    -0.170 F 
ENDBRANCH  24  26
ENDBRANCH  17  20
ENDBRANCH   1  17
TORSDOF 7
