REMARK  Name = ZINCnE000004Rb7r.2
REMARK                            x       y       z     vdW  Elec       q    Type
REMARK                         _______ _______ _______ _____ _____    ______ ____
ROOT
ATOM      1  C   LIG    1       -2.902   3.049  -2.051  0.00  0.00    +0.180 C 
ATOM      2  N   LIG    1       -2.841   4.316  -1.311  0.00  0.00    -0.500 NA
ENDROOT
BRANCH   2   3
ATOM      3  C   LIG    1       -4.128   5.022  -1.370  0.00  0.00    +0.260 C 
BRANCH   3   4
ATOM      4  C   LIG    1       -4.403   5.449  -2.789  0.00  0.00    +0.140 A 
ATOM      5  N   LIG    1       -5.146   4.689  -3.566  0.00  0.00    -0.490 NA
ATOM      6  C   LIG    1       -5.414   5.021  -4.815  0.00  0.00    +0.210 A 
ATOM      7  C   LIG    1       -4.922   6.191  -5.365  0.00  0.00    -0.060 A 
ATOM      8  C   LIG    1       -4.136   7.026  -4.590  0.00  0.00    +0.060 A 
ATOM      9  C   LIG    1       -3.873   6.649  -3.267  0.00  0.00    -0.140 A 
BRANCH   9  10
ATOM     10  C   LIG    1       -3.045   7.504  -2.394  0.00  0.00    +0.520 C 
ATOM     11  O   LIG    1       -2.063   7.037  -1.834  0.00  0.00    -0.650 OA
ATOM     12  O   LIG    1       -3.341   8.679  -2.231  0.00  0.00    -0.690 OA
ENDBRANCH   9  10
ENDBRANCH   3   4
ENDBRANCH   2   3
BRANCH   2  13
ATOM     13  C   LIG    1       -2.426   4.094   0.080  0.00  0.00    +0.230 C 
BRANCH  13  14
ATOM     14  C   LIG    1       -1.004   3.595   0.106  0.00  0.00    -0.070 A 
ATOM     15  C   LIG    1       -0.746   2.239   0.051  0.00  0.00    +0.050 A 
ATOM     16  C   LIG    1        0.558   1.781   0.080  0.00  0.00    +0.000 A 
ATOM     17  C   LIG    1        1.605   2.681   0.154  0.00  0.00    +0.050 A 
ATOM     18  C   LIG    1        1.347   4.038   0.204  0.00  0.00    -0.190 A 
ATOM     19  C   LIG    1        0.043   4.495   0.180  0.00  0.00    +0.110 A 
BRANCH  18  20
ATOM     20  C   LIG    1        2.488   5.019   0.285  0.00  0.00    +0.510 C 
ATOM     21  F   LIG    1        2.373   5.773   1.458  0.00  0.00    -0.180 F 
ATOM     22  F   LIG    1        2.450   5.872  -0.823  0.00  0.00    -0.170 F 
ATOM     23  F   LIG    1        3.702   4.323   0.296  0.00  0.00    -0.180 F 
ENDBRANCH  18  20
ENDBRANCH  13  14
ENDBRANCH   2  13
TORSDOF 6
