REMARK  Name = ZINCkj000005kfWK.0
REMARK                            x       y       z     vdW  Elec       q    Type
REMARK                         _______ _______ _______ _____ _____    ______ ____
ROOT
ATOM      1  C   LIG    1       -1.755   0.021  -5.715  0.00  0.00    +0.630 C 
ATOM      2  N   LIG    1       -1.481   0.021  -4.396  0.00  0.00    -0.620 N 
ATOM      3  C   LIG    1       -1.210  -1.170  -3.577  0.00  0.00    +0.280 C 
ATOM      4  C   LIG    1       -0.925  -0.683  -2.140  0.00  0.00    +0.070 C 
ATOM      5  C   LIG    1       -0.495   0.792  -2.353  0.00  0.00    +0.170 C 
ATOM      6  C   LIG    1       -1.403   1.215  -3.535  0.00  0.00    +0.300 C 
ATOM      7  O   LIG    1       -1.964   1.071  -6.293  0.00  0.00    -0.500 OA
ENDROOT
BRANCH   1  10
ATOM      8  C   LIG    1       -2.364  -0.282  -8.767  0.00  0.00    +0.150 C 
ATOM      9  C   LIG    1       -2.066  -1.387  -7.787  0.00  0.00    -0.060 A 
ATOM     10  C   LIG    1       -1.801  -1.245  -6.455  0.00  0.00    -0.100 A 
ATOM     11  O   LIG    1       -1.584  -2.473  -5.939  0.00  0.00    -0.160 OA
ATOM     12  C   LIG    1       -1.712  -3.390  -6.906  0.00  0.00    +0.030 A 
ATOM     13  C   LIG    1       -2.006  -2.762  -8.066  0.00  0.00    -0.030 A 
BRANCH  12  14
ATOM     14  C   LIG    1       -1.548  -4.878  -6.732  0.00  0.00    +0.310 C 
BRANCH  14  15
ATOM     15  O   LIG    1       -0.182  -5.237  -6.950  0.00  0.00    -0.570 OA
ATOM     16  H   LIG    1       -0.004  -6.182  -6.854  0.00  0.00    +0.400 HD
ENDBRANCH  14  15
ENDBRANCH  12  14
ENDBRANCH   1  10
BRANCH   5  17
ATOM     17  N   LIG    1       -0.776   1.600  -1.158  0.00  0.00    -0.390 N 
ATOM     18  C   LIG    1       -0.417   3.022  -1.396  0.00  0.00    +0.260 C 
ATOM     19  C   LIG    1       -0.218   3.617   0.014  0.00  0.00    +0.060 C 
ATOM     20  C   LIG    1        0.123   2.406   0.912  0.00  0.00    +0.060 C 
ATOM     21  C   LIG    1        0.101   1.186  -0.033  0.00  0.00    +0.260 C 
ATOM     22  H   LIG    1       -1.748   1.520  -0.899  0.00  0.00    +0.430 HD
ENDBRANCH   5  17
TORSDOF 4
