REMARK  Name = ZINCqH0000007QjL.0
REMARK                            x       y       z     vdW  Elec       q    Type
REMARK                         _______ _______ _______ _____ _____    ______ ____
ROOT
ATOM      1  N   LIG    1       -0.825   4.390  -1.644  0.00  0.00    -0.430 NA
ATOM      2  C   LIG    1       -1.247   3.346  -0.968  0.00  0.00    +0.330 C 
ATOM      3  N   LIG    1       -2.128   3.465   0.097  0.00  0.00    -0.570 N 
ATOM      4  H   LIG    1       -2.849   4.114   0.069  0.00  0.00    +0.440 HD
ATOM      5  N   LIG    1       -1.964   2.640   1.210  0.00  0.00    -0.230 NA
ATOM      6  C   LIG    1       -1.146   1.671   1.324  0.00  0.00    +0.150 C 
ATOM      7  C   LIG    1       -0.156   1.212   0.294  0.00  0.00    +0.160 C 
ATOM      8  S   LIG    1       -0.728   1.696  -1.358  0.00  0.00    -0.030 S 
ENDROOT
BRANCH   6   9
ATOM      9  C   LIG    1       -1.175   0.925   2.596  0.00  0.00    -0.040 A 
ATOM     10  C   LIG    1       -0.307  -0.151   2.796  0.00  0.00    +0.050 A 
ATOM     11  C   LIG    1       -0.334  -0.848   3.987  0.00  0.00    +0.020 A 
ATOM     12  C   LIG    1       -1.223  -0.480   4.984  0.00  0.00    +0.080 A 
ATOM     13  O   LIG    1       -1.254  -1.167   6.163  0.00  0.00    -0.320 OA
ATOM     14  C   LIG    1       -0.798  -0.454   7.314  0.00  0.00    +0.230 C 
ATOM     15  C   LIG    1       -1.919   0.387   7.906  0.00  0.00    -0.010 C 
ATOM     16  C   LIG    1       -2.373   1.490   6.964  0.00  0.00    +0.230 C 
ATOM     17  O   LIG    1       -2.960   0.939   5.784  0.00  0.00    -0.320 OA
ATOM     18  C   LIG    1       -2.089   0.589   4.792  0.00  0.00    +0.060 A 
ATOM     19  C   LIG    1       -2.066   1.298   3.607  0.00  0.00    +0.070 A 
ENDBRANCH   6   9
BRANCH   1  25
ATOM     20  C   LIG    1       -1.677   6.578  -2.147  0.00  0.00    +0.150 A 
ATOM     21  C   LIG    1       -2.015   7.850  -1.720  0.00  0.00    -0.060 A 
ATOM     22  C   LIG    1       -1.828   8.211  -0.397  0.00  0.00    +0.050 A 
ATOM     23  C   LIG    1       -1.310   7.303   0.508  0.00  0.00    -0.010 A 
ATOM     24  C   LIG    1       -0.973   6.028   0.099  0.00  0.00    +0.040 A 
ATOM     25  C   LIG    1       -1.157   5.654  -1.232  0.00  0.00    +0.040 A 
BRANCH  20  27
ATOM     26  C   LIG    1       -2.389   7.220  -4.323  0.00  0.00    +0.240 C 
ATOM     27  O   LIG    1       -1.854   6.225  -3.448  0.00  0.00    -0.300 OA
ENDBRANCH  20  27
ENDBRANCH   1  25
TORSDOF 3
