REMARK  Name = ZINCkj00000y7DV4.0
REMARK                            x       y       z     vdW  Elec       q    Type
REMARK                         _______ _______ _______ _____ _____    ______ ____
ROOT
ATOM      1  C   LIG    1       -3.444  -0.756  -1.277  0.00  0.00    +0.180 C 
ATOM      2  C   LIG    1       -3.351  -2.277  -1.537  0.00  0.00    +0.100 C 
ATOM      3  C   LIG    1       -4.534  -2.573  -2.432  0.00  0.00    +0.520 C 
ATOM      4  N   LIG    1       -5.010  -1.433  -2.961  0.00  0.00    -0.610 N 
ATOM      5  C   LIG    1       -6.159  -1.359  -3.868  0.00  0.00    +0.330 C 
ATOM      6  O   LIG    1       -4.987  -3.679  -2.641  0.00  0.00    -0.480 OA
ATOM      7  C   LIG    1       -4.231  -0.272  -2.515  0.00  0.00    +0.290 C 
ENDROOT
BRANCH   7   8
ATOM      8  C   LIG    1       -5.152   0.859  -2.137  0.00  0.00    -0.200 A 
ATOM      9  C   LIG    1       -4.794   2.173  -2.398  0.00  0.00    +0.080 A 
ATOM     10  C   LIG    1       -5.673   3.182  -2.034  0.00  0.00    -0.010 A 
ATOM     11  C   LIG    1       -6.869   2.846  -1.427  0.00  0.00    +0.300 A 
ATOM     12  N   LIG    1       -7.176   1.585  -1.194  0.00  0.00    -0.470 NA
ATOM     13  C   LIG    1       -6.368   0.600  -1.532  0.00  0.00    +0.290 A 
ENDBRANCH   7   8
BRANCH   1  14
ATOM     14  N   LIG    1       -2.107  -0.147  -1.234  0.00  0.00    -0.500 N 
ATOM     15  H   LIG    1       -1.566  -0.469  -2.022  0.00  0.00    +0.430 HD
ATOM     16  H   LIG    1       -2.194   0.857  -1.272  0.00  0.00    +0.440 HD
BRANCH  14  17
ATOM     17  C   LIG    1       -1.433  -0.534   0.013  0.00  0.00    +0.180 C 
ATOM     18  C   LIG    1       -2.187   0.060   1.205  0.00  0.00    +0.100 C 
BRANCH  17  19
ATOM     19  C   LIG    1        0.002  -0.004   0.002  0.00  0.00    +0.210 C 
BRANCH  19  20
ATOM     20  O   LIG    1       -0.017   1.425   0.010  0.00  0.00    -0.400 OA
BRANCH  20  22
ATOM     21  C   LIG    1        1.139   3.547   0.010  0.00  0.00    +0.050 C 
ATOM     22  C   LIG    1        1.280   2.024   0.001  0.00  0.00    +0.180 C 
ENDBRANCH  20  22
ENDBRANCH  19  20
ENDBRANCH  17  19
ENDBRANCH  14  17
ENDBRANCH   1  14
TORSDOF 6
