REMARK  Name = ZINCrD000000BpYx.0
REMARK                            x       y       z     vdW  Elec       q    Type
REMARK                         _______ _______ _______ _____ _____    ______ ____
ROOT
ATOM      1  C   LIG    1       -2.553   3.867   0.048  0.00  0.00    +0.330 C 
ENDROOT
BRANCH   1   2
ATOM      2  C   LIG    1       -1.237   3.133   0.031  0.00  0.00    -0.150 A 
ATOM      3  C   LIG    1       -1.218   1.751   0.017  0.00  0.00    +0.070 A 
ATOM      4  C   LIG    1       -0.013   1.076   0.008  0.00  0.00    -0.020 A 
ATOM      5  C   LIG    1        1.179   1.786   0.000  0.00  0.00    +0.140 A 
ATOM      6  C   LIG    1        1.157   3.174   0.008  0.00  0.00    -0.080 A 
ATOM      7  C   LIG    1       -0.051   3.844   0.023  0.00  0.00    +0.070 A 
BRANCH   5   8
ATOM      8  O   LIG    1        2.366   1.125  -0.015  0.00  0.00    -0.310 OA
BRANCH   8   9
ATOM      9  C   LIG    1        3.553   1.921  -0.022  0.00  0.00    +0.270 C 
BRANCH   9  10
ATOM     10  C   LIG    1        4.761   1.021  -0.039  0.00  0.00    -0.150 A 
ATOM     11  C   LIG    1        5.339   0.600   1.149  0.00  0.00    +0.090 A 
ATOM     12  C   LIG    1        6.447  -0.233   1.085  0.00  0.00    -0.030 A 
ATOM     13  C   LIG    1        6.941  -0.602  -0.152  0.00  0.00    +0.270 A 
ATOM     14  N   LIG    1        6.369  -0.177  -1.262  0.00  0.00    -0.490 NA
ATOM     15  C   LIG    1        5.311   0.610  -1.239  0.00  0.00    +0.290 A 
ENDBRANCH   9  10
ENDBRANCH   8   9
ENDBRANCH   5   8
ENDBRANCH   1   2
BRANCH   1  18
ATOM     16  O   LIG    1       -4.834   5.138  -0.625  0.00  0.00    -0.530 OA
ATOM     17  C   LIG    1       -4.153   4.759  -1.559  0.00  0.00    +0.560 C 
ATOM     18  N   LIG    1       -2.994   4.112  -1.327  0.00  0.00    -0.720 N 
ATOM     19  H   LIG    1       -2.450   3.809  -2.072  0.00  0.00    +0.400 HD
BRANCH  17  20
ATOM     20  C   LIG    1       -4.597   5.006  -2.945  0.00  0.00    -0.130 A 
ATOM     21  C   LIG    1       -3.816   4.570  -4.018  0.00  0.00    +0.070 A 
ATOM     22  C   LIG    1       -4.232   4.801  -5.311  0.00  0.00    +0.030 A 
ATOM     23  C   LIG    1       -5.426   5.466  -5.553  0.00  0.00    +0.060 A 
ATOM     24  O   LIG    1       -6.046   5.811  -6.717  0.00  0.00    -0.300 OA
ATOM     25  C   LIG    1       -7.008   6.820  -6.358  0.00  0.00    +0.440 C 
ATOM     26  O   LIG    1       -7.321   6.523  -4.985  0.00  0.00    -0.300 OA
ATOM     27  C   LIG    1       -6.211   5.905  -4.484  0.00  0.00    +0.020 A 
ATOM     28  C   LIG    1       -5.802   5.671  -3.186  0.00  0.00    +0.110 A 
ENDBRANCH  17  20
ENDBRANCH   1  18
TORSDOF 6
