REMARK  Name = ZINCvU00000006XM.0
REMARK                            x       y       z     vdW  Elec       q    Type
REMARK                         _______ _______ _______ _____ _____    ______ ____
ROOT
ATOM      1  C   LIG    1        0.295   0.241   0.719  0.00  0.00    +0.520 C 
ATOM      2  N   LIG    1       -0.016   1.343   0.009  0.00  0.00    -0.670 N 
ATOM      3  H   LIG    1        0.645   1.747  -0.574  0.00  0.00    +0.420 HD
ATOM      4  O   LIG    1       -0.499  -0.210   1.518  0.00  0.00    -0.510 OA
ENDROOT
BRANCH   2   5
ATOM      5  C   LIG    1       -1.294   1.902   0.110  0.00  0.00    +0.160 A 
ATOM      6  C   LIG    1       -2.377   1.098   0.445  0.00  0.00    +0.020 A 
ATOM      7  C   LIG    1       -3.637   1.647   0.550  0.00  0.00    +0.040 A 
ATOM      8  C   LIG    1       -3.826   3.009   0.308  0.00  0.00    -0.030 A 
ATOM      9  C   LIG    1       -2.737   3.812  -0.034  0.00  0.00    +0.090 A 
ATOM     10  C   LIG    1       -1.479   3.258  -0.132  0.00  0.00    +0.000 A 
BRANCH   8  11
ATOM     11  C   LIG    1       -5.178   3.599   0.413  0.00  0.00    +0.220 A 
ATOM     12  N   LIG    1       -5.468   4.875   0.563  0.00  0.00    -0.280 NA
ATOM     13  N   LIG    1       -6.745   5.028   0.609  0.00  0.00    -0.290 NA
ATOM     14  C   LIG    1       -7.336   3.872   0.497  0.00  0.00    +0.190 A 
ATOM     15  C   LIG    1       -8.819   3.604   0.485  0.00  0.00    +0.150 C 
ATOM     16  C   LIG    1       -9.123   2.433   1.425  0.00  0.00    +0.030 C 
ATOM     17  C   LIG    1       -9.006   1.118   0.659  0.00  0.00    +0.020 C 
ATOM     18  C   LIG    1       -7.917   1.213  -0.408  0.00  0.00    +0.030 C 
ATOM     19  C   LIG    1       -6.564   1.483   0.257  0.00  0.00    +0.290 C 
ATOM     20  N   LIG    1       -6.365   2.926   0.380  0.00  0.00    -0.470 N 
ENDBRANCH   8  11
ENDBRANCH   2   5
BRANCH   1  21
ATOM     21  C   LIG    1        1.629  -0.432   0.521  0.00  0.00    +0.090 C 
BRANCH  21  22
ATOM     22  C   LIG    1        1.727  -1.651   1.441  0.00  0.00    +0.120 C 
BRANCH  22  23
ATOM     23  S   LIG    1        3.333  -2.460   1.202  0.00  0.00    +0.030 S 
BRANCH  23  27
ATOM     24  C   LIG    1        3.557  -5.831   3.772  0.00  0.00    +0.020 A 
ATOM     25  N   LIG    1        2.426  -5.210   3.899  0.00  0.00    -0.280 NA
ATOM     26  N   LIG    1        2.265  -4.099   3.100  0.00  0.00    -0.280 NA
ATOM     27  C   LIG    1        3.264  -3.817   2.324  0.00  0.00    +0.020 A 
ATOM     28  S   LIG    1        4.537  -5.008   2.564  0.00  0.00    +0.150 S 
BRANCH  24  29
ATOM     29  S   LIG    1        4.035  -7.274   4.663  0.00  0.00    +0.020 S 
BRANCH  29  30
ATOM     30  C   LIG    1        2.594  -7.598   5.717  0.00  0.00    +0.090 C 
BRANCH  30  32
ATOM     31  C   LIG    1        1.639  -9.116   7.457  0.00  0.00    +0.040 C 
ATOM     32  C   LIG    1        2.854  -8.842   6.569  0.00  0.00    +0.050 C 
ENDBRANCH  30  32
ENDBRANCH  29  30
ENDBRANCH  24  29
ENDBRANCH  23  27
ENDBRANCH  22  23
ENDBRANCH  21  22
ENDBRANCH   1  21
TORSDOF 9
