REMARK  Name = ZINCkj000005lhmi.1
REMARK                            x       y       z     vdW  Elec       q    Type
REMARK                         _______ _______ _______ _____ _____    ______ ____
ROOT
ATOM      1  C   LIG    1       -3.154   0.927   1.318  0.00  0.00    +0.330 C 
ENDROOT
BRANCH   1   6
ATOM      2  C   LIG    1       -0.830   1.547   1.162  0.00  0.00    +0.160 C 
ATOM      3  C   LIG    1        0.043   1.098  -0.028  0.00  0.00    +0.100 C 
ATOM      4  C   LIG    1       -0.716   1.664  -1.257  0.00  0.00    +0.080 C 
ATOM      5  C   LIG    1       -2.192   1.500  -0.816  0.00  0.00    +0.270 C 
ATOM      6  N   LIG    1       -2.188   1.797   0.633  0.00  0.00    -0.380 N 
ATOM      7  H   LIG    1       -2.436   2.763   0.782  0.00  0.00    +0.430 HD
BRANCH   2  11
ATOM      8  N   LIG    1       -0.383   0.689   3.439  0.00  0.00    -0.830 N 
ATOM      9  H   LIG    1       -0.411  -0.011   4.110  0.00  0.00    +0.420 HD
ATOM     10  H   LIG    1       -0.001   1.554   3.656  0.00  0.00    +0.410 HD
ATOM     11  C   LIG    1       -0.874   0.460   2.205  0.00  0.00    +0.510 C 
ATOM     12  O   LIG    1       -1.352  -0.621   1.933  0.00  0.00    -0.510 OA
ENDBRANCH   2  11
ENDBRANCH   1   6
BRANCH   1  13
ATOM     13  C   LIG    1       -4.551   1.293   0.890  0.00  0.00    -0.170 A 
ATOM     14  C   LIG    1       -5.263   2.243   1.599  0.00  0.00    +0.080 A 
ATOM     15  C   LIG    1       -6.543   2.585   1.206  0.00  0.00    +0.010 A 
ATOM     16  C   LIG    1       -7.118   1.965   0.105  0.00  0.00    +0.180 A 
ATOM     17  C   LIG    1       -6.403   1.007  -0.601  0.00  0.00    +0.010 A 
ATOM     18  C   LIG    1       -5.122   0.674  -0.206  0.00  0.00    +0.080 A 
BRANCH  16  19
ATOM     19  N   LIG    1       -8.419   2.306  -0.292  0.00  0.00    -0.430 N 
ATOM     20  C   LIG    1       -9.239   3.228   0.306  0.00  0.00    +0.120 A 
ATOM     21  C   LIG    1      -10.389   3.239  -0.394  0.00  0.00    +0.170 A 
ATOM     22  N   LIG    1      -10.280   2.350  -1.393  0.00  0.00    -0.470 NA
ATOM     23  C   LIG    1       -9.102   1.789  -1.346  0.00  0.00    +0.410 A 
ENDBRANCH  16  19
ENDBRANCH   1  13
TORSDOF 4
