REMARK  Name = ZINCkj000005lhmi.0
REMARK                            x       y       z     vdW  Elec       q    Type
REMARK                         _______ _______ _______ _____ _____    ______ ____
ROOT
ATOM      1  C   LIG    1        1.536   3.207   0.807  0.00  0.00    +0.330 C 
ENDROOT
BRANCH   1   6
ATOM      2  C   LIG    1       -0.019   1.536   0.011  0.00  0.00    +0.170 C 
ATOM      3  C   LIG    1        0.002  -0.004   0.002  0.00  0.00    +0.090 C 
ATOM      4  C   LIG    1        1.500  -0.388   0.018  0.00  0.00    +0.080 C 
ATOM      5  C   LIG    1        2.176   0.880   0.598  0.00  0.00    +0.270 C 
ATOM      6  N   LIG    1        1.389   1.989  -0.001  0.00  0.00    -0.380 N 
ATOM      7  H   LIG    1        1.692   2.159  -0.948  0.00  0.00    +0.430 HD
BRANCH   2  11
ATOM      8  N   LIG    1       -2.027   1.735  -1.420  0.00  0.00    -0.820 N 
ATOM      9  H   LIG    1       -2.486   2.063  -2.208  0.00  0.00    +0.420 HD
ATOM     10  H   LIG    1       -2.500   1.182  -0.778  0.00  0.00    +0.410 HD
ATOM     11  C   LIG    1       -0.732   2.046  -1.215  0.00  0.00    +0.510 C 
ATOM     12  O   LIG    1       -0.140   2.737  -2.017  0.00  0.00    -0.530 OA
ENDBRANCH   2  11
ENDBRANCH   1   6
BRANCH   1  13
ATOM     13  C   LIG    1        2.946   3.723   0.686  0.00  0.00    -0.180 A 
ATOM     14  C   LIG    1        3.915   3.300   1.577  0.00  0.00    +0.080 A 
ATOM     15  C   LIG    1        5.210   3.768   1.466  0.00  0.00    +0.000 A 
ATOM     16  C   LIG    1        5.535   4.672   0.465  0.00  0.00    +0.180 A 
ATOM     17  C   LIG    1        4.560   5.100  -0.425  0.00  0.00    +0.010 A 
ATOM     18  C   LIG    1        3.268   4.624  -0.312  0.00  0.00    +0.090 A 
BRANCH  16  19
ATOM     19  N   LIG    1        6.848   5.153   0.352  0.00  0.00    -0.430 N 
ATOM     20  C   LIG    1        7.909   4.821   1.155  0.00  0.00    +0.120 A 
ATOM     21  C   LIG    1        8.974   5.506   0.696  0.00  0.00    +0.170 A 
ATOM     22  N   LIG    1        8.580   6.237  -0.357  0.00  0.00    -0.470 NA
ATOM     23  C   LIG    1        7.310   6.030  -0.576  0.00  0.00    +0.410 A 
ENDBRANCH  16  19
ENDBRANCH   1  13
TORSDOF 4
