REMARK  Name = ZINCrH000004m3Al.0
REMARK                            x       y       z     vdW  Elec       q    Type
REMARK                         _______ _______ _______ _____ _____    ______ ____
ROOT
ATOM      1  C   LIG    1        1.395   2.024  -0.000  0.00  0.00    +0.520 C 
ATOM      2  N   LIG    1        1.624   3.353   0.005  0.00  0.00    -0.610 N 
ATOM      3  C   LIG    1        0.497   4.289   0.020  0.00  0.00    +0.280 C 
ATOM      4  O   LIG    1        2.328   1.249  -0.013  0.00  0.00    -0.520 OA
ENDROOT
BRANCH   2   5
ATOM      5  C   LIG    1        2.998   3.860  -0.006  0.00  0.00    +0.290 C 
ATOM      6  C   LIG    1        3.213   4.706  -1.259  0.00  0.00    +0.010 C 
ATOM      7  C   LIG    1        4.576   5.400  -1.146  0.00  0.00    +0.020 C 
ATOM      8  C   LIG    1        4.485   6.463  -0.053  0.00  0.00    +0.080 C 
ATOM      9  C   LIG    1        3.923   5.873   1.214  0.00  0.00    -0.070 A 
ATOM     10  C   LIG    1        4.113   6.579   2.395  0.00  0.00    +0.000 A 
ATOM     11  C   LIG    1        3.611   6.098   3.587  0.00  0.00    +0.010 A 
ATOM     12  C   LIG    1        2.915   4.904   3.607  0.00  0.00    -0.010 A 
ATOM     13  C   LIG    1        2.729   4.200   2.435  0.00  0.00    +0.020 A 
ATOM     14  C   LIG    1        3.234   4.681   1.234  0.00  0.00    -0.090 A 
ENDBRANCH   2   5
BRANCH   1  15
ATOM     15  C   LIG    1       -0.018   1.503   0.010  0.00  0.00    +0.120 C 
BRANCH  15  18
ATOM     16  C   LIG    1        0.042  -2.086   1.193  0.00  0.00    +0.150 A 
ATOM     17  C   LIG    1        0.023  -0.700   1.196  0.00  0.00    -0.090 A 
ATOM     18  C   LIG    1        0.002  -0.004   0.002  0.00  0.00    +0.010 A 
ATOM     19  C   LIG    1       -0.006  -0.687  -1.200  0.00  0.00    -0.090 A 
ATOM     20  C   LIG    1        0.019  -2.073  -1.212  0.00  0.00    +0.150 A 
ATOM     21  C   LIG    1        0.040  -2.776  -0.013  0.00  0.00    +0.030 A 
BRANCH  16  23
ATOM     22  C   LIG    1        0.065  -1.995   3.569  0.00  0.00    +0.240 C 
ATOM     23  O   LIG    1        0.064  -2.770   2.369  0.00  0.00    -0.300 OA
ENDBRANCH  16  23
BRANCH  20  24
ATOM     24  O   LIG    1        0.016  -2.744  -2.395  0.00  0.00    -0.300 OA
ATOM     25  C   LIG    1       -0.006  -1.957  -3.587  0.00  0.00    +0.240 C 
ENDBRANCH  20  24
BRANCH  21  26
ATOM     26  O   LIG    1        0.059  -4.137  -0.021  0.00  0.00    -0.310 OA
ATOM     27  C   LIG    1       -1.206  -4.803  -0.012  0.00  0.00    +0.210 C 
ENDBRANCH  21  26
ENDBRANCH  15  18
ENDBRANCH   1  15
TORSDOF 6
