REMARK  Name = ZINCpk000000oTm2.0
REMARK                            x       y       z     vdW  Elec       q    Type
REMARK                         _______ _______ _______ _____ _____    ______ ____
ROOT
ATOM      1  N   LIG    1        1.258   1.918   0.000  0.00  0.00    -0.550 N 
ATOM      2  C   LIG    1       -0.018   1.495   0.010  0.00  0.00    +0.500 C 
ATOM      3  C   LIG    1        0.002  -0.004   0.002  0.00  0.00    +0.390 C 
ATOM      4  C   LIG    1        1.429  -0.363  -0.013  0.00  0.00    -0.280 A 
ATOM      5  C   LIG    1        2.103  -1.586  -0.027  0.00  0.00    +0.180 A 
ATOM      6  C   LIG    1        3.480  -1.608  -0.041  0.00  0.00    -0.100 A 
ATOM      7  C   LIG    1        4.196  -0.415  -0.041  0.00  0.00    +0.210 A 
ATOM      8  C   LIG    1        3.532   0.807  -0.028  0.00  0.00    -0.050 A 
ATOM      9  O   LIG    1       -0.950  -0.757   0.007  0.00  0.00    -0.370 OA
ATOM     10  O   LIG    1       -1.007   2.199   0.019  0.00  0.00    -0.430 OA
ATOM     11  C   LIG    1        2.148   0.847  -0.014  0.00  0.00    +0.230 A 
ENDROOT
BRANCH   7  12
ATOM     12  O   LIG    1        5.551  -0.444  -0.054  0.00  0.00    -0.310 OA
ATOM     13  C   LIG    1        6.173  -1.730  -0.067  0.00  0.00    +0.250 C 
ENDBRANCH   7  12
BRANCH   1  14
ATOM     14  C   LIG    1        1.661   3.327   0.003  0.00  0.00    +0.470 C 
BRANCH  14  18
ATOM     15  C   LIG    1        3.193   4.365   3.858  0.00  0.00    +0.030 C 
ATOM     16  C   LIG    1        2.756   5.474   2.897  0.00  0.00    +0.070 C 
ATOM     17  C   LIG    1        2.737   4.926   1.468  0.00  0.00    +0.190 C 
ATOM     18  N   LIG    1        1.809   3.791   1.389  0.00  0.00    -0.550 NA
ATOM     19  C   LIG    1        2.235   2.695   2.268  0.00  0.00    +0.180 C 
ATOM     20  C   LIG    1        2.238   3.176   3.721  0.00  0.00    +0.050 C 
BRANCH  15  21
ATOM     21  C   LIG    1        3.155   4.881   5.273  0.00  0.00    +0.470 C 
ATOM     22  O   LIG    1        2.814   6.019   5.492  0.00  0.00    -0.500 OA
BRANCH  21  23
ATOM     23  O   LIG    1        3.501   4.077   6.290  0.00  0.00    -0.360 OA
BRANCH  23  25
ATOM     24  C   LIG    1        3.868   3.584   8.647  0.00  0.00    +0.070 C 
ATOM     25  C   LIG    1        3.441   4.641   7.627  0.00  0.00    +0.200 C 
ENDBRANCH  23  25
ENDBRANCH  21  23
ENDBRANCH  15  21
ENDBRANCH  14  18
ENDBRANCH   1  14
TORSDOF 6
