REMARK  Name = ZINCvU0000000GKj.0
REMARK                            x       y       z     vdW  Elec       q    Type
REMARK                         _______ _______ _______ _____ _____    ______ ____
ROOT
ATOM      1  C   LIG    1       -5.367   0.213   0.222  0.00  0.00    -0.140 C 
ATOM      2  C   LIG    1       -4.832  -1.057   0.390  0.00  0.00    +0.300 C 
ENDROOT
BRANCH   2   3
ATOM      3  C   LIG    1       -3.441  -1.241   0.371  0.00  0.00    -0.050 A 
ATOM      4  C   LIG    1       -2.777  -2.450   0.526  0.00  0.00    +0.060 A 
ATOM      5  C   LIG    1       -1.414  -2.175   0.441  0.00  0.00    -0.020 A 
ATOM      6  C   LIG    1       -1.287  -0.817   0.238  0.00  0.00    +0.080 A 
ATOM      7  O   LIG    1       -2.515  -0.272   0.205  0.00  0.00    -0.150 OA
BRANCH   6   8
ATOM      8  C   LIG    1       -0.016  -0.084   0.089  0.00  0.00    -0.020 A 
ATOM      9  C   LIG    1        1.200  -0.769   0.149  0.00  0.00    +0.080 A 
ATOM     10  C   LIG    1        2.386  -0.078   0.008  0.00  0.00    +0.060 A 
ATOM     11  C   LIG    1        2.373   1.292  -0.192  0.00  0.00    -0.020 A 
ATOM     12  C   LIG    1        1.170   1.979  -0.252  0.00  0.00    -0.030 A 
ATOM     13 CL   LIG    1        1.164   3.696  -0.503  0.00  0.00    -0.030 Cl
ATOM     14 CL   LIG    1        3.870   2.154  -0.367  0.00  0.00    -0.040 Cl
ATOM     15  C   LIG    1       -0.023   1.299  -0.113  0.00  0.00    +0.080 A 
ENDBRANCH   6   8
ENDBRANCH   2   3
BRANCH   1  18
ATOM     16  N   LIG    1       -7.340   1.639   0.078  0.00  0.00    -0.670 N 
ATOM     17  H   LIG    1       -6.753   2.409   0.024  0.00  0.00    +0.410 HD
ATOM     18  C   LIG    1       -6.821   0.406   0.241  0.00  0.00    +0.580 C 
ATOM     19  O   LIG    1       -7.559  -0.548   0.405  0.00  0.00    -0.500 OA
BRANCH  16  23
ATOM     20  C   LIG    1      -11.464   2.143  -0.196  0.00  0.00    -0.140 A 
ATOM     21  C   LIG    1      -10.864   0.991  -0.712  0.00  0.00    +0.110 A 
ATOM     22  C   LIG    1       -9.500   0.828  -0.620  0.00  0.00    +0.020 A 
ATOM     23  C   LIG    1       -8.720   1.808  -0.013  0.00  0.00    +0.180 A 
ATOM     24  C   LIG    1       -9.315   2.954   0.506  0.00  0.00    -0.020 A 
ATOM     25  C   LIG    1      -10.677   3.126   0.412  0.00  0.00    +0.100 A 
BRANCH  20  26
ATOM     26  C   LIG    1      -12.925   2.322  -0.292  0.00  0.00    +0.510 C 
ATOM     27  O   LIG    1      -13.608   1.467  -0.821  0.00  0.00    -0.510 OA
BRANCH  26  28
ATOM     28  O   LIG    1      -13.502   3.433   0.205  0.00  0.00    -0.360 OA
BRANCH  28  30
ATOM     29  C   LIG    1      -15.415   4.859   0.694  0.00  0.00    +0.070 C 
ATOM     30  C   LIG    1      -14.944   3.541   0.075  0.00  0.00    +0.200 C 
ENDBRANCH  28  30
ENDBRANCH  26  28
ENDBRANCH  20  26
ENDBRANCH  16  23
ENDBRANCH   1  18
BRANCH   1  31
ATOM     31  C   LIG    1       -4.498   1.336   0.029  0.00  0.00    +0.240 C 
ATOM     32  N   LIG    1       -3.810   2.226  -0.124  0.00  0.00    -0.390 NA
ENDBRANCH   1  31
TORSDOF 8
