REMARK  Name = ZINCrD00000lciHf.0
REMARK                            x       y       z     vdW  Elec       q    Type
REMARK                         _______ _______ _______ _____ _____    ______ ____
ROOT
ATOM      1  N   LIG    1       -0.555   6.339  -3.395  0.00  0.00    -0.660 N 
ATOM      2  H   LIG    1       -0.201   7.242  -3.372  0.00  0.00    +0.420 HD
ATOM      3  C   LIG    1       -0.937   5.795  -4.567  0.00  0.00    +0.610 C 
ATOM      4  O   LIG    1       -1.470   4.700  -4.585  0.00  0.00    -0.520 OA
ENDROOT
BRANCH   3   5
ATOM      5  C   LIG    1       -0.710   6.520  -5.821  0.00  0.00    -0.040 A 
ATOM      6  N   LIG    1       -0.144   7.716  -5.970  0.00  0.00    -0.190 NA
ATOM      7  N   LIG    1       -0.100   8.063  -7.205  0.00  0.00    -0.320 NA
ATOM      8  C   LIG    1       -0.626   7.146  -8.006  0.00  0.00    +0.220 A 
ATOM      9  N   LIG    1       -0.808   7.049  -9.359  0.00  0.00    -0.470 N 
ATOM     10  H   LIG    1       -0.514   7.772  -9.935  0.00  0.00    +0.440 HD
ATOM     11  C   LIG    1       -1.375   5.960  -9.898  0.00  0.00    +0.420 A 
ATOM     12  C   LIG    1       -1.803   4.910  -9.120  0.00  0.00    -0.210 A 
ATOM     13  C   LIG    1       -1.647   4.956  -7.740  0.00  0.00    +0.290 A 
ATOM     14 BR   LIG    1       -2.606   3.401  -9.929  0.00  0.00    +0.010 Br
ATOM     15  C   LIG    1       -1.052   6.081  -7.174  0.00  0.00    -0.170 A 
ENDBRANCH   3   5
BRANCH   1  20
ATOM     16  C   LIG    1       -0.607   3.501  -1.058  0.00  0.00    -0.060 A 
ATOM     17  C   LIG    1       -0.903   4.145   0.129  0.00  0.00    +0.020 A 
ATOM     18  C   LIG    1       -1.074   5.517   0.151  0.00  0.00    +0.030 A 
ATOM     19  C   LIG    1       -0.961   6.247  -1.016  0.00  0.00    -0.010 A 
ATOM     20  C   LIG    1       -0.670   5.603  -2.211  0.00  0.00    +0.150 A 
ATOM     21  C   LIG    1       -0.493   4.226  -2.229  0.00  0.00    +0.020 A 
BRANCH  16  23
ATOM     22  C   LIG    1       -1.782   1.317  -1.080  0.00  0.00    +0.060 C 
ATOM     23  C   LIG    1       -0.416   2.006  -1.076  0.00  0.00    +0.170 C 
BRANCH  23  24
ATOM     24  N   LIG    1        0.337   1.595   0.116  0.00  0.00    -0.530 NA
ATOM     25  C   LIG    1        1.622   2.304   0.198  0.00  0.00    +0.150 C 
ATOM     26  C   LIG    1        2.346   1.890   1.482  0.00  0.00    +0.220 C 
ATOM     27  O   LIG    1        2.510   0.470   1.495  0.00  0.00    -0.390 OA
ATOM     28  C   LIG    1        1.278  -0.253   1.417  0.00  0.00    +0.220 C 
ATOM     29  C   LIG    1        0.543   0.139   0.132  0.00  0.00    +0.140 C 
ENDBRANCH  23  24
ENDBRANCH  16  23
ENDBRANCH   1  20
TORSDOF 4
