REMARK  Name = ZINCqH0000036tjE.0
REMARK                            x       y       z     vdW  Elec       q    Type
REMARK                         _______ _______ _______ _____ _____    ______ ____
ROOT
ATOM      1  C   LIG    1       -2.516   1.671   0.023  0.00  0.00    +0.530 C 
ATOM      2  N   LIG    1       -3.098   1.329  -1.143  0.00  0.00    -0.660 N 
ATOM      3  H   LIG    1       -2.721   1.638  -1.982  0.00  0.00    +0.420 HD
ATOM      4  O   LIG    1       -3.032   1.352   1.077  0.00  0.00    -0.450 OA
ENDROOT
BRANCH   1  11
ATOM      5  C   LIG    1       -1.271   3.828   0.035  0.00  0.00    -0.620 A 
ATOM      6  C   LIG    1       -0.086   4.533   0.028  0.00  0.00    +0.140 A 
ATOM      7  C   LIG    1        1.124   3.860   0.014  0.00  0.00    +0.050 A 
ATOM      8  C   LIG    1        1.154   2.478   0.006  0.00  0.00    +0.090 A 
ATOM      9  C   LIG    1       -0.026   1.759   0.013  0.00  0.00    -0.020 A 
ATOM     10 CL   LIG    1        0.013   0.023   0.004  0.00  0.00    -0.040 Cl
ATOM     11  C   LIG    1       -1.250   2.432   0.022  0.00  0.00    -0.030 A 
BRANCH   5  13
ATOM     12  C   LIG    1       -3.580   4.269  -1.535  0.00  0.00    -0.260 C 
ATOM     13  S   LIG    1       -2.809   4.688   0.053  0.00  0.00    +2.480 S 
ATOM     14  O   LIG    1       -2.443   6.060   0.082  0.00  0.00    -0.920 OA
ATOM     15  O   LIG    1       -3.528   4.098   1.127  0.00  0.00    -0.910 OA
ENDBRANCH   5  13
ENDBRANCH   1  11
BRANCH   2  16
ATOM     16  C   LIG    1       -4.248   0.528  -1.145  0.00  0.00    +0.100 A 
ATOM     17  C   LIG    1       -5.184   0.654  -0.128  0.00  0.00    +0.120 A 
ATOM     18  C   LIG    1       -6.320  -0.133  -0.134  0.00  0.00    -0.010 A 
ATOM     19  C   LIG    1       -6.522  -1.056  -1.146  0.00  0.00    +0.130 A 
ATOM     20  C   LIG    1       -5.589  -1.190  -2.161  0.00  0.00    -0.080 A 
ATOM     21  F   LIG    1       -7.631  -1.826  -1.144  0.00  0.00    -0.130 F 
ATOM     22  C   LIG    1       -4.451  -0.400  -2.164  0.00  0.00    +0.140 A 
BRANCH  22  23
ATOM     23  O   LIG    1       -3.534  -0.530  -3.159  0.00  0.00    -0.300 OA
BRANCH  23  24
ATOM     24  C   LIG    1       -3.808  -1.502  -4.171  0.00  0.00    +0.200 C 
BRANCH  24  25
ATOM     25  C   LIG    1       -2.673  -1.504  -5.197  0.00  0.00    +0.410 C 
ATOM     26  F   LIG    1       -1.469  -1.822  -4.559  0.00  0.00    -0.190 F 
ATOM     27  F   LIG    1       -2.571  -0.238  -5.782  0.00  0.00    -0.200 F 
ENDBRANCH  24  25
ENDBRANCH  23  24
ENDBRANCH  22  23
ENDBRANCH   2  16
TORSDOF 6
