REMARK  Name = ZINCrD0000073wkf.0
REMARK                            x       y       z     vdW  Elec       q    Type
REMARK                         _______ _______ _______ _____ _____    ______ ____
ROOT
ATOM      1  S   LIG    1        2.739  -2.660   4.610  0.00  0.00    +2.700 S 
ATOM      2  O   LIG    1        2.167  -3.959   4.688  0.00  0.00    -0.940 OA
ATOM      3  O   LIG    1        2.811  -1.775   5.720  0.00  0.00    -0.940 OA
ENDROOT
BRANCH   1   7
ATOM      4  C   LIG    1        0.479  -0.460   1.361  0.00  0.00    +0.250 A 
ATOM      5  C   LIG    1        1.138   0.252   2.353  0.00  0.00    -0.070 A 
ATOM      6  C   LIG    1        1.823  -0.422   3.346  0.00  0.00    +0.230 A 
ATOM      7  C   LIG    1        1.860  -1.804   3.346  0.00  0.00    -0.720 A 
ATOM      8  C   LIG    1        1.207  -2.516   2.356  0.00  0.00    +0.270 A 
ATOM      9  C   LIG    1        0.517  -1.847   1.364  0.00  0.00    -0.100 A 
BRANCH   9  10
ATOM     10  N   LIG    1       -0.182  -2.609   0.305  0.00  0.00    +0.030 N 
ATOM     11  O   LIG    1       -0.790  -2.019  -0.569  0.00  0.00    -0.130 OA
ATOM     12  O   LIG    1       -0.148  -3.826   0.308  0.00  0.00    -0.170 OA
ENDBRANCH   9  10
BRANCH   4  14
ATOM     13  C   LIG    1       -0.196   1.628   0.447  0.00  0.00    +0.270 C 
ATOM     14  O   LIG    1       -0.199   0.201   0.386  0.00  0.00    -0.270 OA
ENDBRANCH   4  14
ENDBRANCH   1   7
BRANCH   1  15
ATOM     15  N   LIG    1        4.293  -2.865   4.074  0.00  0.00    -1.040 N 
ATOM     16  H   LIG    1        4.656  -3.758   3.969  0.00  0.00    +0.440 HD
BRANCH  15  17
ATOM     17  C   LIG    1        5.082  -1.748   3.774  0.00  0.00    +0.180 A 
ATOM     18  C   LIG    1        4.964  -0.590   4.527  0.00  0.00    -0.010 A 
ATOM     19  C   LIG    1        5.745   0.512   4.229  0.00  0.00    +0.040 A 
ATOM     20  C   LIG    1        6.645   0.463   3.181  0.00  0.00    +0.010 A 
ATOM     21  C   LIG    1        6.769  -0.688   2.424  0.00  0.00    +0.000 A 
ATOM     22  C   LIG    1        5.994  -1.799   2.720  0.00  0.00    +0.070 A 
BRANCH  22  23
ATOM     23  N   LIG    1        6.123  -2.967   1.959  0.00  0.00    -0.500 N 
ATOM     24  C   LIG    1        7.461  -3.551   2.113  0.00  0.00    +0.180 C 
ATOM     25  C   LIG    1        7.519  -4.898   1.387  0.00  0.00    +0.020 C 
ATOM     26  C   LIG    1        7.202  -4.686  -0.096  0.00  0.00    +0.010 C 
ATOM     27  C   LIG    1        5.823  -4.033  -0.227  0.00  0.00    +0.020 C 
ATOM     28  C   LIG    1        5.815  -2.712   0.546  0.00  0.00    +0.170 C 
ENDBRANCH  22  23
ENDBRANCH  15  17
ENDBRANCH   1  15
TORSDOF 6
