REMARK  Name = ZINCrH000004u7Mv.0
REMARK                            x       y       z     vdW  Elec       q    Type
REMARK                         _______ _______ _______ _____ _____    ______ ____
ROOT
ATOM      1  C   LIG    1        0.140  -6.488   5.432  0.00  0.00    +0.570 C 
ATOM      2  N   LIG    1        0.096  -5.601   4.418  0.00  0.00    -0.720 N 
ATOM      3  H   LIG    1        0.076  -5.915   3.500  0.00  0.00    +0.410 HD
ATOM      4  O   LIG    1        0.258  -6.096   6.576  0.00  0.00    -0.510 OA
ENDROOT
BRANCH   1   8
ATOM      5  O   LIG    1       -0.061 -10.258   2.478  0.00  0.00    -0.520 OA
ATOM      6  C   LIG    1       -0.056  -9.843   3.624  0.00  0.00    +0.540 A 
ATOM      7  C   LIG    1        0.038  -8.405   3.868  0.00  0.00    +0.000 A 
ATOM      8  C   LIG    1        0.045  -7.941   5.152  0.00  0.00    -0.030 A 
ATOM      9  C   LIG    1       -0.037  -8.915   6.251  0.00  0.00    -0.110 A 
ATOM     10  C   LIG    1       -0.027  -8.490   7.583  0.00  0.00    +0.110 A 
ATOM     11  C   LIG    1       -0.104  -9.410   8.590  0.00  0.00    -0.020 A 
ATOM     12  C   LIG    1       -0.192 -10.765   8.303  0.00  0.00    +0.070 A 
ATOM     13  C   LIG    1       -0.214 -11.206   6.997  0.00  0.00    -0.030 A 
ATOM     14  C   LIG    1       -0.131 -10.286   5.954  0.00  0.00    +0.180 A 
ATOM     15  N   LIG    1       -0.135 -10.715   4.644  0.00  0.00    -0.630 N 
ATOM     16  H   LIG    1       -0.196 -11.664   4.455  0.00  0.00    +0.420 HD
ENDBRANCH   1   8
BRANCH   2  17
ATOM     17  C   LIG    1        0.077  -4.164   4.701  0.00  0.00    +0.440 C 
BRANCH  17  18
ATOM     18  C   LIG    1        0.028  -3.415   3.435  0.00  0.00    -0.170 C 
ATOM     19  C   LIG    1       -0.011  -2.818   2.425  0.00  0.00    -0.110 C 
BRANCH  19  20
ATOM     20  C   LIG    1       -0.059  -2.089   1.193  0.00  0.00    +0.010 A 
ATOM     21  C   LIG    1       -0.081  -2.771  -0.024  0.00  0.00    +0.080 A 
ATOM     22  C   LIG    1       -0.128  -2.063  -1.208  0.00  0.00    +0.020 A 
ATOM     23  C   LIG    1       -0.158  -0.680  -1.189  0.00  0.00    +0.080 A 
ATOM     24  C   LIG    1       -0.131   0.002   0.014  0.00  0.00    -0.180 A 
ATOM     25  C   LIG    1       -0.085  -0.694   1.205  0.00  0.00    +0.090 A 
BRANCH  24  26
ATOM     26  C   LIG    1       -0.159   1.509   0.025  0.00  0.00    +0.510 C 
ATOM     27  F   LIG    1       -0.794   1.955   1.189  0.00  0.00    -0.170 F 
ATOM     28  F   LIG    1       -0.859   1.970  -1.095  0.00  0.00    -0.170 F 
ATOM     29  F   LIG    1        1.151   1.999  -0.009  0.00  0.00    -0.170 F 
ENDBRANCH  24  26
ENDBRANCH  19  20
ENDBRANCH  17  18
ENDBRANCH   2  17
TORSDOF 5
