REMARK  Name = ZINCqH00000h6XzQ.0
REMARK                            x       y       z     vdW  Elec       q    Type
REMARK                         _______ _______ _______ _____ _____    ______ ____
ROOT
ATOM      1  C   LIG    1        0.146   2.473   2.076  0.00  0.00    +0.160 A 
ATOM      2  N   LIG    1        0.508   2.272   3.320  0.00  0.00    -0.480 NA
ATOM      3  C   LIG    1        1.313   3.302   3.634  0.00  0.00    +0.160 A 
ATOM      4  N   LIG    1        1.397   4.064   2.585  0.00  0.00    -0.360 NA
ATOM      5  O   LIG    1        0.738   3.603   1.677  0.00  0.00    +0.140 OA
ENDROOT
BRANCH   3   6
ATOM      6  C   LIG    1        1.992   3.532   4.960  0.00  0.00    +0.160 C 
ATOM      7  C   LIG    1        3.505   3.561   4.753  0.00  0.00    +0.040 C 
ATOM      8  C   LIG    1        4.164   4.008   6.063  0.00  0.00    +0.020 C 
ATOM      9  C   LIG    1        3.842   5.485   6.285  0.00  0.00    +0.080 C 
ATOM     10  C   LIG    1        2.362   5.729   6.157  0.00  0.00    -0.070 A 
ATOM     11  C   LIG    1        1.854   6.910   6.682  0.00  0.00    +0.000 A 
ATOM     12  C   LIG    1        0.506   7.195   6.592  0.00  0.00    +0.010 A 
ATOM     13  C   LIG    1       -0.345   6.299   5.974  0.00  0.00    +0.000 A 
ATOM     14  C   LIG    1        0.158   5.124   5.454  0.00  0.00    +0.000 A 
ATOM     15  C   LIG    1        1.512   4.835   5.545  0.00  0.00    -0.070 A 
ENDBRANCH   3   6
BRANCH   1  20
ATOM     16  C   LIG    1       -0.013   1.086   0.008  0.00  0.00    +0.100 C 
ATOM     17  C   LIG    1       -0.786   1.611  -1.219  0.00  0.00    +0.060 C 
ATOM     18  C   LIG    1       -2.221   1.858  -0.685  0.00  0.00    +0.040 C 
ATOM     19  C   LIG    1       -1.964   2.413   0.738  0.00  0.00    +0.040 C 
ATOM     20  C   LIG    1       -0.761   1.596   1.252  0.00  0.00    +0.130 C 
BRANCH  16  26
ATOM     21  C   LIG    1        2.640  -0.575   0.004  0.00  0.00    +0.340 C 
ATOM     22  N   LIG    1        2.534   0.886  -0.004  0.00  0.00    -0.470 N 
ATOM     23  C   LIG    1        3.555   1.776  -0.015  0.00  0.00    +0.370 A 
ATOM     24  N   LIG    1        3.029   2.971  -0.019  0.00  0.00    -0.290 NA
ATOM     25  N   LIG    1        1.746   2.878  -0.018  0.00  0.00    -0.260 NA
ATOM     26  C   LIG    1        1.396   1.621  -0.003  0.00  0.00    +0.160 A 
ENDBRANCH  16  26
ENDBRANCH   1  20
TORSDOF 3
