REMARK  Name = ZINCkj000005bDOx.0
REMARK                            x       y       z     vdW  Elec       q    Type
REMARK                         _______ _______ _______ _____ _____    ______ ____
ROOT
ATOM      1  C   LIG    1       -2.701  -1.946  -1.609  0.00  0.00    +0.510 C 
ATOM      2  N   LIG    1       -1.626  -1.169  -1.369  0.00  0.00    -0.730 N 
ATOM      3  H   LIG    1       -1.123  -0.795  -2.110  0.00  0.00    +0.400 HD
ATOM      4  O   LIG    1       -3.329  -2.414  -0.684  0.00  0.00    -0.470 OA
ENDROOT
BRANCH   1   6
ATOM      5  C   LIG    1       -4.012  -1.098  -3.535  0.00  0.00    +0.130 C 
ATOM      6  C   LIG    1       -3.121  -2.234  -3.027  0.00  0.00    +0.050 C 
ATOM      7  C   LIG    1       -3.900  -3.550  -3.071  0.00  0.00    +0.100 C 
ATOM      8  C   LIG    1       -3.004  -4.684  -2.563  0.00  0.00    +0.040 C 
ATOM      9  C   LIG    1       -1.731  -4.734  -3.412  0.00  0.00    +0.060 C 
ATOM     10  C   LIG    1       -1.032  -3.374  -3.356  0.00  0.00    +0.250 C 
ATOM     11  N   LIG    1       -1.930  -2.338  -3.879  0.00  0.00    -0.500 N 
ATOM     12  H   LIG    1       -1.448  -1.452  -3.890  0.00  0.00    +0.420 HD
ATOM     13  H   LIG    1       -2.209  -2.579  -4.818  0.00  0.00    +0.440 HD
ENDBRANCH   1   6
BRANCH   2  14
ATOM     14  C   LIG    1       -1.217  -0.889   0.009  0.00  0.00    +0.400 C 
BRANCH  14  15
ATOM     15  C   LIG    1        0.002  -0.004   0.002  0.00  0.00    -0.200 A 
ATOM     16  C   LIG    1       -0.016   1.330   0.009  0.00  0.00    +0.040 A 
ATOM     17  C   LIG    1        1.231   1.930   0.001  0.00  0.00    +0.160 A 
ATOM     18  C   LIG    1        2.262   1.084  -0.014  0.00  0.00    -0.760 A 
ATOM     19  S   LIG    1        1.667  -0.571  -0.017  0.00  0.00    +0.240 S 
BRANCH  18  20
ATOM     20  S   LIG    1        3.961   1.552  -0.027  0.00  0.00    +2.520 S 
ATOM     21  O   LIG    1        3.964   2.841  -0.625  0.00  0.00    -0.920 OA
ATOM     22  O   LIG    1        4.622   0.456  -0.645  0.00  0.00    -0.930 OA
ATOM     23  C   LIG    1        4.414   1.662   1.726  0.00  0.00    -0.230 C 
ENDBRANCH  18  20
ENDBRANCH  14  15
ENDBRANCH   2  14
TORSDOF 4
