REMARK  Name = ZINCrD00000idRzK.0
REMARK                            x       y       z     vdW  Elec       q    Type
REMARK                         _______ _______ _______ _____ _____    ______ ____
ROOT
ATOM      1  C   LIG    1        5.191  -2.107   0.391  0.00  0.00    +0.240 A 
ATOM      2  N   LIG    1        3.942  -1.827   0.663  0.00  0.00    -0.290 NA
ATOM      3  N   LIG    1        3.614  -0.668  -0.059  0.00  0.00    -0.320 N 
ATOM      4  C   LIG    1        4.735  -0.322  -0.748  0.00  0.00    +0.350 A 
ATOM      5  N   LIG    1        5.672  -1.201  -0.455  0.00  0.00    -0.500 NA
ENDROOT
BRANCH   4   6
ATOM      6  C   LIG    1        4.877   0.835  -1.658  0.00  0.00    +0.110 A 
ATOM      7  N   LIG    1        3.902   1.708  -1.765  0.00  0.00    -0.190 NA
ATOM      8  N   LIG    1        3.979   2.732  -2.536  0.00  0.00    -0.340 N 
ATOM      9  C   LIG    1        5.065   2.967  -3.296  0.00  0.00    +0.480 A 
ATOM     10  C   LIG    1        6.157   2.073  -3.245  0.00  0.00    -0.030 A 
ATOM     11  O   LIG    1        5.106   3.947  -4.022  0.00  0.00    -0.520 OA
ATOM     12  C   LIG    1        2.851   3.665  -2.596  0.00  0.00    +0.380 C 
ATOM     13  C   LIG    1        6.062   0.995  -2.417  0.00  0.00    +0.000 A 
ATOM     14  C   LIG    1        7.188  -0.002  -2.312  0.00  0.00    +0.150 C 
ENDBRANCH   4   6
BRANCH   3  15
ATOM     15  C   LIG    1        2.379  -0.006  -0.072  0.00  0.00    +0.130 A 
ATOM     16  C   LIG    1        1.822   0.404  -1.276  0.00  0.00    +0.080 A 
ATOM     17  C   LIG    1        0.605   1.056  -1.286  0.00  0.00    +0.010 A 
ATOM     18  C   LIG    1       -0.060   1.302  -0.097  0.00  0.00    +0.110 A 
ATOM     19  C   LIG    1        0.493   0.893   1.105  0.00  0.00    -0.110 A 
ATOM     20  C   LIG    1       -0.233   1.162   2.398  0.00  0.00    +0.120 C 
ATOM     21  F   LIG    1       -1.253   1.935  -0.110  0.00  0.00    -0.130 F 
ATOM     22  C   LIG    1        1.710   0.241   1.120  0.00  0.00    +0.070 A 
ENDBRANCH   3  15
BRANCH   1  23
ATOM     23  C   LIG    1        5.964  -3.274   0.950  0.00  0.00    +0.170 C 
BRANCH  23  24
ATOM     24  C   LIG    1        5.801  -4.483   0.027  0.00  0.00    -0.010 C 
ATOM     25  C   LIG    1        4.338  -4.930   0.026  0.00  0.00    +0.020 C 
BRANCH  24  27
ATOM     26  C   LIG    1        6.617  -6.793  -0.465  0.00  0.00    +0.010 C 
ATOM     27  C   LIG    1        6.684  -5.628   0.526  0.00  0.00    +0.010 C 
ENDBRANCH  24  27
ENDBRANCH  23  24
ENDBRANCH   1  23
TORSDOF 5
