REMARK  Name = ZINCrg00000fSd17.0
REMARK                            x       y       z     vdW  Elec       q    Type
REMARK                         _______ _______ _______ _____ _____    ______ ____
ROOT
ATOM      1  C   LIG    1       -4.053   6.164   1.620  0.00  0.00    +0.030 C 
ATOM      2  C   LIG    1       -4.005   5.778   3.100  0.00  0.00    +0.020 C 
ATOM      3  C   LIG    1       -4.248   4.267   3.227  0.00  0.00    +0.290 C 
ATOM      4  N   LIG    1       -3.098   3.462   2.934  0.00  0.00    -0.630 N 
ATOM      5  C   LIG    1       -2.308   2.912   4.077  0.00  0.00    +0.320 C 
ATOM      6  C   LIG    1       -1.398   3.904   4.600  0.00  0.00    -0.350 C 
ATOM      7  S   LIG    1       -2.261   5.382   5.226  0.00  0.00    +2.440 S 
ATOM      8  O   LIG    1       -1.339   6.176   5.960  0.00  0.00    -0.940 OA
ATOM      9  O   LIG    1       -3.478   4.977   5.839  0.00  0.00    -0.930 OA
ATOM     10  C   LIG    1       -2.736   3.212   1.661  0.00  0.00    +0.710 C 
ATOM     11  N   LIG    1       -1.648   2.458   1.405  0.00  0.00    -0.740 N 
ATOM     12  H   LIG    1       -1.127   2.095   2.138  0.00  0.00    +0.400 HD
ATOM     13  O   LIG    1       -3.390   3.667   0.742  0.00  0.00    -0.570 OA
ATOM     14  C   LIG    1       -2.640   6.213   3.685  0.00  0.00    -0.350 C 
ENDROOT
BRANCH  11  15
ATOM     15  C   LIG    1       -1.254   2.187   0.020  0.00  0.00    +0.430 C 
BRANCH  15  16
ATOM     16  C   LIG    1       -0.016   1.328   0.009  0.00  0.00    +0.200 A 
ATOM     17  N   LIG    1        1.214   1.769   0.000  0.00  0.00    -0.290 NA
ATOM     18  N   LIG    1        2.050   0.641  -0.014  0.00  0.00    -0.370 N 
ATOM     19  C   LIG    1        1.239  -0.431  -0.012  0.00  0.00    +0.480 A 
ATOM     20  N   LIG    1        0.002  -0.004   0.002  0.00  0.00    -0.530 NA
BRANCH  18  21
ATOM     21  C   LIG    1        3.515   0.633  -0.028  0.00  0.00    +0.400 C 
BRANCH  21  22
ATOM     22  C   LIG    1        4.011   1.452  -1.192  0.00  0.00    -0.090 A 
ATOM     23  C   LIG    1        4.250   2.804  -1.034  0.00  0.00    +0.040 A 
ATOM     24  C   LIG    1        4.705   3.556  -2.101  0.00  0.00    +0.050 A 
ATOM     25  C   LIG    1        4.921   2.956  -3.327  0.00  0.00    +0.000 A 
ATOM     26  C   LIG    1        4.682   1.602  -3.487  0.00  0.00    +0.100 A 
ATOM     27  F   LIG    1        4.893   1.015  -4.685  0.00  0.00    -0.140 F 
ATOM     28  C   LIG    1        4.231   0.849  -2.416  0.00  0.00    +0.010 A 
ENDBRANCH  21  22
ENDBRANCH  18  21
ENDBRANCH  15  16
ENDBRANCH  11  15
TORSDOF 4
