REMARK  Name = ZINCqH0000050WBI.0
REMARK                            x       y       z     vdW  Elec       q    Type
REMARK                         _______ _______ _______ _____ _____    ______ ____
ROOT
ATOM      1  C   LIG    1       -5.494   2.562  -2.962  0.00  0.00    +0.350 C 
ENDROOT
BRANCH   1   5
ATOM      2  N   LIG    1       -2.826   1.715   0.203  0.00  0.00    -0.470 N 
ATOM      3  C   LIG    1       -2.292   2.398  -0.983  0.00  0.00    +0.210 C 
ATOM      4  C   LIG    1       -3.239   2.177  -2.165  0.00  0.00    +0.190 C 
ATOM      5  N   LIG    1       -4.574   2.687  -1.823  0.00  0.00    -0.540 NA
ATOM      6  C   LIG    1       -5.108   2.004  -0.637  0.00  0.00    +0.200 C 
ATOM      7  C   LIG    1       -4.161   2.225   0.545  0.00  0.00    +0.210 C 
BRANCH   2  13
ATOM      8  C   LIG    1       -1.506  -0.623   1.633  0.00  0.00    +0.330 C 
ATOM      9  N   LIG    1       -1.358   0.804   1.931  0.00  0.00    -0.450 N 
ATOM     10  C   LIG    1       -0.579   1.357   2.922  0.00  0.00    +0.130 A 
ATOM     11  C   LIG    1       -0.733   2.689   2.844  0.00  0.00    +0.150 A 
ATOM     12  N   LIG    1       -1.581   2.958   1.836  0.00  0.00    -0.500 NA
ATOM     13  C   LIG    1       -1.959   1.833   1.277  0.00  0.00    +0.370 A 
ENDBRANCH   2  13
ENDBRANCH   1   5
BRANCH   1  14
ATOM     14  C   LIG    1       -4.814   3.054  -4.213  0.00  0.00    +0.210 A 
ATOM     15  N   LIG    1       -4.103   2.323  -5.025  0.00  0.00    -0.470 NA
ATOM     16  C   LIG    1       -3.658   3.095  -6.029  0.00  0.00    +0.190 A 
ATOM     17  C   LIG    1       -4.115   4.354  -5.809  0.00  0.00    -0.020 A 
ATOM     18  O   LIG    1       -4.838   4.314  -4.668  0.00  0.00    -0.180 OA
BRANCH  17  19
ATOM     19  C   LIG    1       -3.870   5.541  -6.655  0.00  0.00    +0.000 A 
ATOM     20  C   LIG    1       -4.937   6.342  -7.064  0.00  0.00    +0.060 A 
ATOM     21  C   LIG    1       -4.701   7.452  -7.850  0.00  0.00    +0.050 A 
ATOM     22  C   LIG    1       -3.413   7.765  -8.242  0.00  0.00    +0.060 A 
ATOM     23  C   LIG    1       -2.349   6.972  -7.845  0.00  0.00    -0.030 A 
ATOM     24 CL   LIG    1       -0.735   7.374  -8.343  0.00  0.00    -0.040 Cl
ATOM     25  C   LIG    1       -2.571   5.861  -7.054  0.00  0.00    -0.010 A 
ATOM     26 CL   LIG    1       -1.237   4.867  -6.557  0.00  0.00    -0.030 Cl
ENDBRANCH  17  19
ENDBRANCH   1  14
TORSDOF 4
