REMARK  Name = ZINCrH000004speD.0
REMARK                            x       y       z     vdW  Elec       q    Type
REMARK                         _______ _______ _______ _____ _____    ______ ____
ROOT
ATOM      1  C   LIG    1       -1.175   3.816  -1.791  0.00  0.00    +0.620 C 
ATOM      2  N   LIG    1       -1.609   2.577  -1.488  0.00  0.00    -0.600 N 
ATOM      3  C   LIG    1       -2.469   1.852  -2.426  0.00  0.00    +0.310 C 
ATOM      4  O   LIG    1       -0.384   4.379  -1.060  0.00  0.00    -0.510 OA
ENDROOT
BRANCH   1   8
ATOM      5  C   LIG    1       -3.718   4.831  -5.956  0.00  0.00    +0.210 C 
ATOM      6  C   LIG    1       -2.757   4.918  -4.798  0.00  0.00    +0.220 A 
ATOM      7  N   LIG    1       -2.615   4.033  -3.844  0.00  0.00    -0.470 NA
ATOM      8  C   LIG    1       -1.661   4.491  -3.013  0.00  0.00    +0.150 A 
ATOM      9  N   LIG    1       -1.232   5.643  -3.483  0.00  0.00    -0.250 NA
ATOM     10  N   LIG    1       -1.883   5.917  -4.561  0.00  0.00    -0.250 N 
BRANCH  10  11
ATOM     11  C   LIG    1       -1.712   7.061  -5.354  0.00  0.00    +0.110 A 
ATOM     12  C   LIG    1       -1.842   6.976  -6.733  0.00  0.00    +0.070 A 
ATOM     13  C   LIG    1       -1.677   8.105  -7.512  0.00  0.00    +0.020 A 
ATOM     14  C   LIG    1       -1.371   9.318  -6.918  0.00  0.00    +0.120 A 
ATOM     15  C   LIG    1       -1.236   9.403  -5.543  0.00  0.00    +0.010 A 
ATOM     16  F   LIG    1       -1.206  10.420  -7.682  0.00  0.00    -0.130 F 
ATOM     17  C   LIG    1       -1.405   8.278  -4.760  0.00  0.00    +0.090 A 
ENDBRANCH  10  11
ENDBRANCH   1   8
BRANCH   2  18
ATOM     18  C   LIG    1       -1.219   1.954  -0.220  0.00  0.00    +0.420 C 
BRANCH  18  19
ATOM     19  C   LIG    1        0.063   1.185  -0.411  0.00  0.00    -0.050 A 
ATOM     20  C   LIG    1        1.305   1.677  -0.254  0.00  0.00    -0.020 A 
ATOM     21  C   LIG    1        2.202   0.621  -0.537  0.00  0.00    -0.060 A 
ATOM     22  C   LIG    1        1.454  -0.453  -0.850  0.00  0.00    +0.030 A 
ATOM     23  O   LIG    1        0.159  -0.105  -0.772  0.00  0.00    -0.170 OA
BRANCH  22  24
ATOM     24  C   LIG    1        1.979  -1.814  -1.224  0.00  0.00    +0.040 C 
ATOM     25  C   LIG    1        0.972  -2.842  -1.743  0.00  0.00    +0.030 C 
ATOM     26  C   LIG    1        1.572  -2.996  -0.343  0.00  0.00    -0.030 C 
ATOM     27  C   LIG    1        0.662  -2.705   0.853  0.00  0.00    +0.060 C 
ENDBRANCH  22  24
ENDBRANCH  18  19
ENDBRANCH   2  18
TORSDOF 5
