REMARK  Name = ZINCbu0000001MXM.0
REMARK                            x       y       z     vdW  Elec       q    Type
REMARK                         _______ _______ _______ _____ _____    ______ ____
ROOT
ATOM      1  C   LIG    1       -0.019   1.526   0.010  0.00  0.00    +0.090 C 
ATOM      2  C   LIG    1        0.002  -0.004   0.002  0.00  0.00    +0.170 C 
ATOM      3  C   LIG    1       -1.434  -0.533   0.011  0.00  0.00    +0.060 C 
ATOM      4  C   LIG    1       -1.408  -2.064   0.002  0.00  0.00    +0.000 C 
ATOM      5  C   LIG    1       -0.600  -2.558   1.206  0.00  0.00    +0.050 C 
ATOM      6  C   LIG    1        0.805  -1.954   1.153  0.00  0.00    +0.250 C 
ATOM      7  N   LIG    1        0.713  -0.490   1.191  0.00  0.00    -0.500 N 
ATOM      8  H   LIG    1        0.212  -0.207   2.020  0.00  0.00    +0.430 HD
ATOM      9  H   LIG    1        1.642  -0.096   1.210  0.00  0.00    +0.430 HD
ENDROOT
BRANCH   4  10
ATOM     10  C   LIG    1       -2.837  -2.602   0.089  0.00  0.00    -0.060 C 
ATOM     11  C   LIG    1       -2.808  -4.132   0.089  0.00  0.00    +0.030 C 
ATOM     12  C   LIG    1       -3.643  -2.108  -1.114  0.00  0.00    +0.030 C 
ATOM     13  C   LIG    1       -3.491  -2.105   1.380  0.00  0.00    +0.040 C 
ENDBRANCH   4  10
TORSDOF 1
