REMARK  Name = ZINCrH000004tsHr.0
REMARK                            x       y       z     vdW  Elec       q    Type
REMARK                         _______ _______ _______ _____ _____    ______ ____
ROOT
ATOM      1  C   LIG    1       -0.016   1.299   0.009  0.00  0.00    +0.110 A 
ATOM      2  N   LIG    1        0.002  -0.004   0.002  0.00  0.00    -0.430 NA
ATOM      3  C   LIG    1        1.178  -0.585  -0.012  0.00  0.00    +0.040 A 
ATOM      4  C   LIG    1        2.235   0.237  -0.018  0.00  0.00    -0.040 A 
ATOM      5  S   LIG    1        1.642   1.897  -0.003  0.00  0.00    +0.130 S 
ENDROOT
BRANCH   1   9
ATOM      6  C   LIG    1       -3.510   3.718   0.040  0.00  0.00    -0.120 A 
ATOM      7  C   LIG    1       -2.247   4.315   0.037  0.00  0.00    +0.090 A 
ATOM      8  C   LIG    1       -1.116   3.532   0.027  0.00  0.00    +0.030 A 
ATOM      9  C   LIG    1       -1.230   2.139   0.020  0.00  0.00    -0.000 A 
ATOM     10  C   LIG    1       -2.493   1.542   0.017  0.00  0.00    +0.080 A 
ATOM     11  C   LIG    1       -3.625   2.325   0.033  0.00  0.00    +0.050 A 
BRANCH   6  15
ATOM     12  N   LIG    1       -5.943   3.982   0.054  0.00  0.00    -0.850 N 
ATOM     13  H   LIG    1       -6.741   4.534   0.060  0.00  0.00    +0.410 HD
ATOM     14  H   LIG    1       -6.022   3.015   0.049  0.00  0.00    +0.400 HD
ATOM     15  C   LIG    1       -4.725   4.558   0.051  0.00  0.00    +0.560 C 
ATOM     16  O   LIG    1       -4.625   5.770   0.057  0.00  0.00    -0.540 OA
ENDBRANCH   6  15
ENDBRANCH   1   9
BRANCH   3  17
ATOM     17  C   LIG    1        1.330  -2.084  -0.021  0.00  0.00    +0.420 C 
BRANCH  17  18
ATOM     18  N   LIG    1        1.272  -2.589   1.353  0.00  0.00    -0.490 N 
ATOM     19  C   LIG    1        2.417  -2.708   2.073  0.00  0.00    +0.390 A 
ATOM     20  C   LIG    1        2.389  -3.167   3.345  0.00  0.00    -0.290 A 
ATOM     21  C   LIG    1        1.169  -3.537   3.930  0.00  0.00    +0.180 A 
ATOM     22  C   LIG    1        0.020  -3.422   3.203  0.00  0.00    -0.150 A 
ATOM     23 CL   LIG    1       -1.506  -3.872   3.898  0.00  0.00    -0.010 Cl
ATOM     24  C   LIG    1        0.085  -2.936   1.885  0.00  0.00    +0.530 A 
ATOM     25  O   LIG    1       -0.936  -2.828   1.224  0.00  0.00    -0.480 OA
BRANCH  20  26
ATOM     26  C   LIG    1        3.669  -3.286   4.133  0.00  0.00    +0.530 C 
ATOM     27  F   LIG    1        4.747  -3.425   3.252  0.00  0.00    -0.180 F 
ATOM     28  F   LIG    1        3.600  -4.408   4.966  0.00  0.00    -0.170 F 
ATOM     29  F   LIG    1        3.847  -2.137   4.910  0.00  0.00    -0.170 F 
ENDBRANCH  20  26
ENDBRANCH  17  18
ENDBRANCH   3  17
TORSDOF 5
