REMARK  Name = ZINCvU0000000Ioh.0
REMARK                            x       y       z     vdW  Elec       q    Type
REMARK                         _______ _______ _______ _____ _____    ______ ____
ROOT
ATOM      1  C   LIG    1       -2.435   1.505   5.266  0.00  0.00    +0.130 C 
ATOM      2  C   LIG    1       -1.661   1.539   3.974  0.00  0.00    -0.240 A 
ATOM      3  C   LIG    1       -0.344   1.723   3.873  0.00  0.00    -0.060 A 
ATOM      4  C   LIG    1        0.151   1.711   2.580  0.00  0.00    -0.140 A 
ATOM      5  C   LIG    1       -0.773   1.521   1.627  0.00  0.00    +0.050 A 
ATOM      6  C   LIG    1        0.540   1.922   5.077  0.00  0.00    +0.110 C 
ATOM      7  S   LIG    1       -2.357   1.346   2.371  0.00  0.00    +0.220 S 
ENDROOT
BRANCH   5   8
ATOM      8  N   LIG    1       -0.518   1.471   0.255  0.00  0.00    -0.620 N 
ATOM      9  H   LIG    1        0.396   1.492  -0.069  0.00  0.00    +0.420 HD
ATOM     10  C   LIG    1       -1.541   1.393  -0.619  0.00  0.00    +0.600 C 
ATOM     11  O   LIG    1       -2.688   1.366  -0.212  0.00  0.00    -0.490 OA
BRANCH  10  12
ATOM     12  C   LIG    1       -1.272   1.340  -2.060  0.00  0.00    -0.090 A 
ATOM     13  C   LIG    1       -2.211   1.255  -3.048  0.00  0.00    +0.060 A 
ATOM     14  C   LIG    1       -1.513   1.234  -4.266  0.00  0.00    -0.060 A 
ATOM     15  C   LIG    1       -0.196   1.298  -3.971  0.00  0.00    +0.220 A 
ATOM     16  O   LIG    1       -0.055   1.362  -2.640  0.00  0.00    -0.170 OA
ENDBRANCH  10  12
ENDBRANCH   5   8
BRANCH   4  17
ATOM     17  C   LIG    1        1.614   1.896   2.268  0.00  0.00    +0.250 C 
BRANCH  17  18
ATOM     18  C   LIG    1        2.002   3.331   2.512  0.00  0.00    -0.050 A 
ATOM     19  C   LIG    1        2.530   3.706   3.733  0.00  0.00    +0.070 A 
ATOM     20  C   LIG    1        2.891   5.022   3.957  0.00  0.00    +0.030 A 
ATOM     21  C   LIG    1        2.714   5.966   2.963  0.00  0.00    +0.040 A 
ATOM     22  C   LIG    1        2.180   5.594   1.742  0.00  0.00    -0.030 A 
ATOM     23 CL   LIG    1        1.957   6.779   0.494  0.00  0.00    -0.050 Cl
ATOM     24  C   LIG    1        1.824   4.275   1.516  0.00  0.00    -0.030 A 
ATOM     25 CL   LIG    1        1.154   3.806  -0.015  0.00  0.00    -0.050 Cl
ENDBRANCH  17  18
BRANCH  17  26
ATOM     26  N   LIG    1        2.414   1.018   3.132  0.00  0.00    -0.520 NA
ATOM     27  C   LIG    1        3.840   1.095   2.785  0.00  0.00    +0.180 C 
ATOM     28  C   LIG    1        4.645   0.230   3.758  0.00  0.00    +0.180 C 
ATOM     29  N   LIG    1        4.164  -1.157   3.691  0.00  0.00    -0.550 NA
ATOM     30  C   LIG    1        2.738  -1.234   4.037  0.00  0.00    +0.190 C 
ATOM     31  C   LIG    1        4.964  -2.034   4.555  0.00  0.00    +0.200 C 
ATOM     32  C   LIG    1        1.932  -0.369   3.065  0.00  0.00    +0.190 C 
ENDBRANCH  17  26
ENDBRANCH   4  17
TORSDOF 5
