REMARK  Name = ZINCpe00000blUQT.0
REMARK                            x       y       z     vdW  Elec       q    Type
REMARK                         _______ _______ _______ _____ _____    ______ ____
ROOT
ATOM      1  C   LIG    1       -7.490   2.629   0.418  0.00  0.00    +0.510 C 
ATOM      2  N   LIG    1       -6.646   2.068   1.307  0.00  0.00    -0.610 N 
ATOM      3  C   LIG    1       -6.344   2.740   2.579  0.00  0.00    +0.290 C 
ATOM      4  C   LIG    1       -4.824   2.876   2.715  0.00  0.00    +0.030 C 
ATOM      5  C   LIG    1       -4.174   1.504   2.548  0.00  0.00    -0.070 C 
ATOM      6  C   LIG    1       -4.493   0.927   1.171  0.00  0.00    +0.030 C 
ATOM      7  C   LIG    1       -4.683   0.550   3.644  0.00  0.00    +0.020 C 
ATOM      8  C   LIG    1       -3.598   0.628   4.748  0.00  0.00    +0.020 C 
ATOM      9  C   LIG    1       -2.285   0.725   3.931  0.00  0.00    +0.010 C 
ATOM     10  C   LIG    1       -2.653   1.619   2.728  0.00  0.00    +0.240 C 
ATOM     11  C   LIG    1       -6.011   0.774   1.022  0.00  0.00    +0.270 C 
ATOM     12  O   LIG    1       -8.008   3.697   0.665  0.00  0.00    -0.530 OA
ENDROOT
BRANCH  10  13
ATOM     13  N   LIG    1       -1.967   1.147   1.523  0.00  0.00    -0.730 N 
ATOM     14  H   LIG    1       -2.412   0.528   0.923  0.00  0.00    +0.400 HD
ATOM     15  C   LIG    1       -0.718   1.572   1.248  0.00  0.00    +0.510 C 
ATOM     16  O   LIG    1       -0.162   2.345   1.998  0.00  0.00    -0.510 OA
BRANCH  15  17
ATOM     17  C   LIG    1       -0.013   1.086   0.008  0.00  0.00    +0.160 C 
ATOM     18  C   LIG    1       -0.753   1.593  -1.232  0.00  0.00    +0.040 C 
BRANCH  17  19
ATOM     19  O   LIG    1        1.328   1.580  -0.002  0.00  0.00    -0.360 OA
ATOM     20  C   LIG    1        2.258   0.725  -0.668  0.00  0.00    +0.200 C 
ENDBRANCH  17  19
ENDBRANCH  15  17
ENDBRANCH  10  13
BRANCH   1  21
ATOM     21  C   LIG    1       -7.790   1.928  -0.882  0.00  0.00    +0.300 C 
BRANCH  21  23
ATOM     22  C   LIG    1       -9.141   2.303  -2.874  0.00  0.00    +0.510 C 
ATOM     23  N   LIG    1       -8.727   2.735  -1.666  0.00  0.00    -0.720 N 
ATOM     24  H   LIG    1       -9.050   3.580  -1.317  0.00  0.00    +0.410 HD
ATOM     25  O   LIG    1       -8.737   1.246  -3.312  0.00  0.00    -0.540 OA
BRANCH  22  27
ATOM     26  C   LIG    1      -10.410   2.422  -5.002  0.00  0.00    +0.040 C 
ATOM     27  C   LIG    1      -10.105   3.133  -3.682  0.00  0.00    +0.060 C 
ENDBRANCH  22  27
ENDBRANCH  21  23
ENDBRANCH   1  21
TORSDOF 6
