REMARK  Name = ZINCpe000000XSJo.0
REMARK                            x       y       z     vdW  Elec       q    Type
REMARK                         _______ _______ _______ _____ _____    ______ ____
ROOT
ATOM      1  N   LIG    1        2.015   1.110   1.907  0.00  0.00    -0.490 N 
ATOM      2  C   LIG    1        0.738   0.383   1.923  0.00  0.00    +0.210 C 
ATOM      3  C   LIG    1        0.092   0.462   0.537  0.00  0.00    +0.200 C 
ATOM      4  N   LIG    1       -0.112   1.871   0.174  0.00  0.00    -0.520 NA
ATOM      5  C   LIG    1        1.165   2.599   0.159  0.00  0.00    +0.190 C 
ATOM      6  C   LIG    1        1.810   2.520   1.544  0.00  0.00    +0.200 C 
ENDROOT
BRANCH   1  12
ATOM      7  C   LIG    1        5.874   2.178   4.757  0.00  0.00    +0.090 C 
ATOM      8  C   LIG    1        4.541   1.507   4.546  0.00  0.00    -0.060 A 
ATOM      9  C   LIG    1        3.964   0.781   5.572  0.00  0.00    -0.030 A 
ATOM     10  C   LIG    1        2.741   0.163   5.383  0.00  0.00    +0.030 A 
ATOM     11  C   LIG    1        2.089   0.275   4.171  0.00  0.00    -0.050 A 
ATOM     12  C   LIG    1        2.669   1.000   3.136  0.00  0.00    +0.110 A 
ATOM     13  C   LIG    1        3.897   1.618   3.329  0.00  0.00    -0.020 A 
ENDBRANCH   1  12
BRANCH   4  14
ATOM     14  C   LIG    1       -0.800   1.987  -1.118  0.00  0.00    +0.180 C 
ATOM     15  C   LIG    1       -0.126   1.068  -2.139  0.00  0.00    +0.030 C 
BRANCH  14  16
ATOM     16  C   LIG    1       -2.244   1.586  -0.957  0.00  0.00    +0.520 C 
ATOM     17  N   LIG    1       -3.134   1.869  -1.929  0.00  0.00    -0.720 N 
ATOM     18  H   LIG    1       -2.846   2.331  -2.732  0.00  0.00    +0.400 HD
ATOM     19  O   LIG    1       -2.604   1.009   0.047  0.00  0.00    -0.510 OA
BRANCH  17  20
ATOM     20  C   LIG    1       -4.538   1.479  -1.772  0.00  0.00    +0.270 C 
ATOM     21  C   LIG    1       -5.189   1.323  -3.157  0.00  0.00    +0.070 C 
ATOM     22  C   LIG    1       -6.719   1.243  -2.921  0.00  0.00    -0.310 C 
ATOM     23  S   LIG    1       -6.997   2.542  -1.658  0.00  0.00    +2.390 S 
ATOM     24  O   LIG    1       -7.885   2.050  -0.664  0.00  0.00    -0.930 OA
ATOM     25  O   LIG    1       -7.270   3.777  -2.306  0.00  0.00    -0.930 OA
ATOM     26  C   LIG    1       -5.295   2.571  -0.990  0.00  0.00    -0.320 C 
ENDBRANCH  17  20
ENDBRANCH  14  16
ENDBRANCH   4  14
TORSDOF 4
