REMARK  Name = ZINCvU0000000A5E.0
REMARK                            x       y       z     vdW  Elec       q    Type
REMARK                         _______ _______ _______ _____ _____    ______ ____
ROOT
ATOM      1  N   LIG    1       -0.437  -2.012  -0.644  0.00  0.00    -0.490 N 
ATOM      2  C   LIG    1       -0.551  -0.693  -0.894  0.00  0.00    +0.480 A 
ATOM      3  N   LIG    1        0.043  -0.032   0.121  0.00  0.00    -0.360 N 
ATOM      4  N   LIG    1        0.526  -0.991   1.022  0.00  0.00    -0.260 NA
ATOM      5  S   LIG    1       -1.309   0.017  -2.255  0.00  0.00    -0.570 S 
ATOM      6  C   LIG    1        0.232  -2.171   0.553  0.00  0.00    +0.320 A 
ENDROOT
BRANCH   6   7
ATOM      7  C   LIG    1        0.562  -3.462   1.194  0.00  0.00    -0.040 A 
ATOM      8  C   LIG    1       -0.162  -4.610   0.870  0.00  0.00    +0.060 A 
ATOM      9  C   LIG    1        0.154  -5.813   1.466  0.00  0.00    +0.040 A 
ATOM     10  C   LIG    1        1.179  -5.881   2.395  0.00  0.00    -0.010 A 
ATOM     11  C   LIG    1        1.897  -4.744   2.725  0.00  0.00    +0.040 A 
ATOM     12 CL   LIG    1        1.565  -7.396   3.148  0.00  0.00    -0.050 Cl
ATOM     13  C   LIG    1        1.594  -3.536   2.131  0.00  0.00    +0.100 A 
ENDBRANCH   6   7
BRANCH   1  14
ATOM     14  C   LIG    1       -0.943  -3.093  -1.495  0.00  0.00    +0.330 C 
BRANCH  14  16
ATOM     15  C   LIG    1       -2.909  -4.560  -1.966  0.00  0.00    +0.050 C 
ATOM     16  C   LIG    1       -2.418  -3.346  -1.176  0.00  0.00    +0.010 C 
ENDBRANCH  14  16
ENDBRANCH   1  14
BRANCH   3  17
ATOM     17  C   LIG    1        0.156   1.422   0.260  0.00  0.00    +0.520 C 
BRANCH  17  18
ATOM     18  N   LIG    1        1.533   1.837  -0.039  0.00  0.00    -0.550 NA
ATOM     19  C   LIG    1        2.409   1.631   1.123  0.00  0.00    +0.200 C 
BRANCH  18  20
ATOM     20  C   LIG    1        1.577   3.234  -0.491  0.00  0.00    +0.240 C 
BRANCH  20  21
ATOM     21  C   LIG    1        2.952   3.549  -1.018  0.00  0.00    -0.080 A 
ATOM     22  C   LIG    1        3.922   4.042  -0.166  0.00  0.00    +0.010 A 
ATOM     23  C   LIG    1        5.187   4.328  -0.644  0.00  0.00    -0.050 A 
ATOM     24  C   LIG    1        5.482   4.131  -1.983  0.00  0.00    +0.110 A 
ATOM     25  C   LIG    1        4.505   3.639  -2.843  0.00  0.00    +0.100 A 
ATOM     26  C   LIG    1        3.241   3.349  -2.356  0.00  0.00    -0.010 A 
BRANCH  25  27
ATOM     27  O   LIG    1        4.790   3.443  -4.158  0.00  0.00    -0.310 OA
ATOM     28  C   LIG    1        3.738   2.936  -4.981  0.00  0.00    +0.250 C 
ENDBRANCH  25  27
BRANCH  24  29
ATOM     29  O   LIG    1        6.725   4.417  -2.456  0.00  0.00    -0.310 OA
BRANCH  29  30
ATOM     30  C   LIG    1        7.678   4.918  -1.516  0.00  0.00    +0.170 C 
ATOM     31  C   LIG    1        9.007   5.180  -2.228  0.00  0.00    +0.070 C 
ENDBRANCH  29  30
ENDBRANCH  24  29
ENDBRANCH  20  21
ENDBRANCH  18  20
ENDBRANCH  17  18
ENDBRANCH   3  17
TORSDOF 10
