REMARK  Name = ZINCpe00000yI8Py.0
REMARK                            x       y       z     vdW  Elec       q    Type
REMARK                         _______ _______ _______ _____ _____    ______ ____
ROOT
ATOM      1  C   LIG    1       -1.659   3.770  -3.969  0.00  0.00    +0.610 C 
ATOM      2  N   LIG    1       -2.604   3.608  -4.917  0.00  0.00    -0.610 N 
ATOM      3  C   LIG    1       -3.502   2.451  -5.042  0.00  0.00    +0.260 C 
ATOM      4  C   LIG    1       -4.391   2.693  -6.280  0.00  0.00    +0.040 C 
ATOM      5  C   LIG    1       -3.554   3.699  -7.115  0.00  0.00    -0.010 C 
ATOM      6  C   LIG    1       -2.903   4.559  -6.003  0.00  0.00    +0.280 C 
ATOM      7  O   LIG    1       -0.967   4.769  -3.966  0.00  0.00    -0.520 OA
ENDROOT
BRANCH   1  10
ATOM      8  C   LIG    1       -0.742   1.585  -1.213  0.00  0.00    -0.030 A 
ATOM      9  C   LIG    1       -0.521   2.750  -1.865  0.00  0.00    +0.030 A 
ATOM     10  C   LIG    1       -1.464   2.728  -2.931  0.00  0.00    -0.030 A 
ATOM     11  N   LIG    1       -2.128   1.606  -2.807  0.00  0.00    -0.320 NA
ATOM     12  O   LIG    1       -1.738   0.964  -1.860  0.00  0.00    +0.130 OA
BRANCH   8  13
ATOM     13  C   LIG    1       -0.013   1.086   0.008  0.00  0.00    +0.310 C 
BRANCH  13  15
ATOM     14  C   LIG    1       -0.068   1.127   2.404  0.00  0.00    +0.220 C 
ATOM     15  O   LIG    1       -0.682   1.547   1.184  0.00  0.00    -0.390 OA
ENDBRANCH  13  15
ENDBRANCH   8  13
ENDBRANCH   1  10
BRANCH   5  16
ATOM     16  C   LIG    1       -4.455   4.551  -8.010  0.00  0.00    +0.040 C 
BRANCH  16  17
ATOM     17  C   LIG    1       -3.600   5.551  -8.790  0.00  0.00    +0.260 C 
BRANCH  17  18
ATOM     18  N   LIG    1       -4.463   6.368  -9.648  0.00  0.00    -0.730 N 
ATOM     19  H   LIG    1       -5.422   6.221  -9.651  0.00  0.00    +0.390 HD
ATOM     20  C   LIG    1       -3.925   7.323 -10.432  0.00  0.00    +0.600 C 
ATOM     21  O   LIG    1       -2.722   7.507 -10.428  0.00  0.00    -0.520 OA
BRANCH  20  22
ATOM     22  C   LIG    1       -4.789   8.140 -11.291  0.00  0.00    -0.100 A 
ATOM     23  C   LIG    1       -4.396   9.144 -12.131  0.00  0.00    +0.270 A 
ATOM     24  N   LIG    1       -5.487   9.627 -12.727  0.00  0.00    -0.500 NA
ATOM     25  C   LIG    1       -6.544   8.985 -12.299  0.00  0.00    +0.440 A 
ATOM     26  N   LIG    1       -6.163   8.053 -11.407  0.00  0.00    -0.560 N 
ATOM     27  H   LIG    1       -6.744   7.436 -10.934  0.00  0.00    +0.420 HD
ENDBRANCH  20  22
ENDBRANCH  17  18
ENDBRANCH  16  17
ENDBRANCH   5  16
TORSDOF 7
