REMARK  Name = ZINCrD000000g8iM.0
REMARK                            x       y       z     vdW  Elec       q    Type
REMARK                         _______ _______ _______ _____ _____    ______ ____
ROOT
ATOM      1  C   LIG    1        3.549   2.085  -1.179  0.00  0.00    +0.540 C 
ATOM      2  N   LIG    1        3.865   3.378  -1.390  0.00  0.00    -0.610 N 
ATOM      3  C   LIG    1        2.824   4.372  -1.698  0.00  0.00    +0.240 C 
ATOM      4  C   LIG    1        3.247   5.151  -2.944  0.00  0.00    +0.220 C 
ATOM      5  O   LIG    1        4.572   5.655  -2.759  0.00  0.00    -0.370 OA
ATOM      6  C   LIG    1        5.566   4.641  -2.594  0.00  0.00    +0.190 C 
ATOM      7  C   LIG    1        5.262   3.837  -1.325  0.00  0.00    +0.270 C 
ATOM      8  O   LIG    1        4.422   1.280  -0.931  0.00  0.00    -0.520 OA
ENDROOT
BRANCH   1  15
ATOM      9  C   LIG    1        2.965   0.430  -3.202  0.00  0.00    +0.650 C 
ATOM     10  N   LIG    1        1.947   0.683  -2.355  0.00  0.00    -0.590 N 
ATOM     11  C   LIG    1        0.652   0.009  -2.518  0.00  0.00    +0.280 C 
ATOM     12  C   LIG    1        0.274  -0.661  -1.193  0.00  0.00    +0.010 C 
ATOM     13  C   LIG    1        0.303   0.382  -0.073  0.00  0.00    +0.020 C 
ATOM     14  C   LIG    1        1.717   0.952   0.059  0.00  0.00    +0.040 C 
ATOM     15  C   LIG    1        2.111   1.639  -1.252  0.00  0.00    +0.240 C 
ATOM     16  O   LIG    1        3.993   1.073  -3.125  0.00  0.00    -0.540 OA
BRANCH   9  17
ATOM     17  O   LIG    1        2.842  -0.535  -4.132  0.00  0.00    -0.360 OA
BRANCH  17  19
ATOM     18  C   LIG    1        5.201  -1.139  -4.176  0.00  0.00    +0.040 C 
ATOM     19  C   LIG    1        3.978  -0.752  -5.010  0.00  0.00    +0.140 C 
ATOM     20  C   LIG    1        4.276   0.532  -5.787  0.00  0.00    +0.030 C 
ATOM     21  C   LIG    1        3.654  -1.879  -5.993  0.00  0.00    +0.080 C 
ENDBRANCH  17  19
ENDBRANCH   9  17
ENDBRANCH   1  15
BRANCH   6  22
ATOM     22  C   LIG    1        6.924   5.283  -2.469  0.00  0.00    -0.090 A 
ATOM     23  C   LIG    1        7.073   6.449  -1.743  0.00  0.00    +0.040 A 
ATOM     24  C   LIG    1        8.319   7.036  -1.625  0.00  0.00    +0.000 A 
ATOM     25  C   LIG    1        9.415   6.461  -2.241  0.00  0.00    +0.010 A 
ATOM     26  C   LIG    1        9.265   5.297  -2.971  0.00  0.00    +0.000 A 
ATOM     27  C   LIG    1        8.020   4.708  -3.086  0.00  0.00    +0.020 A 
ENDBRANCH   6  22
TORSDOF 4
