REMARK  Name = ZINCvU0000000FDb.1
REMARK                            x       y       z     vdW  Elec       q    Type
REMARK                         _______ _______ _______ _____ _____    ______ ____
ROOT
ATOM      1  N   LIG    1        3.595   5.949  -0.107  0.00  0.00    -0.540 N 
ATOM      2  C   LIG    1        4.883   5.250  -0.229  0.00  0.00    +0.330 C 
ATOM      3  C   LIG    1        5.630   5.825  -1.443  0.00  0.00    +0.170 C 
ATOM      4  N   LIG    1        5.726   7.285  -1.307  0.00  0.00    -0.510 NA
ATOM      5  C   LIG    1        4.396   7.909  -1.315  0.00  0.00    +0.170 C 
ATOM      6  C   LIG    1        3.598   7.420  -0.101  0.00  0.00    +0.250 C 
ENDROOT
BRANCH   4   7
ATOM      7  C   LIG    1        6.582   7.857  -2.354  0.00  0.00    +0.280 C 
ATOM      8  C   LIG    1        6.056   7.480  -3.718  0.00  0.00    -0.120 A 
ATOM      9  C   LIG    1        4.858   7.734  -4.350  0.00  0.00    +0.020 A 
ATOM     10  C   LIG    1        4.636   7.257  -5.631  0.00  0.00    +0.020 A 
ATOM     11  C   LIG    1        5.616   6.526  -6.278  0.00  0.00    +0.020 A 
ATOM     12  C   LIG    1        6.821   6.267  -5.652  0.00  0.00    +0.020 A 
ATOM     13  C   LIG    1        7.051   6.745  -4.361  0.00  0.00    -0.050 A 
ATOM     14  C   LIG    1        8.229   6.618  -3.466  0.00  0.00    -0.060 A 
ATOM     15  C   LIG    1        9.458   5.984  -3.650  0.00  0.00    +0.020 A 
ATOM     16  C   LIG    1       10.404   6.011  -2.646  0.00  0.00    +0.020 A 
ATOM     17  C   LIG    1       10.139   6.665  -1.457  0.00  0.00    +0.020 A 
ATOM     18  C   LIG    1        8.922   7.296  -1.268  0.00  0.00    +0.050 A 
ATOM     19  C   LIG    1        7.971   7.274  -2.265  0.00  0.00    -0.080 A 
ENDBRANCH   4   7
BRANCH   1  21
ATOM     20  C   LIG    1        1.262   5.863   0.028  0.00  0.00    +0.160 C 
ATOM     21  N   LIG    1        2.396   5.232   0.007  0.00  0.00    -0.220 NA
BRANCH  20  25
ATOM     22  C   LIG    1       -2.381   3.683   0.013  0.00  0.00    +0.140 A 
ATOM     23  C   LIG    1       -2.405   5.071   0.037  0.00  0.00    -0.020 A 
ATOM     24  C   LIG    1       -1.225   5.783   0.043  0.00  0.00    +0.070 A 
ATOM     25  C   LIG    1       -0.003   5.106   0.021  0.00  0.00    -0.070 A 
ATOM     26  C   LIG    1        0.016   3.709  -0.009  0.00  0.00    +0.080 A 
ATOM     27  C   LIG    1       -1.169   3.006  -0.015  0.00  0.00    -0.080 A 
BRANCH  22  28
ATOM     28  O   LIG    1       -3.547   2.985   0.013  0.00  0.00    -0.320 OA
BRANCH  28  29
ATOM     29  C   LIG    1       -3.450   1.560  -0.012  0.00  0.00    +0.180 C 
BRANCH  29  31
ATOM     30  C   LIG    1       -4.750  -0.574  -0.036  0.00  0.00    +0.040 C 
ATOM     31  C   LIG    1       -4.854   0.953  -0.009  0.00  0.00    +0.020 C 
ENDBRANCH  29  31
ENDBRANCH  28  29
ENDBRANCH  22  28
ENDBRANCH  20  25
ENDBRANCH   1  21
TORSDOF 6
