REMARK  Name = ZINCpk000000oUo3.0
REMARK                            x       y       z     vdW  Elec       q    Type
REMARK                         _______ _______ _______ _____ _____    ______ ____
ROOT
ATOM      1  C   LIG    1        2.470   3.923   0.001  0.00  0.00    +0.400 C 
ENDROOT
BRANCH   1   2
ATOM      2  C   LIG    1        1.166   3.167   0.008  0.00  0.00    -0.100 A 
ATOM      3  C   LIG    1        1.174   1.783   0.000  0.00  0.00    +0.100 A 
ATOM      4  C   LIG    1       -0.013   1.076   0.008  0.00  0.00    +0.070 A 
ATOM      5  C   LIG    1       -1.228   1.756   0.017  0.00  0.00    +0.050 A 
ATOM      6  C   LIG    1       -1.237   3.165   0.031  0.00  0.00    -0.090 A 
ATOM      7  C   LIG    1       -0.029   3.860   0.024  0.00  0.00    +0.110 A 
BRANCH   6   8
ATOM      8  C   LIG    1       -2.517   3.900   0.048  0.00  0.00    +0.500 C 
ATOM      9  O   LIG    1       -3.568   3.290   0.054  0.00  0.00    -0.490 OA
BRANCH   8  10
ATOM     10  O   LIG    1       -2.520   5.247   0.055  0.00  0.00    -0.350 OA
ATOM     11  C   LIG    1       -3.816   5.904   0.071  0.00  0.00    +0.290 C 
ENDBRANCH   8  10
ENDBRANCH   6   8
BRANCH   5  12
ATOM     12  C   LIG    1       -2.461   1.028   0.019  0.00  0.00    +0.240 C 
ATOM     13  N   LIG    1       -3.440   0.450   0.020  0.00  0.00    -0.370 NA
ENDBRANCH   5  12
ENDBRANCH   1   2
BRANCH   1  16
ATOM     14  C   LIG    1        3.417   3.872  -3.471  0.00  0.00    +0.230 A 
ATOM     15  N   LIG    1        3.048   3.221  -2.399  0.00  0.00    -0.300 NA
ATOM     16  N   LIG    1        2.879   4.176  -1.383  0.00  0.00    -0.380 N 
ATOM     17  C   LIG    1        3.162   5.369  -1.934  0.00  0.00    +0.480 A 
ATOM     18  N   LIG    1        3.487   5.171  -3.186  0.00  0.00    -0.540 NA
BRANCH  14  19
ATOM     19  C   LIG    1        3.714   3.252  -4.812  0.00  0.00    +0.190 C 
BRANCH  19  20
ATOM     20  C   LIG    1        2.433   3.200  -5.646  0.00  0.00    +0.110 C 
BRANCH  20  21
ATOM     21  C   LIG    1        2.730   2.581  -6.987  0.00  0.00    +0.470 C 
ATOM     22  O   LIG    1        3.852   2.218  -7.249  0.00  0.00    -0.510 OA
BRANCH  21  23
ATOM     23  O   LIG    1        1.748   2.432  -7.890  0.00  0.00    -0.360 OA
BRANCH  23  25
ATOM     24  C   LIG    1        0.868   1.742 -10.053  0.00  0.00    +0.070 C 
ATOM     25  C   LIG    1        2.108   1.827  -9.161  0.00  0.00    +0.200 C 
ENDBRANCH  23  25
ENDBRANCH  21  23
ENDBRANCH  20  21
ENDBRANCH  19  20
ENDBRANCH  14  19
ENDBRANCH   1  16
TORSDOF 10
