REMARK  Name = ZINCqH0000007UfT.0
REMARK                            x       y       z     vdW  Elec       q    Type
REMARK                         _______ _______ _______ _____ _____    ______ ____
ROOT
ATOM      1  C   LIG    1        1.206   3.613   0.176  0.00  0.00    +0.080 A 
ATOM      2  C   LIG    1        2.519   3.956   0.181  0.00  0.00    +0.090 A 
ATOM      3  N   LIG    1        3.233   2.802   0.073  0.00  0.00    -0.220 N 
ATOM      4  N   LIG    1        2.439   1.795   0.009  0.00  0.00    -0.240 NA
ATOM      5  C   LIG    1        1.183   2.200   0.059  0.00  0.00    +0.000 A 
ENDROOT
BRANCH   5   6
ATOM      6  C   LIG    1       -0.016   1.344   0.009  0.00  0.00    +0.600 C 
ATOM      7  N   LIG    1        0.108   0.022  -0.227  0.00  0.00    -0.600 N 
ATOM      8  C   LIG    1        1.413  -0.556  -0.575  0.00  0.00    +0.270 C 
ATOM      9  C   LIG    1        1.713  -1.711   0.386  0.00  0.00    +0.020 C 
ATOM     10  C   LIG    1        0.554  -2.710   0.354  0.00  0.00    +0.020 C 
ATOM     11  C   LIG    1       -0.731  -2.018   0.817  0.00  0.00    -0.040 C 
ATOM     12  C   LIG    1       -1.882  -3.026   0.816  0.00  0.00    +0.030 C 
ATOM     13  C   LIG    1       -1.057  -0.868  -0.134  0.00  0.00    +0.280 C 
ATOM     14  O   LIG    1       -1.118   1.830   0.176  0.00  0.00    -0.520 OA
ENDBRANCH   5   6
BRANCH   3  15
ATOM     15  C   LIG    1        4.632   2.724   0.041  0.00  0.00    +0.140 A 
ATOM     16  C   LIG    1        5.396   3.868   0.228  0.00  0.00    +0.050 A 
ATOM     17  C   LIG    1        6.775   3.788   0.196  0.00  0.00    +0.060 A 
ATOM     18  C   LIG    1        7.394   2.570  -0.021  0.00  0.00    +0.080 A 
ATOM     19  C   LIG    1        6.634   1.429  -0.207  0.00  0.00    -0.160 A 
ATOM     20  C   LIG    1        5.256   1.502  -0.171  0.00  0.00    +0.090 A 
BRANCH  19  21
ATOM     21  C   LIG    1        7.312   0.104  -0.443  0.00  0.00    +0.510 C 
ATOM     22  F   LIG    1        6.919  -0.407  -1.684  0.00  0.00    -0.170 F 
ATOM     23  F   LIG    1        6.947  -0.792   0.568  0.00  0.00    -0.170 F 
ATOM     24  F   LIG    1        8.700   0.281  -0.430  0.00  0.00    -0.170 F 
ENDBRANCH  19  21
ENDBRANCH   3  15
BRANCH   1  26
ATOM     25  C   LIG    1        0.412   5.847   0.376  0.00  0.00    +0.250 C 
ATOM     26  O   LIG    1        0.136   4.449   0.265  0.00  0.00    -0.270 OA
ENDBRANCH   1  26
TORSDOF 4
