REMARK  Name = ZINCrH000004kXTx.0
REMARK                            x       y       z     vdW  Elec       q    Type
REMARK                         _______ _______ _______ _____ _____    ______ ____
ROOT
ATOM      1  N   LIG    1        4.269   3.305  -3.132  0.00  0.00    -0.690 N 
ATOM      2  H   LIG    1        4.229   4.177  -3.554  0.00  0.00    +0.410 HD
ATOM      3  C   LIG    1        3.676   3.104  -1.939  0.00  0.00    +0.710 C 
ATOM      4  N   LIG    1        2.947   4.088  -1.375  0.00  0.00    -0.620 N 
ATOM      5  C   LIG    1        2.888   5.409  -2.005  0.00  0.00    +0.280 C 
ATOM      6  O   LIG    1        3.799   2.036  -1.371  0.00  0.00    -0.560 OA
ENDROOT
BRANCH   1  10
ATOM      7  C   LIG    1        6.279   0.177  -5.011  0.00  0.00    -0.150 A 
ATOM      8  C   LIG    1        5.562   1.106  -5.771  0.00  0.00    +0.110 A 
ATOM      9  C   LIG    1        4.899   2.138  -5.147  0.00  0.00    -0.020 A 
ATOM     10  C   LIG    1        4.942   2.258  -3.761  0.00  0.00    +0.200 A 
ATOM     11  C   LIG    1        5.659   1.338  -3.002  0.00  0.00    +0.020 A 
ATOM     12  C   LIG    1        6.319   0.300  -3.619  0.00  0.00    +0.100 A 
BRANCH   7  13
ATOM     13  C   LIG    1        6.991  -0.930  -5.676  0.00  0.00    +0.510 C 
ATOM     14  O   LIG    1        6.955  -1.036  -6.886  0.00  0.00    -0.510 OA
BRANCH  13  16
ATOM     15  C   LIG    1        8.357  -2.888  -5.663  0.00  0.00    +0.260 C 
ATOM     16  O   LIG    1        7.681  -1.825  -4.942  0.00  0.00    -0.360 OA
ENDBRANCH  13  16
ENDBRANCH   7  13
ENDBRANCH   1  10
BRANCH   4  17
ATOM     17  C   LIG    1        2.213   3.835  -0.133  0.00  0.00    +0.380 C 
BRANCH  17  18
ATOM     18  C   LIG    1        0.827   3.342  -0.460  0.00  0.00    -0.110 A 
ATOM     19  C   LIG    1        0.483   3.063  -1.767  0.00  0.00    +0.030 A 
ATOM     20  C   LIG    1       -0.789   2.610  -2.068  0.00  0.00    -0.020 A 
ATOM     21  C   LIG    1       -1.719   2.432  -1.060  0.00  0.00    +0.020 A 
ATOM     22  C   LIG    1       -1.383   2.714   0.249  0.00  0.00    -0.040 A 
ATOM     23  C   LIG    1       -0.106   3.169   0.555  0.00  0.00    +0.100 A 
BRANCH  23  24
ATOM     24  N   LIG    1        0.238   3.450   1.879  0.00  0.00    -0.470 N 
ATOM     25  C   LIG    1       -0.914   3.222   2.789  0.00  0.00    +0.180 C 
ATOM     26  C   LIG    1       -0.243   3.060   4.176  0.00  0.00    +0.040 C 
ATOM     27  C   LIG    1        1.050   2.281   3.846  0.00  0.00    +0.020 C 
ATOM     28  C   LIG    1        1.310   2.546   2.351  0.00  0.00    +0.190 C 
ENDBRANCH  23  24
ENDBRANCH  17  18
ENDBRANCH   4  17
TORSDOF 6
