REMARK  Name = ZINCpe00000c5bKA.0
REMARK                            x       y       z     vdW  Elec       q    Type
REMARK                         _______ _______ _______ _____ _____    ______ ____
ROOT
ATOM      1  C   LIG    1       -4.604   2.608  -0.071  0.00  0.00    -0.180 C 
ATOM      2  C   LIG    1       -4.692   2.476  -1.593  0.00  0.00    +0.050 C 
ATOM      3  C   LIG    1       -5.778   3.234  -0.826  0.00  0.00    +0.040 C 
ENDROOT
BRANCH   1   4
ATOM      4  C   LIG    1       -3.544   3.554   0.496  0.00  0.00    +0.320 C 
BRANCH   4   5
ATOM      5  N   LIG    1       -4.004   4.090   1.780  0.00  0.00    -0.690 N 
ATOM      6  H   LIG    1       -4.833   3.771   2.169  0.00  0.00    +0.410 HD
BRANCH   5  15
ATOM      7  C   LIG    1       -5.822   4.267   4.560  0.00  0.00    +0.180 C 
ATOM      8  C   LIG    1       -4.677   5.239   4.685  0.00  0.00    +0.090 A 
ATOM      9  N   LIG    1       -4.415   6.027   5.688  0.00  0.00    -0.320 NA
ATOM     10  O   LIG    1       -3.427   6.705   5.520  0.00  0.00    +0.090 OA
ATOM     11  C   LIG    1       -2.834   6.482   4.339  0.00  0.00    +0.290 A 
ATOM     12  N   LIG    1       -1.769   6.944   3.697  0.00  0.00    -0.540 NA
ATOM     13  C   LIG    1       -1.458   6.491   2.499  0.00  0.00    +0.610 A 
ATOM     14  N   LIG    1       -2.168   5.571   1.874  0.00  0.00    -0.580 NA
ATOM     15  C   LIG    1       -3.258   5.048   2.436  0.00  0.00    +0.520 A 
ATOM     16  C   LIG    1       -3.622   5.497   3.708  0.00  0.00    -0.340 A 
ENDBRANCH   5  15
ENDBRANCH   4   5
ENDBRANCH   1   4
BRANCH   1  17
ATOM     17  C   LIG    1       -4.887   1.358   0.764  0.00  0.00    +0.310 C 
BRANCH  17  18
ATOM     18  N   LIG    1       -3.694   0.508   0.791  0.00  0.00    -0.730 N 
ATOM     19  H   LIG    1       -2.871   0.814   0.377  0.00  0.00    +0.400 HD
ATOM     20  C   LIG    1       -3.738  -0.698   1.392  0.00  0.00    +0.510 C 
ATOM     21  O   LIG    1       -4.788  -1.118   1.830  0.00  0.00    -0.530 OA
BRANCH  20  22
ATOM     22  C   LIG    1       -2.484  -1.523   1.518  0.00  0.00    +0.050 C 
BRANCH  22  23
ATOM     23  C   LIG    1       -2.830  -2.888   2.117  0.00  0.00    +0.070 C 
BRANCH  23  24
ATOM     24  C   LIG    1       -1.556  -3.726   2.245  0.00  0.00    +0.060 C 
BRANCH  24  25
ATOM     25  C   LIG    1       -1.897  -5.070   2.835  0.00  0.00    +0.510 C 
ATOM     26  O   LIG    1       -3.045  -5.333   3.123  0.00  0.00    -0.540 OA
ATOM     27  N   LIG    1       -0.925  -5.981   3.041  0.00  0.00    -0.860 N 
ATOM     28  H   LIG    1       -1.145  -6.847   3.420  0.00  0.00    +0.400 HD
ATOM     29  H   LIG    1       -0.007  -5.772   2.810  0.00  0.00    +0.400 HD
ENDBRANCH  24  25
ENDBRANCH  23  24
ENDBRANCH  22  23
ENDBRANCH  20  22
ENDBRANCH  17  18
ENDBRANCH   1  17
TORSDOF 9
