REMARK  Name = ZINCpe000000WdMT.0
REMARK                            x       y       z     vdW  Elec       q    Type
REMARK                         _______ _______ _______ _____ _____    ______ ____
ROOT
ATOM      1  N   LIG    1        1.123   3.442   0.010  0.00  0.00    -0.740 N 
ATOM      2  H   LIG    1        0.276   3.915   0.020  0.00  0.00    +0.400 HD
ATOM      3  C   LIG    1        1.141   2.094   0.002  0.00  0.00    +0.710 C 
ATOM      4  N   LIG    1       -0.017   1.404   0.010  0.00  0.00    -0.650 N 
ATOM      5  H   LIG    1       -0.864   1.878   0.016  0.00  0.00    +0.410 HD
ATOM      6  O   LIG    1        2.202   1.500  -0.011  0.00  0.00    -0.570 OA
ENDROOT
BRANCH   1  13
ATOM      7  C   LIG    1        2.143   5.563   0.621  0.00  0.00    +0.180 C 
ATOM      8  C   LIG    1        2.478   6.711  -0.354  0.00  0.00    -0.320 C 
ATOM      9  S   LIG    1        2.270   5.922  -2.001  0.00  0.00    +2.380 S 
ATOM     10  C   LIG    1        2.898   4.285  -1.448  0.00  0.00    -0.280 C 
ATOM     11  O   LIG    1        3.180   6.498  -2.929  0.00  0.00    -0.930 OA
ATOM     12  O   LIG    1        0.889   5.825  -2.319  0.00  0.00    -0.920 OA
ATOM     13  C   LIG    1        2.381   4.191   0.002  0.00  0.00    +0.300 C 
BRANCH   7  15
ATOM     14  C   LIG    1        2.404   6.540   2.794  0.00  0.00    +0.210 C 
ATOM     15  O   LIG    1        2.961   5.695   1.785  0.00  0.00    -0.370 OA
ENDBRANCH   7  15
ENDBRANCH   1  13
BRANCH   4  16
ATOM     16  C   LIG    1        0.002  -0.004   0.002  0.00  0.00    +0.020 A 
ATOM     17  C   LIG    1       -1.084  -0.818   0.013  0.00  0.00    +0.200 A 
ATOM     18  N   LIG    1       -0.635  -2.100  -0.002  0.00  0.00    -0.370 N 
ATOM     19  N   LIG    1        0.765  -2.066  -0.015  0.00  0.00    -0.270 NA
ATOM     20  C   LIG    1        1.147  -0.814  -0.013  0.00  0.00    +0.260 A 
BRANCH  18  21
ATOM     21  C   LIG    1       -1.468  -3.305   0.000  0.00  0.00    +0.370 C 
BRANCH  21  22
ATOM     22  C   LIG    1       -1.095  -4.177  -1.171  0.00  0.00    -0.110 A 
ATOM     23  C   LIG    1       -1.741  -4.019  -2.383  0.00  0.00    +0.020 A 
ATOM     24  C   LIG    1       -1.396  -4.816  -3.459  0.00  0.00    +0.000 A 
ATOM     25  C   LIG    1       -0.410  -5.775  -3.321  0.00  0.00    +0.010 A 
ATOM     26  C   LIG    1        0.232  -5.936  -2.107  0.00  0.00    +0.000 A 
ATOM     27  C   LIG    1       -0.110  -5.137  -1.033  0.00  0.00    +0.040 A 
ENDBRANCH  21  22
ENDBRANCH  18  21
ENDBRANCH   4  16
TORSDOF 5
