REMARK  Name = ZINCqH0000007r0T.0
REMARK                            x       y       z     vdW  Elec       q    Type
REMARK                         _______ _______ _______ _____ _____    ______ ____
ROOT
ATOM      1  C   LIG    1       -1.230   3.339  -0.049  0.00  0.00    +0.550 C 
ATOM      2  N   LIG    1       -0.037   3.915   0.583  0.00  0.00    -0.750 N 
ATOM      3  H   LIG    1       -0.111   4.675   1.181  0.00  0.00    +0.420 HD
ATOM      4  C   LIG    1        1.201   3.347   0.304  0.00  0.00    +0.240 A 
ATOM      5  C   LIG    1        2.368   4.092   0.314  0.00  0.00    -0.050 A 
ATOM      6  C   LIG    1        3.572   3.480   0.019  0.00  0.00    +0.080 A 
ATOM      7  C   LIG    1        3.620   2.129  -0.285  0.00  0.00    -0.040 A 
ATOM      8  C   LIG    1        2.466   1.372  -0.296  0.00  0.00    +0.110 A 
ATOM      9  C   LIG    1        1.247   1.975   0.001  0.00  0.00    -0.200 A 
ATOM     10  C   LIG    1       -0.014   1.212   0.009  0.00  0.00    +0.580 C 
ATOM     11  O   LIG    1        0.002  -0.004   0.002  0.00  0.00    -0.520 OA
ATOM     12  N   LIG    1       -1.188   1.878   0.018  0.00  0.00    -0.620 N 
ENDROOT
BRANCH   1  16
ATOM     13  C   LIG    1       -1.382   4.533  -4.152  0.00  0.00    +0.110 A 
ATOM     14  C   LIG    1       -1.923   3.320  -3.761  0.00  0.00    -0.060 A 
ATOM     15  C   LIG    1       -1.867   2.934  -2.434  0.00  0.00    +0.060 A 
ATOM     16  C   LIG    1       -1.283   3.762  -1.494  0.00  0.00    -0.150 A 
ATOM     17  C   LIG    1       -0.742   4.975  -1.879  0.00  0.00    +0.060 A 
ATOM     18  C   LIG    1       -0.789   5.365  -3.207  0.00  0.00    +0.070 A 
BRANCH  13  20
ATOM     19  C   LIG    1       -2.055   4.008  -6.372  0.00  0.00    +0.240 C 
ATOM     20  O   LIG    1       -1.431   4.912  -5.458  0.00  0.00    -0.310 OA
ENDBRANCH  13  20
BRANCH  18  21
ATOM     21  O   LIG    1       -0.258   6.558  -3.586  0.00  0.00    -0.480 OA
ATOM     22  H   LIG    1        0.675   6.511  -3.839  0.00  0.00    +0.390 HD
ENDBRANCH  18  21
ENDBRANCH   1  16
BRANCH  12  23
ATOM     23  C   LIG    1       -2.442   1.126   0.102  0.00  0.00    +0.410 C 
BRANCH  23  24
ATOM     24  C   LIG    1       -2.820   0.939   1.548  0.00  0.00    -0.040 A 
ATOM     25  C   LIG    1       -3.580   1.776   2.277  0.00  0.00    -0.050 A 
ATOM     26  C   LIG    1       -3.679   1.218   3.572  0.00  0.00    -0.070 A 
ATOM     27  C   LIG    1       -2.973   0.073   3.557  0.00  0.00    +0.170 A 
ATOM     28  O   LIG    1       -2.460  -0.094   2.328  0.00  0.00    -0.160 OA
ENDBRANCH  23  24
ENDBRANCH  12  23
TORSDOF 5
