REMARK  Name = ZINCb70000001NV5.0
REMARK                            x       y       z     vdW  Elec       q    Type
REMARK                         _______ _______ _______ _____ _____    ______ ____
ROOT
ATOM      1  C   LIG    1       -0.729   1.579   1.267  0.00  0.00    +0.010 C 
ATOM      2  C   LIG    1       -0.638   3.106   1.342  0.00  0.00    +0.060 C 
ATOM      3  C   LIG    1       -1.285   3.586   2.643  0.00  0.00    +0.250 C 
ATOM      4  N   LIG    1       -0.586   2.994   3.791  0.00  0.00    -0.510 N 
ATOM      5  C   LIG    1       -0.731   1.534   3.763  0.00  0.00    +0.250 C 
ATOM      6  H   LIG    1        0.393   3.235   3.746  0.00  0.00    +0.430 HD
ATOM      7  H   LIG    1       -0.981   3.354   4.646  0.00  0.00    +0.430 HD
ATOM      8  C   LIG    1       -0.062   0.975   2.506  0.00  0.00    +0.050 C 
ENDROOT
BRANCH   1   9
ATOM      9  C   LIG    1       -0.013   1.086   0.008  0.00  0.00    +0.070 C 
BRANCH   9  13
ATOM     10  C   LIG    1       -0.997   1.758  -3.630  0.00  0.00    +0.280 C 
ATOM     11  N   LIG    1       -0.288   1.272  -2.443  0.00  0.00    -0.730 N 
ATOM     12  H   LIG    1        0.507   0.726  -2.543  0.00  0.00    +0.410 HD
ATOM     13  C   LIG    1       -0.742   1.585  -1.213  0.00  0.00    +0.510 C 
ATOM     14  O   LIG    1       -1.736   2.268  -1.088  0.00  0.00    -0.540 OA
ENDBRANCH   9  13
ENDBRANCH   1   9
TORSDOF 2
