REMARK  Name = ZINCrH000004olfP.0
REMARK                            x       y       z     vdW  Elec       q    Type
REMARK                         _______ _______ _______ _____ _____    ______ ____
ROOT
ATOM      1  C   LIG    1       -3.651   2.454  -0.180  0.00  0.00    +0.230 C 
ATOM      2  C   LIG    1       -2.808   1.801  -1.274  0.00  0.00    +0.100 C 
ATOM      3  C   LIG    1       -2.914   0.300  -1.209  0.00  0.00    -0.070 A 
ATOM      4  C   LIG    1       -2.576  -0.419  -2.348  0.00  0.00    +0.000 A 
ATOM      5  C   LIG    1       -2.642  -1.797  -2.353  0.00  0.00    +0.020 A 
ATOM      6  C   LIG    1       -3.046  -2.470  -1.215  0.00  0.00    +0.010 A 
ATOM      7  C   LIG    1       -3.386  -1.758  -0.083  0.00  0.00    +0.020 A 
ATOM      8  C   LIG    1       -3.325  -0.371  -0.079  0.00  0.00    -0.100 A 
ATOM      9  C   LIG    1       -3.730   0.346   1.180  0.00  0.00    +0.350 C 
ATOM     10  N   LIG    1       -3.363   1.763   1.087  0.00  0.00    -0.600 N 
ATOM     11  C   LIG    1       -2.780   2.405   2.119  0.00  0.00    +0.600 C 
ATOM     12  O   LIG    1       -2.564   3.600   2.048  0.00  0.00    -0.480 OA
ENDROOT
BRANCH  11  13
ATOM     13  C   LIG    1       -2.407   1.663   3.328  0.00  0.00    -0.080 A 
ATOM     14  C   LIG    1       -1.698   2.157   4.386  0.00  0.00    +0.050 A 
ATOM     15  C   LIG    1       -1.568   1.107   5.309  0.00  0.00    -0.060 A 
ATOM     16  C   LIG    1       -2.194   0.033   4.781  0.00  0.00    +0.200 A 
ATOM     17  O   LIG    1       -2.699   0.372   3.587  0.00  0.00    -0.160 OA
ENDBRANCH  11  13
BRANCH   1  20
ATOM     18  N   LIG    1       -4.260   4.846  -0.024  0.00  0.00    -0.720 N 
ATOM     19  H   LIG    1       -5.192   4.580  -0.076  0.00  0.00    +0.390 HD
ATOM     20  C   LIG    1       -3.290   3.912  -0.059  0.00  0.00    +0.540 C 
ATOM     21  O   LIG    1       -2.125   4.245   0.005  0.00  0.00    -0.510 OA
BRANCH  18  23
ATOM     22  C   LIG    1       -3.714   6.621   1.569  0.00  0.00    +0.030 C 
ATOM     23  C   LIG    1       -3.909   6.264   0.094  0.00  0.00    +0.320 C 
BRANCH  23  24
ATOM     24  C   LIG    1       -5.017   7.106  -0.485  0.00  0.00    -0.190 A 
ATOM     25  C   LIG    1       -4.844   8.206  -1.219  0.00  0.00    +0.010 A 
ATOM     26  C   LIG    1       -6.013   8.813  -1.645  0.00  0.00    +0.010 A 
ATOM     27  C   LIG    1       -7.135   8.211  -1.248  0.00  0.00    -0.040 A 
ATOM     28  S   LIG    1       -6.736   6.793  -0.288  0.00  0.00    +0.100 S 
ENDBRANCH  23  24
ENDBRANCH  18  23
ENDBRANCH   1  20
TORSDOF 4
