REMARK  Name = ZINCqH0000007C8j.0
REMARK                            x       y       z     vdW  Elec       q    Type
REMARK                         _______ _______ _______ _____ _____    ______ ____
ROOT
ATOM      1  C   LIG    1       -5.833  -1.404  -2.251  0.00  0.00    +0.210 A 
ATOM      2  N   LIG    1       -5.373  -0.407  -2.961  0.00  0.00    -0.370 NA
ATOM      3  O   LIG    1       -5.051   0.509  -2.234  0.00  0.00    +0.090 OA
ATOM      4  C   LIG    1       -5.270   0.179  -0.958  0.00  0.00    +0.180 A 
ATOM      5  N   LIG    1       -5.770  -1.032  -0.953  0.00  0.00    -0.460 NA
ENDROOT
BRANCH   4   6
ATOM      6  C   LIG    1       -5.000   1.041   0.248  0.00  0.00    +0.360 C 
ATOM      7  C   LIG    1       -6.038   2.180   0.323  0.00  0.00    +0.070 C 
ATOM      8  C   LIG    1       -5.290   3.374  -0.327  0.00  0.00    +0.040 C 
ATOM      9  C   LIG    1       -3.837   3.130   0.158  0.00  0.00    +0.260 C 
ATOM     10  N   LIG    1       -3.674   1.665   0.130  0.00  0.00    -0.610 N 
ATOM     11  C   LIG    1       -2.503   1.007   0.019  0.00  0.00    +0.580 C 
ATOM     12  O   LIG    1       -2.494  -0.203  -0.094  0.00  0.00    -0.520 OA
BRANCH  11  13
ATOM     13  C   LIG    1       -1.229   1.757   0.035  0.00  0.00    -0.130 A 
ATOM     14  C   LIG    1       -0.090   1.218  -0.566  0.00  0.00    +0.070 A 
ATOM     15  C   LIG    1        1.093   1.926  -0.553  0.00  0.00    +0.000 A 
ATOM     16  C   LIG    1        1.155   3.165   0.059  0.00  0.00    +0.040 A 
ATOM     17  C   LIG    1        0.032   3.703   0.662  0.00  0.00    +0.000 A 
ATOM     18  C   LIG    1       -1.158   3.006   0.655  0.00  0.00    +0.040 A 
ENDBRANCH  11  13
ENDBRANCH   4   6
BRANCH   1  23
ATOM     19  C   LIG    1       -6.805  -4.160  -4.623  0.00  0.00    +0.130 A 
ATOM     20  C   LIG    1       -7.265  -5.126  -3.739  0.00  0.00    -0.060 A 
ATOM     21  C   LIG    1       -7.260  -4.882  -2.378  0.00  0.00    +0.060 A 
ATOM     22  C   LIG    1       -6.791  -3.679  -1.891  0.00  0.00    +0.030 A 
ATOM     23  C   LIG    1       -6.332  -2.701  -2.772  0.00  0.00    +0.020 A 
ATOM     24  C   LIG    1       -6.338  -2.947  -4.143  0.00  0.00    +0.020 A 
BRANCH  19  26
ATOM     25  C   LIG    1       -7.307  -5.675  -6.385  0.00  0.00    +0.250 C 
ATOM     26  O   LIG    1       -6.812  -4.403  -5.960  0.00  0.00    -0.310 OA
ENDBRANCH  19  26
ENDBRANCH   1  23
TORSDOF 4
