REMARK  Name = ZINCtj0000003J8z.0
REMARK                            x       y       z     vdW  Elec       q    Type
REMARK                         _______ _______ _______ _____ _____    ______ ____
ROOT
ATOM      1  C   LIG    1       -0.134   5.428   0.033  0.00  0.00    +0.600 C 
ATOM      2  N   LIG    1        1.003   6.144  -0.075  0.00  0.00    -0.630 N 
ATOM      3  C   LIG    1        2.308   5.477  -0.203  0.00  0.00    +0.330 C 
ATOM      4  C   LIG    1        3.265   6.080   0.830  0.00  0.00    +0.270 C 
ATOM      5  N   LIG    1        3.311   7.537   0.662  0.00  0.00    -0.510 N 
ATOM      6  C   LIG    1        1.994   8.117   0.958  0.00  0.00    +0.170 C 
ATOM      7  H   LIG    1        3.566   7.757  -0.289  0.00  0.00    +0.430 HD
ATOM      8  H   LIG    1        3.997   7.926   1.292  0.00  0.00    +0.430 HD
ATOM      9  C   LIG    1        0.973   7.615  -0.075  0.00  0.00    +0.320 C 
ATOM     10  O   LIG    1       -0.083   4.216   0.120  0.00  0.00    -0.490 OA
ENDROOT
BRANCH   1  13
ATOM     11  N   LIG    1       -3.163   7.247  -1.116  0.00  0.00    -0.380 N 
ATOM     12  C   LIG    1       -1.969   6.624  -1.123  0.00  0.00    +0.350 A 
ATOM     13  C   LIG    1       -1.439   6.114   0.046  0.00  0.00    -0.250 A 
ATOM     14  C   LIG    1       -2.158   6.257   1.256  0.00  0.00    +0.140 A 
ATOM     15  C   LIG    1       -3.360   6.895   1.239  0.00  0.00    -0.060 A 
ATOM     16  C   LIG    1       -3.860   7.397   0.024  0.00  0.00    +0.510 A 
ATOM     17  O   LIG    1       -4.937   7.970   0.004  0.00  0.00    -0.520 OA
BRANCH  11  21
ATOM     18  C   LIG    1       -6.130   9.436  -4.375  0.00  0.00    +0.390 C 
ATOM     19  N   LIG    1       -5.000   8.724  -3.772  0.00  0.00    -0.360 N 
ATOM     20  C   LIG    1       -4.868   8.405  -2.466  0.00  0.00    +0.310 A 
ATOM     21  C   LIG    1       -3.686   7.752  -2.319  0.00  0.00    -0.080 A 
ATOM     22  C   LIG    1       -3.078   7.678  -3.582  0.00  0.00    +0.240 A 
ATOM     23  N   LIG    1       -3.867   8.256  -4.450  0.00  0.00    -0.270 NA
ENDBRANCH  11  21
ENDBRANCH   1  13
BRANCH   6  24
ATOM     24  C   LIG    1        2.080   9.643   0.888  0.00  0.00    +0.130 C 
BRANCH  24  25
ATOM     25  C   LIG    1        2.991  10.145   1.978  0.00  0.00    -0.140 A 
ATOM     26  C   LIG    1        2.471  10.468   3.218  0.00  0.00    +0.070 A 
ATOM     27  C   LIG    1        3.306  10.923   4.221  0.00  0.00    +0.010 A 
ATOM     28  C   LIG    1        4.662  11.066   3.980  0.00  0.00    +0.120 A 
ATOM     29  C   LIG    1        5.181  10.748   2.736  0.00  0.00    +0.010 A 
ATOM     30  F   LIG    1        5.479  11.517   4.958  0.00  0.00    -0.130 F 
ATOM     31  C   LIG    1        4.345  10.288   1.737  0.00  0.00    +0.020 A 
ENDBRANCH  24  25
ENDBRANCH   6  24
TORSDOF 4
