REMARK  Name = ZINCvU000000041m.0
REMARK                            x       y       z     vdW  Elec       q    Type
REMARK                         _______ _______ _______ _____ _____    ______ ____
ROOT
ATOM      1  C   LIG    1        2.284   4.249   0.579  0.00  0.00    +0.400 C 
ENDROOT
BRANCH   1   2
ATOM      2  N   LIG    1        1.154   3.498   0.027  0.00  0.00    -0.530 N 
ATOM      3  C   LIG    1        1.189   2.115   0.002  0.00  0.00    +0.220 A 
ATOM      4  C   LIG    1        2.397   1.428  -0.022  0.00  0.00    -0.050 A 
ATOM      5  C   LIG    1        2.401   0.049  -0.031  0.00  0.00    +0.080 A 
ATOM      6  C   LIG    1        1.212  -0.665  -0.018  0.00  0.00    -0.030 A 
ATOM      7  C   LIG    1        0.002  -0.004   0.002  0.00  0.00    +0.110 A 
ATOM      8  C   LIG    1       -0.017   1.388   0.010  0.00  0.00    -0.200 A 
ATOM      9  C   LIG    1       -1.285   2.148   0.020  0.00  0.00    +0.440 A 
ATOM     10  C   LIG    1       -1.203   3.534  -0.485  0.00  0.00    -0.200 A 
ATOM     11  C   LIG    1       -2.324   4.202  -0.972  0.00  0.00    +0.110 A 
ATOM     12  C   LIG    1       -2.194   5.491  -1.441  0.00  0.00    -0.030 A 
ATOM     13  C   LIG    1       -0.957   6.120  -1.429  0.00  0.00    +0.080 A 
ATOM     14  C   LIG    1        0.161   5.471  -0.949  0.00  0.00    -0.050 A 
ATOM     15  O   LIG    1       -2.329   1.664   0.420  0.00  0.00    -0.450 OA
ATOM     16  C   LIG    1        0.052   4.171  -0.469  0.00  0.00    +0.220 A 
ENDBRANCH   1   2
BRANCH   1  18
ATOM     17  O   LIG    1        3.058   4.168  -1.645  0.00  0.00    -0.470 OA
ATOM     18  C   LIG    1        3.274   4.545  -0.518  0.00  0.00    +0.430 C 
BRANCH  18  19
ATOM     19  O   LIG    1        4.396   5.229  -0.243  0.00  0.00    -0.350 OA
BRANCH  19  20
ATOM     20  C   LIG    1        5.304   5.478  -1.348  0.00  0.00    +0.320 C 
BRANCH  20  21
ATOM     21  C   LIG    1        6.498   6.252  -0.853  0.00  0.00    -0.140 A 
ATOM     22  C   LIG    1        6.587   6.602   0.463  0.00  0.00    +0.140 A 
ATOM     23  C   LIG    1        7.720   7.325   0.884  0.00  0.00    -0.100 A 
ATOM     24  C   LIG    1        7.880   7.720   2.222  0.00  0.00    +0.050 A 
ATOM     25  C   LIG    1        8.989   8.418   2.589  0.00  0.00    +0.020 A 
ATOM     26  C   LIG    1        9.970   8.746   1.656  0.00  0.00    +0.050 A 
ATOM     27  C   LIG    1        9.847   8.379   0.350  0.00  0.00    +0.050 A 
ATOM     28  C   LIG    1        8.716   7.658  -0.068  0.00  0.00    +0.140 A 
ATOM     29  N   LIG    1        8.569   7.284  -1.343  0.00  0.00    -0.460 NA
ATOM     30  C   LIG    1        7.517   6.606  -1.738  0.00  0.00    +0.220 A 
ATOM     31 CL   LIG    1        7.387   6.143  -3.406  0.00  0.00    -0.020 Cl
ENDBRANCH  20  21
ENDBRANCH  19  20
ENDBRANCH  18  19
ENDBRANCH   1  18
TORSDOF 5
