REMARK  Name = ZINCAx0000000d4K.0
REMARK                            x       y       z     vdW  Elec       q    Type
REMARK                         _______ _______ _______ _____ _____    ______ ____
ROOT
ATOM      1  N   LIG    1        5.933   3.228   0.348  0.00  0.00    -0.590 N 
ATOM      2  C   LIG    1        6.373   3.051  -0.913  0.00  0.00    +0.530 C 
ATOM      3  O   LIG    1        7.238   2.234  -1.145  0.00  0.00    -0.490 OA
ENDROOT
BRANCH   1   4
ATOM      4  C   LIG    1        6.571   2.510   1.454  0.00  0.00    +0.250 C 
ATOM      5  C   LIG    1        6.368   1.005   1.269  0.00  0.00    +0.040 C 
BRANCH   4   7
ATOM      6  C   LIG    1        8.273   4.315   1.753  0.00  0.00    +0.010 C 
ATOM      7  C   LIG    1        8.068   2.825   1.470  0.00  0.00    +0.020 C 
ENDBRANCH   4   7
ENDBRANCH   1   4
BRANCH   2   8
ATOM      8  C   LIG    1        5.789   3.868  -2.037  0.00  0.00    +0.260 C 
BRANCH   8   9
ATOM      9  O   LIG    1        6.337   3.414  -3.302  0.00  0.00    -0.320 OA
BRANCH   9  10
ATOM     10  C   LIG    1        5.916   4.043  -4.410  0.00  0.00    +0.470 C 
ATOM     11  O   LIG    1        5.116   4.945  -4.326  0.00  0.00    -0.480 OA
BRANCH  10  12
ATOM     12  C   LIG    1        6.442   3.626  -5.760  0.00  0.00    +0.320 C 
BRANCH  12  13
ATOM     13  O   LIG    1        5.849   4.439  -6.774  0.00  0.00    -0.270 OA
BRANCH  13  14
ATOM     14  C   LIG    1        6.218   4.191  -8.056  0.00  0.00    +0.340 A 
ATOM     15  N   LIG    1        7.077   3.246  -8.317  0.00  0.00    -0.310 NA
ATOM     16  N   LIG    1        7.494   2.946  -9.614  0.00  0.00    -0.510 N 
ATOM     17  H   LIG    1        8.136   2.232  -9.750  0.00  0.00    +0.440 HD
ATOM     18  C   LIG    1        7.028   3.621 -10.685  0.00  0.00    +0.530 A 
ATOM     19  C   LIG    1        6.056   4.701 -10.474  0.00  0.00    -0.110 A 
ATOM     20  C   LIG    1        5.532   5.440 -11.534  0.00  0.00    +0.090 A 
ATOM     21  C   LIG    1        4.623   6.443 -11.278  0.00  0.00    +0.040 A 
ATOM     22  C   LIG    1        4.224   6.724  -9.979  0.00  0.00    +0.050 A 
ATOM     23  C   LIG    1        4.728   6.006  -8.916  0.00  0.00    +0.070 A 
ATOM     24  O   LIG    1        7.407   3.339 -11.809  0.00  0.00    -0.520 OA
ATOM     25  C   LIG    1        5.646   4.982  -9.151  0.00  0.00    -0.050 A 
ENDBRANCH  13  14
ENDBRANCH  12  13
ENDBRANCH  10  12
ENDBRANCH   9  10
ENDBRANCH   8   9
ENDBRANCH   2   8
BRANCH   1  26
ATOM     26  C   LIG    1        4.816   4.139   0.613  0.00  0.00    +0.320 C 
BRANCH  26  27
ATOM     27  C   LIG    1        3.518   3.378   0.536  0.00  0.00    +0.490 C 
ATOM     28  N   LIG    1        2.349   4.016   0.746  0.00  0.00    -0.670 N 
ATOM     29  H   LIG    1        2.338   4.976   0.880  0.00  0.00    +0.410 HD
ATOM     30  O   LIG    1        3.524   2.192   0.283  0.00  0.00    -0.500 OA
BRANCH  28  31
ATOM     31  C   LIG    1        1.152   3.292   0.772  0.00  0.00    +0.140 A 
ATOM     32  C   LIG    1        0.990   2.186  -0.052  0.00  0.00    +0.020 A 
ATOM     33  C   LIG    1       -0.193   1.473  -0.024  0.00  0.00    +0.030 A 
ATOM     34  C   LIG    1       -1.217   1.864   0.819  0.00  0.00    -0.010 A 
ATOM     35  C   LIG    1       -1.057   2.962   1.644  0.00  0.00    -0.070 A 
ATOM     36  C   LIG    1       -2.174   3.380   2.566  0.00  0.00    +0.090 C 
ATOM     37  C   LIG    1        0.123   3.678   1.621  0.00  0.00    -0.110 A 
ATOM     38  C   LIG    1        0.295   4.878   2.517  0.00  0.00    +0.090 C 
ENDBRANCH  28  31
ENDBRANCH  26  27
ENDBRANCH   1  26
TORSDOF 11
