REMARK  Name = ZINCrg000000tzsF.0
REMARK                            x       y       z     vdW  Elec       q    Type
REMARK                         _______ _______ _______ _____ _____    ______ ____
ROOT
ATOM      1  O   LIG    1        1.054   2.603   2.371  0.00  0.00    -0.500 OA
ATOM      2  C   LIG    1        0.149   1.796   2.402  0.00  0.00    +0.510 C 
ATOM      3  N   LIG    1       -0.036   1.033   3.498  0.00  0.00    -0.720 N 
ATOM      4  H   LIG    1       -0.760   0.388   3.523  0.00  0.00    +0.400 HD
ENDROOT
BRANCH   2   5
ATOM      5  C   LIG    1       -0.770   1.648   1.217  0.00  0.00    +0.230 C 
ATOM      6  C   LIG    1       -0.095   0.791   0.116  0.00  0.00    +0.060 C 
ATOM      7  C   LIG    1       -0.842   1.272  -1.156  0.00  0.00    +0.040 C 
ATOM      8  C   LIG    1       -1.074   2.772  -0.874  0.00  0.00    +0.270 C 
ATOM      9  N   LIG    1       -1.006   2.958   0.583  0.00  0.00    -0.990 NA
BRANCH   9  10
ATOM     10  S   LIG    1       -1.167   4.401   1.379  0.00  0.00    +2.710 S 
ATOM     11  O   LIG    1       -0.664   5.401   0.504  0.00  0.00    -0.950 OA
ATOM     12  O   LIG    1       -0.664   4.192   2.692  0.00  0.00    -0.930 OA
BRANCH  10  13
ATOM     13  C   LIG    1       -2.893   4.712   1.552  0.00  0.00    -0.680 A 
ATOM     14  C   LIG    1       -3.569   5.418   0.574  0.00  0.00    +0.120 A 
ATOM     15  C   LIG    1       -4.924   5.658   0.707  0.00  0.00    +0.000 A 
ATOM     16  C   LIG    1       -5.601   5.200   1.821  0.00  0.00    +0.070 A 
ATOM     17  C   LIG    1       -4.924   4.499   2.802  0.00  0.00    -0.010 A 
ATOM     18  C   LIG    1       -3.570   4.255   2.667  0.00  0.00    +0.120 A 
ENDBRANCH  10  13
ENDBRANCH   9  10
ENDBRANCH   2   5
BRANCH   3  19
ATOM     19  C   LIG    1        0.857   1.177   4.650  0.00  0.00    +0.410 C 
BRANCH  19  20
ATOM     20  C   LIG    1        0.438   0.217   5.733  0.00  0.00    +0.150 A 
ATOM     21  N   LIG    1        0.861  -1.012   5.889  0.00  0.00    -0.270 NA
ATOM     22  N   LIG    1        0.293  -1.540   6.920  0.00  0.00    -0.290 NA
ATOM     23  C   LIG    1       -0.510  -0.676   7.462  0.00  0.00    +0.190 A 
ATOM     24  C   LIG    1       -1.382  -0.841   8.681  0.00  0.00    +0.160 C 
ATOM     25  C   LIG    1       -1.825   0.554   9.143  0.00  0.00    +0.030 C 
ATOM     26  C   LIG    1       -2.358   1.340   7.942  0.00  0.00    +0.040 C 
ATOM     27  C   LIG    1       -1.200   1.681   6.997  0.00  0.00    +0.290 C 
ATOM     28  N   LIG    1       -0.438   0.463   6.726  0.00  0.00    -0.460 N 
ENDBRANCH  19  20
ENDBRANCH   3  19
TORSDOF 5
