REMARK  Name = ZINCrD000000fCst.0
REMARK                            x       y       z     vdW  Elec       q    Type
REMARK                         _______ _______ _______ _____ _____    ______ ____
ROOT
ATOM      1  N   LIG    1       -2.191   5.287  -1.357  0.00  0.00    -0.730 N 
ATOM      2  H   LIG    1       -3.097   5.467  -1.061  0.00  0.00    +0.410 HD
ENDROOT
BRANCH   1  10
ATOM      3  C   LIG    1        1.731  10.046  -6.403  0.00  0.00    +0.110 C 
ATOM      4  C   LIG    1        1.331   8.876  -5.542  0.00  0.00    +0.520 C 
ATOM      5  N   LIG    1        0.115   8.852  -4.960  0.00  0.00    -0.550 N 
ATOM      6  C   LIG    1       -0.939   9.847  -5.174  0.00  0.00    +0.260 C 
ATOM      7  C   LIG    1       -2.114   9.385  -4.298  0.00  0.00    +0.090 C 
ATOM      8  C   LIG    1       -1.620   8.121  -3.632  0.00  0.00    -0.080 A 
ATOM      9  C   LIG    1       -2.239   7.268  -2.738  0.00  0.00    -0.020 A 
ATOM     10  C   LIG    1       -1.565   6.152  -2.261  0.00  0.00    +0.200 A 
ATOM     11  C   LIG    1       -0.266   5.901  -2.681  0.00  0.00    -0.050 A 
ATOM     12  C   LIG    1        0.348   6.750  -3.577  0.00  0.00    +0.060 A 
ATOM     13  C   LIG    1       -0.325   7.873  -4.060  0.00  0.00    +0.080 A 
ATOM     14  O   LIG    1        2.102   7.955  -5.373  0.00  0.00    -0.530 OA
ENDBRANCH   1  10
BRANCH   1  15
ATOM     15  C   LIG    1       -1.477   4.110  -0.855  0.00  0.00    +0.240 C 
ATOM     16  C   LIG    1       -0.618   4.508   0.346  0.00  0.00    +0.050 C 
BRANCH  15  17
ATOM     17  C   LIG    1       -2.473   3.060  -0.434  0.00  0.00    +0.520 C 
ATOM     18  N   LIG    1       -2.045   1.844  -0.042  0.00  0.00    -0.550 N 
ATOM     19  C   LIG    1       -2.876   0.774   0.302  0.00  0.00    +0.140 A 
ATOM     20  C   LIG    1       -4.270   0.706   0.319  0.00  0.00    +0.010 A 
ATOM     21  C   LIG    1       -4.905  -0.460   0.689  0.00  0.00    +0.040 A 
ATOM     22  C   LIG    1       -4.166  -1.572   1.048  0.00  0.00    -0.010 A 
ATOM     23  C   LIG    1       -2.784  -1.513   1.034  0.00  0.00    +0.050 A 
ATOM     24  C   LIG    1       -2.144  -0.346   0.663  0.00  0.00    -0.140 A 
ATOM     25  C   LIG    1       -0.672  -0.012   0.562  0.00  0.00    +0.110 C 
ATOM     26  C   LIG    1       -0.639   1.452   0.094  0.00  0.00    +0.220 C 
ATOM     27  C   LIG    1        0.071   1.561  -1.257  0.00  0.00    +0.040 C 
ATOM     28  O   LIG    1       -3.660   3.310  -0.448  0.00  0.00    -0.510 OA
ENDBRANCH  15  17
ENDBRANCH   1  15
TORSDOF 3
