REMARK  Name = ZINCqH0000002fq4.0
REMARK                            x       y       z     vdW  Elec       q    Type
REMARK                         _______ _______ _______ _____ _____    ______ ____
ROOT
ATOM      1  C   LIG    1       -2.002   7.667  -0.111  0.00  0.00    +0.250 A 
ATOM      2  N   LIG    1       -2.234   6.487  -0.663  0.00  0.00    -0.440 NA
ATOM      3  C   LIG    1       -2.314   5.622   0.359  0.00  0.00    +0.200 A 
ATOM      4  N   LIG    1       -2.138   6.293   1.459  0.00  0.00    -0.360 NA
ATOM      5  O   LIG    1       -1.952   7.467   1.216  0.00  0.00    +0.080 OA
ENDROOT
BRANCH   1  11
ATOM      6  N   LIG    1       -1.593  10.165  -0.239  0.00  0.00    -0.340 N 
ATOM      7  N   LIG    1       -1.499  11.112  -1.267  0.00  0.00    -0.250 NA
ATOM      8  C   LIG    1       -1.672  10.506  -2.415  0.00  0.00    +0.070 A 
ATOM      9  C   LIG    1       -1.878   9.149  -2.179  0.00  0.00    -0.020 A 
ATOM     10  C   LIG    1       -1.646  11.167  -3.769  0.00  0.00    +0.170 C 
ATOM     11  C   LIG    1       -1.832   8.949  -0.814  0.00  0.00    +0.130 A 
BRANCH   6  12
ATOM     12  C   LIG    1       -1.459  10.431   1.195  0.00  0.00    +0.260 C 
BRANCH  12  14
ATOM     13  C   LIG    1        0.111  11.179   2.988  0.00  0.00    +0.040 C 
ATOM     14  C   LIG    1       -0.075  11.017   1.478  0.00  0.00    +0.020 C 
ENDBRANCH  12  14
BRANCH  12  15
ATOM     15  C   LIG    1       -2.534  11.429   1.631  0.00  0.00    +0.040 C 
ATOM     16  C   LIG    1       -3.917  10.794   1.464  0.00  0.00    +0.000 C 
ENDBRANCH  12  15
ENDBRANCH   6  12
ENDBRANCH   1  11
BRANCH   3  17
ATOM     17  C   LIG    1       -2.569   4.140   0.252  0.00  0.00    +0.220 C 
BRANCH  17  18
ATOM     18  C   LIG    1       -1.255   3.412   0.128  0.00  0.00    +0.520 C 
ATOM     19  N   LIG    1       -1.237   2.069   0.019  0.00  0.00    -0.670 N 
ATOM     20  H   LIG    1       -2.070   1.577  -0.057  0.00  0.00    +0.410 HD
ATOM     21  O   LIG    1       -0.215   4.035   0.127  0.00  0.00    -0.510 OA
BRANCH  19  22
ATOM     22  C   LIG    1       -0.017   1.384   0.015  0.00  0.00    +0.140 A 
ATOM     23  C   LIG    1        0.126   0.222  -0.732  0.00  0.00    -0.010 A 
ATOM     24  C   LIG    1        1.330  -0.455  -0.728  0.00  0.00    +0.030 A 
ATOM     25  C   LIG    1        2.392   0.023   0.018  0.00  0.00    -0.010 A 
ATOM     26  C   LIG    1        2.252   1.180   0.762  0.00  0.00    +0.030 A 
ATOM     27  C   LIG    1        1.051   1.861   0.763  0.00  0.00    +0.010 A 
ENDBRANCH  19  22
ENDBRANCH  17  18
ENDBRANCH   3  17
TORSDOF 7
