REMARK  Name = ZINCpk000004AOOY.0
REMARK                            x       y       z     vdW  Elec       q    Type
REMARK                         _______ _______ _______ _____ _____    ______ ____
ROOT
ATOM      1  C   LIG    1       -0.740   7.400  -1.546  0.00  0.00    +0.530 C 
ATOM      2  N   LIG    1       -0.985   6.146  -1.976  0.00  0.00    -0.610 N 
ATOM      3  C   LIG    1        0.093   5.329  -2.551  0.00  0.00    +0.270 C 
ATOM      4  C   LIG    1       -0.341   4.855  -3.944  0.00  0.00    +0.290 C 
ATOM      5  N   LIG    1       -1.690   4.281  -3.846  0.00  0.00    -0.620 N 
ATOM      6  C   LIG    1       -2.769   5.101  -3.276  0.00  0.00    +0.270 C 
ATOM      7  C   LIG    1       -1.935   3.027  -4.275  0.00  0.00    +0.600 C 
ATOM      8  O   LIG    1       -1.013   2.253  -4.449  0.00  0.00    -0.520 OA
ATOM      9  C   LIG    1       -2.334   5.572  -1.878  0.00  0.00    +0.290 C 
ATOM     10  O   LIG    1       -1.606   8.024  -0.971  0.00  0.00    -0.530 OA
ENDROOT
BRANCH   1  16
ATOM     11  C   LIG    1        3.952   7.863  -0.654  0.00  0.00    +0.550 C 
ATOM     12  N   LIG    1        2.771   8.505  -0.752  0.00  0.00    -0.610 N 
ATOM     13  C   LIG    1        2.722   9.943  -1.049  0.00  0.00    +0.260 C 
ATOM     14  C   LIG    1        1.812  10.166  -2.261  0.00  0.00    +0.020 C 
ATOM     15  C   LIG    1        0.445   9.533  -1.990  0.00  0.00    +0.050 C 
ATOM     16  C   LIG    1        0.610   8.027  -1.781  0.00  0.00    -0.020 C 
ATOM     17  C   LIG    1        1.507   7.779  -0.563  0.00  0.00    +0.300 C 
ATOM     18  O   LIG    1        3.978   6.657  -0.505  0.00  0.00    -0.540 OA
BRANCH  11  20
ATOM     19  C   LIG    1        6.374   7.980  -0.744  0.00  0.00    +0.140 C 
ATOM     20  C   LIG    1        5.210   8.623  -0.729  0.00  0.00    -0.090 C 
ENDBRANCH  11  20
ENDBRANCH   1  16
BRANCH   7  21
ATOM     21  C   LIG    1       -3.313   2.597  -4.534  0.00  0.00    -0.280 A 
ATOM     22  C   LIG    1       -3.710   1.311  -4.770  0.00  0.00    +0.110 A 
ATOM     23  C   LIG    1       -5.064   1.190  -4.976  0.00  0.00    +0.000 A 
ATOM     24  C   LIG    1       -5.753   2.335  -4.910  0.00  0.00    -0.070 A 
ATOM     25  S   LIG    1       -4.719   3.651  -4.581  0.00  0.00    +0.220 S 
ENDBRANCH   7  21
TORSDOF 3
