REMARK  Name = ZINCpe000027pGWJ.0
REMARK                            x       y       z     vdW  Elec       q    Type
REMARK                         _______ _______ _______ _____ _____    ______ ____
ROOT
ATOM      1  N   LIG    1       -0.016   1.344   0.009  0.00  0.00    -0.730 N 
ATOM      2  H   LIG    1        0.817   1.840   0.004  0.00  0.00    +0.400 HD
ATOM      3  C   LIG    1        0.002  -0.004   0.002  0.00  0.00    +0.530 C 
ATOM      4  O   LIG    1       -1.040  -0.625   0.009  0.00  0.00    -0.500 OA
ENDROOT
BRANCH   3   5
ATOM      5  C   LIG    1        1.317  -0.740  -0.015  0.00  0.00    +0.210 C 
ATOM      6  N   LIG    1        1.120  -2.149   0.397  0.00  0.00    -0.630 NA
ATOM      7  H   LIG    1        1.286  -2.264   1.386  0.00  0.00    +0.360 HD
ATOM      8  C   LIG    1        2.122  -2.896  -0.401  0.00  0.00    +0.290 C 
ATOM      9  C   LIG    1        2.344  -2.077  -1.650  0.00  0.00    +0.180 A 
ATOM     10  N   LIG    1        2.874  -2.363  -2.826  0.00  0.00    -0.500 NA
ATOM     11  C   LIG    1        2.950  -1.444  -3.769  0.00  0.00    +0.520 A 
ATOM     12  N   LIG    1        2.506  -0.217  -3.584  0.00  0.00    -0.510 NA
ATOM     13  C   LIG    1        1.962   0.141  -2.430  0.00  0.00    +0.340 A 
ATOM     14  C   LIG    1        1.865  -0.796  -1.419  0.00  0.00    -0.210 A 
ENDBRANCH   3   5
BRANCH   1  15
ATOM     15  C   LIG    1       -1.295   2.059   0.019  0.00  0.00    +0.400 C 
BRANCH  15  22
ATOM     16  C   LIG    1       -0.281   7.932   0.809  0.00  0.00    +0.120 A 
ATOM     17  C   LIG    1       -0.282   7.972  -0.583  0.00  0.00    -0.030 A 
ATOM     18  C   LIG    1       -0.484   6.821  -1.313  0.00  0.00    +0.060 A 
ATOM     19  C   LIG    1       -0.688   5.614  -0.660  0.00  0.00    +0.020 A 
ATOM     20  C   LIG    1       -0.688   5.566   0.745  0.00  0.00    +0.080 A 
ATOM     21  N   LIG    1       -0.914   4.274   1.096  0.00  0.00    -0.470 NA
ATOM     22  C   LIG    1       -1.040   3.544   0.026  0.00  0.00    +0.260 A 
ATOM     23  N   LIG    1       -0.913   4.318  -1.085  0.00  0.00    -0.480 N 
ATOM     24  C   LIG    1       -0.999   3.862  -2.475  0.00  0.00    +0.330 C 
ATOM     25  C   LIG    1       -0.482   6.739   1.474  0.00  0.00    +0.040 A 
BRANCH  16  27
ATOM     26  C   LIG    1        0.122  10.276   0.768  0.00  0.00    +0.250 C 
ATOM     27  O   LIG    1       -0.080   9.075   1.517  0.00  0.00    -0.310 OA
ENDBRANCH  16  27
ENDBRANCH  15  22
ENDBRANCH   1  15
TORSDOF 4
