REMARK  Name = ZINCpk000000nWFb.0
REMARK                            x       y       z     vdW  Elec       q    Type
REMARK                         _______ _______ _______ _____ _____    ______ ____
ROOT
ATOM      1  C   LIG    1       -2.799   2.762   2.255  0.00  0.00    +0.060 C 
ATOM      2  C   LIG    1       -2.905   2.826   0.730  0.00  0.00    -0.090 C 
ATOM      3  C   LIG    1       -1.617   3.277   0.028  0.00  0.00    +0.270 C 
ATOM      4  N   LIG    1       -1.191   1.870   0.018  0.00  0.00    -0.660 N 
ATOM      5  C   LIG    1       -0.014   1.212   0.009  0.00  0.00    +0.730 C 
ATOM      6  N   LIG    1        1.143   1.901   0.001  0.00  0.00    -0.740 N 
ATOM      7  H   LIG    1        1.130   2.871   0.007  0.00  0.00    +0.400 HD
ATOM      8  O   LIG    1        0.002  -0.004   0.002  0.00  0.00    -0.570 OA
ATOM      9  C   LIG    1       -4.168   3.538   0.241  0.00  0.00    +0.050 C 
ATOM     10  C   LIG    1       -2.613   1.496   0.016  0.00  0.00    +0.310 C 
ENDROOT
BRANCH  10  11
ATOM     11  C   LIG    1       -2.916   0.282   0.857  0.00  0.00    -0.150 A 
ATOM     12  C   LIG    1       -4.078  -0.445   0.647  0.00  0.00    +0.070 A 
ATOM     13  C   LIG    1       -4.312  -1.557   1.441  0.00  0.00    -0.040 A 
ATOM     14  C   LIG    1       -3.392  -1.895   2.415  0.00  0.00    +0.250 A 
ATOM     15  N   LIG    1       -2.300  -1.177   2.590  0.00  0.00    -0.490 NA
ATOM     16  C   LIG    1       -2.042  -0.117   1.850  0.00  0.00    +0.300 A 
ENDBRANCH  10  11
BRANCH   6  17
ATOM     17  C   LIG    1        2.422   1.186  -0.015  0.00  0.00    +0.290 C 
BRANCH  17  18
ATOM     18  C   LIG    1        3.571   2.196  -0.020  0.00  0.00    -0.010 C 
ATOM     19  C   LIG    1        3.693   2.892  -1.401  0.00  0.00    +0.040 C 
ATOM     20  C   LIG    1        5.184   3.289  -1.458  0.00  0.00    +0.270 C 
ATOM     21  N   LIG    1        5.904   2.413  -0.523  0.00  0.00    -1.010 NA
ATOM     22  C   LIG    1        4.940   1.480   0.089  0.00  0.00    +0.280 C 
BRANCH  21  23
ATOM     23  S   LIG    1        7.529   2.466  -0.208  0.00  0.00    +2.630 S 
ATOM     24  O   LIG    1        7.649   1.938   1.105  0.00  0.00    -0.950 OA
ATOM     25  O   LIG    1        7.898   3.808  -0.495  0.00  0.00    -0.950 OA
ATOM     26  C   LIG    1        8.262   1.331  -1.419  0.00  0.00    -0.280 C 
ENDBRANCH  21  23
ENDBRANCH  17  18
ENDBRANCH   6  17
TORSDOF 4
