REMARK  Name = ZINCpe000000ZtBr.0
REMARK                            x       y       z     vdW  Elec       q    Type
REMARK                         _______ _______ _______ _____ _____    ______ ____
ROOT
ATOM      1  C   LIG    1       -5.077   3.556  -4.075  0.00  0.00    +0.270 C 
ENDROOT
BRANCH   1   3
ATOM      2  O   LIG    1       -3.223   4.937  -4.550  0.00  0.00    -0.500 OA
ATOM      3  C   LIG    1       -3.643   3.990  -3.919  0.00  0.00    +0.510 C 
ATOM      4  N   LIG    1       -2.826   3.327  -3.077  0.00  0.00    -0.600 N 
ATOM      5  C   LIG    1       -1.425   3.738  -2.914  0.00  0.00    +0.320 C 
ATOM      6  C   LIG    1       -1.147   3.963  -1.424  0.00  0.00    +0.040 C 
ATOM      7  C   LIG    1       -1.533   2.707  -0.641  0.00  0.00    +0.260 C 
ATOM      8  O   LIG    1       -0.767   1.591  -1.113  0.00  0.00    -0.370 OA
ATOM      9  C   LIG    1       -0.013   1.086   0.008  0.00  0.00    +0.200 C 
ATOM     10  C   LIG    1       -0.799   1.616   1.233  0.00  0.00    +0.200 C 
ATOM     11  C   LIG    1       -3.025   2.418  -0.821  0.00  0.00    +0.030 C 
ATOM     12  O   LIG    1       -1.251   2.908   0.753  0.00  0.00    -0.370 OA
ATOM     13  C   LIG    1       -3.319   2.178  -2.305  0.00  0.00    +0.270 C 
ENDBRANCH   1   3
BRANCH   1  14
ATOM     14  N   LIG    1       -5.758   3.642  -2.781  0.00  0.00    -0.300 N 
ATOM     15  C   LIG    1       -5.539   4.561  -1.822  0.00  0.00    +0.390 A 
ATOM     16  N   LIG    1       -6.355   4.278  -0.836  0.00  0.00    -0.290 NA
ATOM     17  N   LIG    1       -7.034   3.234  -1.169  0.00  0.00    -0.070 NA
ATOM     18  N   LIG    1       -6.675   2.848  -2.343  0.00  0.00    -0.070 NA
ENDBRANCH   1  14
BRANCH   1  19
ATOM     19  C   LIG    1       -5.779   4.470  -5.082  0.00  0.00    +0.130 C 
BRANCH  19  20
ATOM     20  C   LIG    1       -7.176   3.962  -5.331  0.00  0.00    -0.100 A 
ATOM     21  C   LIG    1       -7.411   3.056  -6.348  0.00  0.00    +0.010 A 
ATOM     22  C   LIG    1       -8.692   2.587  -6.574  0.00  0.00    +0.000 A 
ATOM     23  C   LIG    1       -9.739   3.032  -5.789  0.00  0.00    +0.010 A 
ATOM     24  C   LIG    1       -9.505   3.942  -4.776  0.00  0.00    +0.010 A 
ATOM     25  C   LIG    1       -8.224   4.407  -4.547  0.00  0.00    +0.010 A 
ENDBRANCH  19  20
ENDBRANCH   1  19
TORSDOF 4
