REMARK  Name = ZINCkj000005fNdh.0
REMARK                            x       y       z     vdW  Elec       q    Type
REMARK                         _______ _______ _______ _____ _____    ______ ____
ROOT
ATOM      1  C   LIG    1       -0.720   2.985   1.224  0.00  0.00    +0.500 C 
ATOM      2  N   LIG    1       -0.920   3.650   2.380  0.00  0.00    -0.580 N 
ATOM      3  C   LIG    1       -1.121   2.920   3.639  0.00  0.00    +0.260 C 
ATOM      4  C   LIG    1       -2.419   3.407   4.290  0.00  0.00    +0.020 C 
ATOM      5  C   LIG    1       -2.366   4.929   4.447  0.00  0.00    +0.040 C 
ATOM      6  C   LIG    1       -2.243   5.582   3.069  0.00  0.00    -0.020 C 
ATOM      7  C   LIG    1       -0.937   5.119   2.405  0.00  0.00    +0.300 C 
ATOM      8  O   LIG    1       -0.555   3.600   0.192  0.00  0.00    -0.530 OA
ENDROOT
BRANCH   1   9
ATOM      9  C   LIG    1       -0.699   1.479   1.216  0.00  0.00    +0.180 C 
BRANCH   9  10
ATOM     10  N   LIG    1       -0.012   1.005   0.008  0.00  0.00    -0.620 N 
ATOM     11  H   LIG    1       -0.500   1.339  -0.810  0.00  0.00    +0.440 HD
ATOM     12  H   LIG    1        0.935   1.354   0.000  0.00  0.00    +0.440 HD
ATOM     13  H   LIG    1        0.002  -0.004   0.002  0.00  0.00    +0.440 HD
ENDBRANCH   9  10
BRANCH   9  14
ATOM     14  C   LIG    1       -2.135   0.949   1.227  0.00  0.00    +0.070 C 
BRANCH  14  16
ATOM     15  C   LIG    1       -3.550  -1.106   1.355  0.00  0.00    +0.040 C 
ATOM     16  C   LIG    1       -2.115  -0.576   1.344  0.00  0.00    +0.010 C 
ENDBRANCH  14  16
ENDBRANCH   9  14
ENDBRANCH   1   9
BRANCH   6  17
ATOM     17  C   LIG    1       -2.223   7.104   3.225  0.00  0.00    +0.150 C 
BRANCH  17  18
ATOM     18  C   LIG    1       -3.548   7.570   3.769  0.00  0.00    +0.200 A 
ATOM     19  N   LIG    1       -3.849   7.700   5.033  0.00  0.00    -0.480 NA
ATOM     20  C   LIG    1       -5.112   8.136   5.145  0.00  0.00    +0.140 A 
ATOM     21  C   LIG    1       -5.614   8.282   3.904  0.00  0.00    +0.130 A 
ATOM     22  N   LIG    1       -4.620   7.929   3.030  0.00  0.00    -0.460 N 
ATOM     23  C   LIG    1       -4.706   7.935   1.568  0.00  0.00    +0.330 C 
ENDBRANCH  17  18
ENDBRANCH   6  17
TORSDOF 6
