REMARK  Name = ZINCpe00000MJKUj.0
REMARK                            x       y       z     vdW  Elec       q    Type
REMARK                         _______ _______ _______ _____ _____    ______ ____
ROOT
ATOM      1  C   LIG    1        3.634   1.777  -0.011  0.00  0.00    -0.100 C 
ATOM      2  C   LIG    1        2.476   1.083   0.006  0.00  0.00    +0.140 C 
ENDROOT
BRANCH   1   9
ATOM      3  C   LIG    1        7.353   1.057  -0.272  0.00  0.00    +0.200 C 
ATOM      4  C   LIG    1        8.329   1.637   0.753  0.00  0.00    +0.220 C 
ATOM      5  O   LIG    1        8.360   3.061   0.622  0.00  0.00    -0.380 OA
ATOM      6  C   LIG    1        7.110   3.701   0.888  0.00  0.00    +0.210 C 
ATOM      7  C   LIG    1        6.072   3.226  -0.135  0.00  0.00    +0.250 C 
ATOM      8  N   LIG    1        6.064   1.754  -0.140  0.00  0.00    -0.610 N 
ATOM      9  C   LIG    1        4.912   1.066  -0.023  0.00  0.00    +0.550 C 
ATOM     10  O   LIG    1        4.935  -0.147   0.073  0.00  0.00    -0.530 OA
BRANCH   3  11
ATOM     11  C   LIG    1        7.160  -0.438  -0.007  0.00  0.00    +0.070 C 
BRANCH  11  12
ATOM     12  C   LIG    1        8.504  -1.157  -0.135  0.00  0.00    +0.150 C 
BRANCH  12  14
ATOM     13  C   LIG    1        9.549  -3.296   0.138  0.00  0.00    +0.200 C 
ATOM     14  O   LIG    1        8.346  -2.531   0.224  0.00  0.00    -0.390 OA
ENDBRANCH  12  14
ENDBRANCH  11  12
ENDBRANCH   3  11
ENDBRANCH   1   9
BRANCH   2  15
ATOM     15  C   LIG    1        1.191   1.797   0.018  0.00  0.00    -0.120 A 
ATOM     16  C   LIG    1       -0.011   1.080   0.035  0.00  0.00    +0.080 A 
ATOM     17  C   LIG    1       -1.212   1.753   0.040  0.00  0.00    -0.080 A 
ATOM     18  C   LIG    1       -1.231   3.143   0.040  0.00  0.00    +0.140 A 
ATOM     19  C   LIG    1       -0.041   3.860   0.022  0.00  0.00    -0.010 A 
ATOM     20  C   LIG    1        1.165   3.196   0.011  0.00  0.00    +0.080 A 
BRANCH  18  21
ATOM     21  O   LIG    1       -2.418   3.803   0.051  0.00  0.00    -0.290 OA
BRANCH  21  22
ATOM     22  C   LIG    1       -3.603   3.005   0.068  0.00  0.00    +0.240 C 
BRANCH  22  23
ATOM     23  C   LIG    1       -4.813   3.904   0.079  0.00  0.00    +0.520 C 
ATOM     24  O   LIG    1       -4.674   5.108   0.071  0.00  0.00    -0.520 OA
ATOM     25  N   LIG    1       -6.050   3.368   0.096  0.00  0.00    -0.850 N 
ATOM     26  H   LIG    1       -6.829   3.947   0.102  0.00  0.00    +0.410 HD
ATOM     27  H   LIG    1       -6.161   2.405   0.101  0.00  0.00    +0.400 HD
ENDBRANCH  22  23
ENDBRANCH  21  22
ENDBRANCH  18  21
ENDBRANCH   2  15
TORSDOF 8
