REMARK  Name = ZINCrH000004tPrO.0
REMARK                            x       y       z     vdW  Elec       q    Type
REMARK                         _______ _______ _______ _____ _____    ______ ____
ROOT
ATOM      1  O   LIG    1        2.362   1.115   0.082  0.00  0.00    -0.280 OA
ENDROOT
BRANCH   1   2
ATOM      2  C   LIG    1        1.180   1.781   0.073  0.00  0.00    +0.160 A 
ATOM      3  C   LIG    1       -0.002   1.095  -0.181  0.00  0.00    -0.020 A 
ATOM      4  C   LIG    1       -1.202   1.768  -0.197  0.00  0.00    +0.110 A 
ATOM      5  C   LIG    1       -1.233   3.143   0.056  0.00  0.00    -0.200 A 
ATOM      6  C   LIG    1       -0.042   3.830   0.311  0.00  0.00    +0.120 A 
ATOM      7  C   LIG    1        1.155   3.150   0.319  0.00  0.00    -0.080 A 
BRANCH   5   8
ATOM      8  C   LIG    1       -2.517   3.868   0.045  0.00  0.00    +0.440 C 
ATOM      9  O   LIG    1       -2.531   5.082   0.122  0.00  0.00    -0.450 OA
BRANCH   8  10
ATOM     10  C   LIG    1       -3.788   3.120  -0.058  0.00  0.00    -0.160 A 
ATOM     11  C   LIG    1       -4.874   3.672  -0.740  0.00  0.00    +0.060 A 
ATOM     12  C   LIG    1       -6.055   2.966  -0.836  0.00  0.00    +0.000 A 
ATOM     13  C   LIG    1       -6.168   1.718  -0.250  0.00  0.00    +0.040 A 
ATOM     14  C   LIG    1       -5.098   1.167   0.432  0.00  0.00    +0.000 A 
ATOM     15  C   LIG    1       -3.909   1.860   0.532  0.00  0.00    +0.050 A 
ENDBRANCH   8  10
ENDBRANCH   5   8
ENDBRANCH   1   2
BRANCH   1  16
ATOM     16  C   LIG    1        3.537   1.881   0.350  0.00  0.00    +0.240 C 
BRANCH  16  18
ATOM     17  O   LIG    1        4.610  -0.205   0.088  0.00  0.00    -0.510 OA
ATOM     18  C   LIG    1        4.744   0.979   0.318  0.00  0.00    +0.520 C 
ATOM     19  N   LIG    1        5.971   1.486   0.545  0.00  0.00    -0.720 N 
ATOM     20  H   LIG    1        6.079   2.433   0.729  0.00  0.00    +0.400 HD
BRANCH  19  21
ATOM     21  C   LIG    1        7.144   0.609   0.514  0.00  0.00    +0.320 C 
BRANCH  21  22
ATOM     22  C   LIG    1        8.384   1.417   0.797  0.00  0.00    -0.130 A 
ATOM     23  C   LIG    1        9.084   1.996  -0.245  0.00  0.00    +0.070 A 
ATOM     24  C   LIG    1       10.218   2.742   0.014  0.00  0.00    -0.020 A 
ATOM     25  C   LIG    1       10.660   2.901   1.317  0.00  0.00    +0.110 A 
ATOM     26  C   LIG    1        9.961   2.316   2.359  0.00  0.00    -0.020 A 
ATOM     27  F   LIG    1       11.772   3.624   1.570  0.00  0.00    -0.140 F 
ATOM     28  C   LIG    1        8.824   1.575   2.098  0.00  0.00    +0.070 A 
ENDBRANCH  21  22
ENDBRANCH  19  21
ENDBRANCH  16  18
ENDBRANCH   1  16
TORSDOF 7
