REMARK  Name = ZINCpe000000UUWM.0
REMARK                            x       y       z     vdW  Elec       q    Type
REMARK                         _______ _______ _______ _____ _____    ______ ____
ROOT
ATOM      1  C   LIG    1       -0.051   1.181   0.121  0.00  0.00    +0.220 C 
ATOM      2  C   LIG    1       -0.752   1.711  -1.133  0.00  0.00    +0.040 C 
ATOM      3  C   LIG    1       -2.199   1.204  -1.154  0.00  0.00    +0.020 C 
ATOM      4  C   LIG    1       -2.944   1.726   0.076  0.00  0.00    +0.010 C 
ATOM      5  C   LIG    1       -2.264   1.196   1.343  0.00  0.00    +0.280 C 
ATOM      6  N   LIG    1       -0.841   1.556   1.302  0.00  0.00    -0.600 N 
ATOM      7  C   LIG    1       -0.270   2.217   2.328  0.00  0.00    +0.490 C 
ATOM      8  O   LIG    1        0.889   2.569   2.254  0.00  0.00    -0.490 OA
ENDROOT
BRANCH   1  12
ATOM      9  C   LIG    1        3.743   1.568   0.454  0.00  0.00    +0.290 C 
ATOM     10  N   LIG    1        2.404   0.983   0.355  0.00  0.00    -0.740 N 
ATOM     11  H   LIG    1        2.292   0.020   0.385  0.00  0.00    +0.400 HD
ATOM     12  C   LIG    1        1.327   1.783   0.223  0.00  0.00    +0.530 C 
ATOM     13  O   LIG    1        1.467   2.987   0.185  0.00  0.00    -0.510 OA
ENDBRANCH   1  12
BRANCH   7  14
ATOM     14  C   LIG    1       -1.071   2.521   3.568  0.00  0.00    +0.340 C 
BRANCH  14  15
ATOM     15  N   LIG    1       -0.231   3.241   4.528  0.00  0.00    -0.530 N 
ATOM     16  C   LIG    1        0.492   2.546   5.444  0.00  0.00    +0.580 A 
ATOM     17  N   LIG    1        1.264   3.111   6.323  0.00  0.00    -0.510 NA
ATOM     18  C   LIG    1        1.393   4.459   6.394  0.00  0.00    +0.150 A 
ATOM     19  C   LIG    1        2.217   5.067   7.342  0.00  0.00    -0.080 A 
ATOM     20  C   LIG    1        2.318   6.440   7.378  0.00  0.00    +0.050 A 
ATOM     21  C   LIG    1        1.610   7.229   6.481  0.00  0.00    +0.000 A 
ATOM     22  C   LIG    1        0.789   6.652   5.537  0.00  0.00    +0.090 A 
ATOM     23  C   LIG    1        2.993   4.226   8.322  0.00  0.00    +0.110 C 
ATOM     24  C   LIG    1        0.673   5.265   5.484  0.00  0.00    -0.190 A 
ATOM     25  C   LIG    1       -0.187   4.594   4.497  0.00  0.00    +0.560 A 
ATOM     26  O   LIG    1       -0.833   5.229   3.686  0.00  0.00    -0.500 OA
ENDBRANCH  14  15
ENDBRANCH   7  14
TORSDOF 3
