REMARK  Name = ZINCrD000000BWOe.0
REMARK                            x       y       z     vdW  Elec       q    Type
REMARK                         _______ _______ _______ _____ _____    ______ ____
ROOT
ATOM      1  C   LIG    1        2.337   1.173   0.079  0.00  0.00    +0.150 A 
ATOM      2  C   LIG    1        2.306  -0.217   0.069  0.00  0.00    +0.020 A 
ATOM      3  C   LIG    1        3.481  -0.934   0.140  0.00  0.00    +0.050 A 
ATOM      4  C   LIG    1        4.700  -0.265   0.232  0.00  0.00    -0.030 A 
ATOM      5  C   LIG    1        4.729   1.129   0.247  0.00  0.00    +0.080 A 
ATOM      6  C   LIG    1        3.551   1.842   0.170  0.00  0.00    -0.010 A 
ENDROOT
BRANCH   4   7
ATOM      7  C   LIG    1        5.966  -1.034   0.315  0.00  0.00    +0.120 A 
ATOM      8  C   LIG    1        6.075  -2.392   0.316  0.00  0.00    +0.110 A 
ATOM      9  N   LIG    1        7.408  -2.685   0.404  0.00  0.00    -0.400 N 
ATOM     10  C   LIG    1        8.092  -3.865   0.442  0.00  0.00    +0.290 A 
ATOM     11  C   LIG    1        9.444  -3.841   0.539  0.00  0.00    -0.040 A 
ATOM     12  C   LIG    1       10.106  -2.606   0.598  0.00  0.00    +0.360 A 
ATOM     13  N   LIG    1        9.425  -1.485   0.559  0.00  0.00    -0.440 NA
ATOM     14  C   LIG    1        8.086  -1.494   0.463  0.00  0.00    +0.380 A 
ATOM     15  N   LIG    1        7.200  -0.512   0.408  0.00  0.00    -0.460 NA
ENDBRANCH   4   7
BRANCH   1  18
ATOM     16  O   LIG    1        0.244   0.410  -1.376  0.00  0.00    -0.490 OA
ATOM     17  C   LIG    1        0.109   1.420  -0.719  0.00  0.00    +0.520 C 
ATOM     18  N   LIG    1        1.143   1.898   0.001  0.00  0.00    -0.670 N 
ATOM     19  H   LIG    1        1.060   2.746   0.466  0.00  0.00    +0.410 HD
BRANCH  17  20
ATOM     20  C   LIG    1       -1.213   2.144  -0.711  0.00  0.00    +0.190 C 
ATOM     21  C   LIG    1       -1.910   1.996   0.662  0.00  0.00    +0.100 C 
ATOM     22  C   LIG    1       -3.370   1.892   0.262  0.00  0.00    -0.180 A 
ATOM     23  C   LIG    1       -4.537   2.025   0.981  0.00  0.00    +0.060 A 
ATOM     24  C   LIG    1       -5.759   1.896   0.344  0.00  0.00    -0.020 A 
ATOM     25  C   LIG    1       -5.802   1.635  -1.012  0.00  0.00    +0.050 A 
ATOM     26  C   LIG    1       -4.634   1.497  -1.734  0.00  0.00    +0.000 A 
ATOM     27  C   LIG    1       -3.400   1.621  -1.100  0.00  0.00    +0.100 A 
ATOM     28  O   LIG    1       -2.142   1.515  -1.610  0.00  0.00    -0.270 OA
ENDBRANCH  17  20
ENDBRANCH   1  18
TORSDOF 3
