REMARK  Name = ZINCpk00000Fb9LB.0
REMARK                            x       y       z     vdW  Elec       q    Type
REMARK                         _______ _______ _______ _____ _____    ______ ____
ROOT
ATOM      1  C   LIG    1        1.756   3.079   0.086  0.00  0.00    +0.220 C 
ATOM      2  C   LIG    1        3.307   3.135   0.045  0.00  0.00    +0.100 C 
ATOM      3  C   LIG    1        3.621   4.500   0.693  0.00  0.00    +0.260 C 
ATOM      4  N   LIG    1        2.459   4.870   1.514  0.00  0.00    -0.630 N 
ATOM      5  C   LIG    1        2.332   6.007   2.228  0.00  0.00    +0.730 C 
ATOM      6  N   LIG    1        3.325   6.918   2.226  0.00  0.00    -0.690 N 
ATOM      7  H   LIG    1        4.160   6.725   1.771  0.00  0.00    +0.410 HD
ATOM      8  O   LIG    1        1.322   6.210   2.873  0.00  0.00    -0.570 OA
ATOM      9  C   LIG    1        1.455   3.794   1.427  0.00  0.00    +0.300 C 
ENDROOT
BRANCH   6  10
ATOM     10  C   LIG    1        3.153   8.138   2.880  0.00  0.00    +0.180 A 
ATOM     11  C   LIG    1        3.291   9.313   2.193  0.00  0.00    +0.060 A 
ATOM     12  C   LIG    1        3.107  10.532   2.870  0.00  0.00    +0.230 A 
ATOM     13  N   LIG    1        3.171  11.794   2.469  0.00  0.00    -0.490 NA
ATOM     14  C   LIG    1        2.920  12.598   3.506  0.00  0.00    +0.210 A 
ATOM     15  C   LIG    1        2.689  11.837   4.597  0.00  0.00    +0.080 A 
ATOM     16  N   LIG    1        2.805  10.527   4.208  0.00  0.00    -0.370 N 
ATOM     17  C   LIG    1        2.676   9.349   4.886  0.00  0.00    +0.240 A 
ATOM     18  C   LIG    1        2.842   8.170   4.256  0.00  0.00    +0.020 A 
ENDBRANCH   6  10
BRANCH   1  22
ATOM     19  C   LIG    1        0.066  -0.087   0.174  0.00  0.00    +0.180 A 
ATOM     20  N   LIG    1        1.317  -0.433   0.113  0.00  0.00    -0.370 NA
ATOM     21  O   LIG    1        2.024   0.552   0.077  0.00  0.00    +0.090 OA
ATOM     22  C   LIG    1        1.268   1.653   0.113  0.00  0.00    +0.150 A 
ATOM     23  N   LIG    1        0.019   1.257   0.174  0.00  0.00    -0.460 NA
BRANCH  19  25
ATOM     24  C   LIG    1       -1.586  -1.339  -1.187  0.00  0.00    +0.040 C 
ATOM     25  C   LIG    1       -1.115  -1.021   0.234  0.00  0.00    +0.150 C 
ENDBRANCH  19  25
ENDBRANCH   1  22
BRANCH   1  26
ATOM     26  O   LIG    1        1.188   3.792  -1.014  0.00  0.00    -0.520 OA
ATOM     27  H   LIG    1        0.222   3.826  -1.003  0.00  0.00    +0.400 HD
ENDBRANCH   1  26
TORSDOF 4
