REMARK  Name = ZINCpk00000y6u8V.0
REMARK                            x       y       z     vdW  Elec       q    Type
REMARK                         _______ _______ _______ _____ _____    ______ ____
ROOT
ATOM      1  C   LIG    1        0.090   1.019   2.832  0.00  0.00    -0.380 A 
ATOM      2  N   LIG    1        1.103   1.599   3.416  0.00  0.00    -0.170 NA
ATOM      3  N   LIG    1        1.559   0.839   4.348  0.00  0.00    -0.280 NA
ATOM      4  C   LIG    1        0.858  -0.261   4.401  0.00  0.00    +0.260 A 
ATOM      5  N   LIG    1       -0.097  -0.176   3.444  0.00  0.00    -0.420 N 
ENDROOT
BRANCH   1   6
ATOM      6  S   LIG    1       -0.862   1.671   1.500  0.00  0.00    +2.570 S 
ATOM      7  O   LIG    1       -2.128   1.040   1.633  0.00  0.00    -0.900 OA
ATOM      8  O   LIG    1       -0.728   3.079   1.631  0.00  0.00    -0.880 OA
BRANCH   6   9
ATOM      9  C   LIG    1       -0.013   1.086   0.008  0.00  0.00    -0.320 C 
BRANCH   9  11
ATOM     10  N   LIG    1       -0.288   1.272  -2.443  0.00  0.00    -0.600 N 
ATOM     11  C   LIG    1       -0.742   1.585  -1.213  0.00  0.00    +0.550 C 
ATOM     12  O   LIG    1       -1.736   2.268  -1.088  0.00  0.00    -0.530 OA
BRANCH  10  14
ATOM     13  C   LIG    1       -0.427   3.116  -4.045  0.00  0.00    +0.020 C 
ATOM     14  C   LIG    1       -0.997   1.758  -3.630  0.00  0.00    +0.280 C 
ENDBRANCH  10  14
BRANCH  10  15
ATOM     15  C   LIG    1        0.913   0.447  -2.593  0.00  0.00    +0.270 C 
ATOM     16  C   LIG    1        0.514  -1.029  -2.644  0.00  0.00    +0.020 C 
ENDBRANCH  10  15
ENDBRANCH   9  11
ENDBRANCH   6   9
ENDBRANCH   1   6
BRANCH   4  17
ATOM     17  C   LIG    1        1.069  -1.409   5.353  0.00  0.00    +0.020 C 
ATOM     18  C   LIG    1        2.072  -1.209   6.491  0.00  0.00    +0.080 C 
ATOM     19  C   LIG    1        2.422  -2.121   5.313  0.00  0.00    +0.060 C 
ENDBRANCH   4  17
BRANCH   5  20
ATOM     20  C   LIG    1       -1.123  -1.174   3.131  0.00  0.00    +0.440 C 
BRANCH  20  21
ATOM     21  C   LIG    1       -0.593  -2.131   2.095  0.00  0.00    -0.060 A 
ATOM     22  C   LIG    1        0.074  -3.272   2.346  0.00  0.00    +0.000 A 
ATOM     23  C   LIG    1        0.377  -3.853   1.093  0.00  0.00    -0.050 A 
ATOM     24  C   LIG    1       -0.115  -3.028   0.151  0.00  0.00    +0.190 A 
ATOM     25  O   LIG    1       -0.702  -1.987   0.764  0.00  0.00    -0.180 OA
ENDBRANCH  20  21
ENDBRANCH   5  20
TORSDOF 8
