REMARK  Name = ZINCpe00000MJK3F.0
REMARK                            x       y       z     vdW  Elec       q    Type
REMARK                         _______ _______ _______ _____ _____    ______ ____
ROOT
ATOM      1  N   LIG    1       -0.867   2.134   0.775  0.00  0.00    -0.700 N 
ATOM      2  H   LIG    1       -1.461   1.640   1.362  0.00  0.00    +0.410 HD
ATOM      3  C   LIG    1       -0.022   1.471  -0.041  0.00  0.00    +0.560 C 
ATOM      4  O   LIG    1        0.719   2.089  -0.780  0.00  0.00    -0.540 OA
ENDROOT
BRANCH   3   5
ATOM      5  C   LIG    1       -0.002  -0.004  -0.040  0.00  0.00    -0.130 A 
ATOM      6  C   LIG    1        1.214  -0.693  -0.143  0.00  0.00    +0.090 A 
ATOM      7  C   LIG    1        1.224  -2.098  -0.137  0.00  0.00    +0.040 A 
ATOM      8  N   LIG    1        2.522  -2.485  -0.241  0.00  0.00    -0.490 NA
ATOM      9  C   LIG    1        3.285  -1.433  -0.304  0.00  0.00    +0.480 A 
ATOM     10  C   LIG    1        0.017  -2.795  -0.038  0.00  0.00    +0.110 A 
ATOM     11  C   LIG    1       -1.174  -2.106   0.058  0.00  0.00    +0.000 A 
ATOM     12  N   LIG    1        2.529  -0.303  -0.244  0.00  0.00    -0.490 N 
ATOM     13  C   LIG    1        3.024   1.075  -0.287  0.00  0.00    +0.330 C 
ATOM     14  C   LIG    1       -1.192  -0.723   0.058  0.00  0.00    +0.080 A 
ENDBRANCH   3   5
BRANCH   1  19
ATOM     15  C   LIG    1       -1.406   4.133   2.128  0.00  0.00    +0.150 C 
ATOM     16  C   LIG    1       -2.683   4.919   1.757  0.00  0.00    +0.210 C 
ATOM     17  O   LIG    1       -3.120   4.344   0.506  0.00  0.00    -0.360 OA
ATOM     18  C   LIG    1       -1.912   4.125  -0.255  0.00  0.00    +0.210 C 
ATOM     19  C   LIG    1       -0.887   3.598   0.774  0.00  0.00    +0.240 C 
BRANCH  15  20
ATOM     20  O   LIG    1       -1.719   3.051   3.007  0.00  0.00    -0.290 OA
BRANCH  20  24
ATOM     21  C   LIG    1       -1.688   2.409   7.848  0.00  0.00    +0.360 C 
ATOM     22  N   LIG    1       -1.558   3.004   6.516  0.00  0.00    -0.370 N 
ATOM     23  C   LIG    1       -1.821   2.386   5.334  0.00  0.00    +0.210 A 
ATOM     24  C   LIG    1       -1.577   3.278   4.343  0.00  0.00    -0.030 A 
ATOM     25  C   LIG    1       -1.147   4.473   4.935  0.00  0.00    +0.170 A 
ATOM     26  N   LIG    1       -1.141   4.311   6.233  0.00  0.00    -0.270 NA
ENDBRANCH  20  24
ENDBRANCH  15  20
ENDBRANCH   1  19
TORSDOF 4
