REMARK  Name = ZINCrD000000fA6U.0
REMARK                            x       y       z     vdW  Elec       q    Type
REMARK                         _______ _______ _______ _____ _____    ______ ____
ROOT
ATOM      1  C   LIG    1        2.048   0.609  -2.411  0.00  0.00    +0.500 C 
ATOM      2  N   LIG    1        2.473   0.378  -3.669  0.00  0.00    -0.680 N 
ATOM      3  H   LIG    1        3.310   0.761  -3.976  0.00  0.00    +0.410 HD
ATOM      4  O   LIG    1        0.959   0.211  -2.057  0.00  0.00    -0.480 OA
ENDROOT
BRANCH   2   5
ATOM      5  C   LIG    1        1.711  -0.412  -4.529  0.00  0.00    +0.190 A 
ATOM      6  C   LIG    1        0.976  -1.479  -4.022  0.00  0.00    +0.020 A 
ATOM      7  C   LIG    1        0.217  -2.258  -4.867  0.00  0.00    +0.090 A 
ATOM      8  C   LIG    1        0.195  -1.983  -6.237  0.00  0.00    -0.150 A 
ATOM      9  C   LIG    1        0.940  -0.913  -6.745  0.00  0.00    +0.040 A 
ATOM     10 CL   LIG    1        0.915  -0.566  -8.445  0.00  0.00    -0.020 Cl
ATOM     11  C   LIG    1        1.692  -0.134  -5.892  0.00  0.00    -0.010 A 
BRANCH   8  12
ATOM     12  C   LIG    1       -0.612  -2.820  -7.146  0.00  0.00    +0.560 C 
ATOM     13  O   LIG    1       -0.630  -2.579  -8.338  0.00  0.00    -0.520 OA
ATOM     14  N   LIG    1       -1.328  -3.850  -6.655  0.00  0.00    -0.850 N 
ATOM     15  H   LIG    1       -1.859  -4.400  -7.253  0.00  0.00    +0.410 HD
ATOM     16  H   LIG    1       -1.313  -4.042  -5.705  0.00  0.00    +0.400 HD
ENDBRANCH   8  12
ENDBRANCH   2   5
BRANCH   1  17
ATOM     17  C   LIG    1        2.926   1.362  -1.445  0.00  0.00    +0.060 C 
BRANCH  17  29
ATOM     18  C   LIG    1       -1.440   2.587  -0.456  0.00  0.00    +0.100 C 
ATOM     19  C   LIG    1       -0.206   1.736  -0.296  0.00  0.00    +0.510 C 
ATOM     20  N   LIG    1        1.011   2.313  -0.253  0.00  0.00    -0.560 N 
ATOM     21  C   LIG    1        1.130   3.694  -0.351  0.00  0.00    +0.240 C 
ATOM     22  C   LIG    1        2.127   4.319   0.286  0.00  0.00    -0.040 C 
ATOM     23  C   LIG    1        3.100   3.523   1.059  0.00  0.00    -0.030 A 
ATOM     24  C   LIG    1        3.980   4.140   1.947  0.00  0.00    +0.020 A 
ATOM     25  C   LIG    1        4.870   3.371   2.671  0.00  0.00    +0.020 A 
ATOM     26  C   LIG    1        4.888   1.997   2.517  0.00  0.00    +0.010 A 
ATOM     27  C   LIG    1        4.021   1.379   1.631  0.00  0.00    +0.030 A 
ATOM     28  C   LIG    1        3.135   2.136   0.897  0.00  0.00    -0.110 A 
ATOM     29  C   LIG    1        2.212   1.486  -0.098  0.00  0.00    +0.320 C 
ATOM     30  O   LIG    1       -0.309   0.530  -0.210  0.00  0.00    -0.480 OA
ENDBRANCH  17  29
ENDBRANCH   1  17
TORSDOF 4
