REMARK  Name = ZINCkj00000GeQHM.0
REMARK                            x       y       z     vdW  Elec       q    Type
REMARK                         _______ _______ _______ _____ _____    ______ ____
ROOT
ATOM      1  C   LIG    1        1.264  -0.437  -0.014  0.00  0.00    +0.250 A 
ATOM      2  N   LIG    1        2.070   0.595  -0.017  0.00  0.00    -0.300 NA
ATOM      3  N   LIG    1        1.259   1.734  -0.001  0.00  0.00    -0.390 N 
ATOM      4  C   LIG    1        1.668   3.138   0.006  0.00  0.00    +0.350 C 
ATOM      5  C   LIG    1        0.478   3.996   0.450  0.00  0.00    +0.170 C 
ATOM      6  C   LIG    1       -0.759   3.619  -0.372  0.00  0.00    +0.070 C 
ATOM      7  C   LIG    1       -1.219   2.210   0.020  0.00  0.00    +0.210 C 
ATOM      8  C   LIG    1       -0.016   1.299   0.009  0.00  0.00    +0.270 A 
ATOM      9  N   LIG    1        0.002  -0.004   0.002  0.00  0.00    -0.510 NA
ENDROOT
BRANCH   5  10
ATOM     10  N   LIG    1        0.791   5.416   0.238  0.00  0.00    -0.500 N 
ATOM     11  H   LIG    1       -0.020   5.975   0.452  0.00  0.00    +0.440 HD
ATOM     12  H   LIG    1        1.056   5.562  -0.725  0.00  0.00    +0.430 HD
BRANCH  10  13
ATOM     13  C   LIG    1        1.902   5.808   1.116  0.00  0.00    +0.290 C 
BRANCH  13  14
ATOM     14  C   LIG    1        2.229   7.286   0.896  0.00  0.00    +0.230 C 
BRANCH  14  15
ATOM     15  O   LIG    1        1.119   8.086   1.309  0.00  0.00    -0.390 OA
BRANCH  15  16
ATOM     16  C   LIG    1        1.322   9.491   1.145  0.00  0.00    +0.240 C 
BRANCH  16  17
ATOM     17  C   LIG    1        0.077  10.245   1.617  0.00  0.00    +0.460 C 
ATOM     18  F   LIG    1       -1.028   9.841   0.859  0.00  0.00    -0.180 F 
ATOM     19  F   LIG    1        0.276  11.620   1.455  0.00  0.00    -0.170 F 
ATOM     20  F   LIG    1       -0.155   9.963   2.967  0.00  0.00    -0.170 F 
ENDBRANCH  16  17
ENDBRANCH  15  16
ENDBRANCH  14  15
ENDBRANCH  13  14
ENDBRANCH  10  13
ENDBRANCH   5  10
BRANCH   1  22
ATOM     21  C   LIG    1        1.824  -2.362  -1.473  0.00  0.00    +0.050 C 
ATOM     22  C   LIG    1        1.694  -1.882  -0.027  0.00  0.00    +0.150 C 
ENDBRANCH   1  22
TORSDOF 7
