REMARK  Name = ZINCrD000000fnIc.0
REMARK                            x       y       z     vdW  Elec       q    Type
REMARK                         _______ _______ _______ _____ _____    ______ ____
ROOT
ATOM      1  C   LIG    1       -2.642   5.965  -0.560  0.00  0.00    +0.200 A 
ATOM      2  N   LIG    1       -1.545   6.617  -0.261  0.00  0.00    -0.310 NA
ATOM      3  N   LIG    1       -1.764   7.977  -0.517  0.00  0.00    -0.320 NA
ATOM      4  C   LIG    1       -2.987   8.114  -0.965  0.00  0.00    +0.410 A 
ATOM      5  N   LIG    1       -3.563   6.873  -1.009  0.00  0.00    -0.420 N 
ENDROOT
BRANCH   5   6
ATOM      6  C   LIG    1       -4.867   6.584  -1.436  0.00  0.00    +0.100 A 
ATOM      7  C   LIG    1       -5.221   6.770  -2.766  0.00  0.00    +0.050 A 
ATOM      8  C   LIG    1       -6.505   6.478  -3.184  0.00  0.00    +0.020 A 
ATOM      9  C   LIG    1       -7.440   6.013  -2.279  0.00  0.00    -0.070 A 
ATOM     10  C   LIG    1       -7.092   5.832  -0.953  0.00  0.00    +0.020 A 
ATOM     11  C   LIG    1       -8.841   5.702  -2.738  0.00  0.00    +0.100 C 
ATOM     12  C   LIG    1       -5.808   6.116  -0.529  0.00  0.00    +0.040 A 
ENDBRANCH   5   6
BRANCH   4  13
ATOM     13  N   LIG    1       -3.592   9.309  -1.335  0.00  0.00    -0.460 N 
ATOM     14  C   LIG    1       -2.854   9.955  -2.428  0.00  0.00    +0.210 C 
ATOM     15  C   LIG    1       -3.626  11.188  -2.906  0.00  0.00    +0.030 C 
ATOM     16  C   LIG    1       -3.799  12.161  -1.737  0.00  0.00    +0.010 C 
ATOM     17  C   LIG    1       -4.527  11.448  -0.594  0.00  0.00    +0.030 C 
ATOM     18  C   LIG    1       -3.730  10.208  -0.183  0.00  0.00    +0.200 C 
ENDBRANCH   4  13
BRANCH   1  19
ATOM     19  S   LIG    1       -2.886   4.226  -0.417  0.00  0.00    +0.090 S 
BRANCH  19  20
ATOM     20  C   LIG    1       -1.292   3.642   0.220  0.00  0.00    +0.010 C 
ATOM     21  C   LIG    1       -1.063   4.210   1.622  0.00  0.00    +0.080 C 
BRANCH  20  24
ATOM     22  N   LIG    1       -0.133   1.459   0.332  0.00  0.00    -0.720 N 
ATOM     23  H   LIG    1        0.709   1.940   0.322  0.00  0.00    +0.410 HD
ATOM     24  C   LIG    1       -1.298   2.136   0.284  0.00  0.00    +0.540 C 
ATOM     25  O   LIG    1       -2.350   1.534   0.292  0.00  0.00    -0.520 OA
BRANCH  22  26
ATOM     26  C   LIG    1       -0.139  -0.005   0.394  0.00  0.00    +0.310 C 
BRANCH  26  28
ATOM     27  C   LIG    1        1.665  -1.305   1.401  0.00  0.00    +0.050 C 
ATOM     28  C   LIG    1        1.280  -0.512   0.433  0.00  0.00    -0.060 C 
ENDBRANCH  26  28
ENDBRANCH  22  26
ENDBRANCH  20  24
ENDBRANCH  19  20
ENDBRANCH   1  19
TORSDOF 7
