REMARK  Name = ZINCvU00000004nQ.0
REMARK                            x       y       z     vdW  Elec       q    Type
REMARK                         _______ _______ _______ _____ _____    ______ ____
ROOT
ATOM      1  C   LIG    1       -1.588   1.071  -1.681  0.00  0.00    +0.000 C 
ATOM      2  C   LIG    1       -0.279   1.756  -1.279  0.00  0.00    +0.050 C 
ATOM      3  C   LIG    1        0.118   1.304   0.130  0.00  0.00    +0.290 C 
ATOM      4  N   LIG    1       -1.001   1.563   1.045  0.00  0.00    -0.600 N 
ATOM      5  C   LIG    1       -2.329   1.026   0.705  0.00  0.00    +0.290 C 
ATOM      6  C   LIG    1       -0.815   2.281   2.171  0.00  0.00    +0.600 C 
ATOM      7  O   LIG    1        0.302   2.657   2.475  0.00  0.00    -0.510 OA
ATOM      8  C   LIG    1       -2.698   1.481  -0.711  0.00  0.00    +0.030 C 
ENDROOT
BRANCH   6   9
ATOM      9  C   LIG    1       -1.958   2.607   3.031  0.00  0.00    -0.060 A 
ATOM     10  C   LIG    1       -1.930   3.439   4.128  0.00  0.00    +0.060 A 
ATOM     11  C   LIG    1       -3.229   3.470   4.647  0.00  0.00    +0.010 A 
ATOM     12  C   LIG    1       -3.997   2.650   3.851  0.00  0.00    +0.060 A 
ATOM     13  O   LIG    1       -3.214   2.140   2.884  0.00  0.00    -0.130 OA
BRANCH  12  14
ATOM     14  C   LIG    1       -5.432   2.378   4.029  0.00  0.00    +0.160 A 
ATOM     15  N   LIG    1       -6.138   1.604   3.271  0.00  0.00    -0.440 NA
ATOM     16  C   LIG    1       -7.434   1.454   3.558  0.00  0.00    +0.080 A 
ATOM     17  C   LIG    1       -8.404   0.672   2.890  0.00  0.00    +0.080 A 
ATOM     18  C   LIG    1       -9.691   0.641   3.331  0.00  0.00    +0.030 A 
ATOM     19  C   LIG    1      -10.079   1.375   4.444  0.00  0.00    +0.050 A 
ATOM     20  C   LIG    1       -9.158   2.146   5.116  0.00  0.00    +0.070 A 
ATOM     21  C   LIG    1       -7.835   2.191   4.681  0.00  0.00    -0.170 A 
ATOM     22  S   LIG    1       -6.433   3.053   5.308  0.00  0.00    +0.130 S 
ENDBRANCH  12  14
ENDBRANCH   6   9
BRANCH   1  24
ATOM     23  O   LIG    1       -1.255   2.255  -3.695  0.00  0.00    -0.510 OA
ATOM     24  C   LIG    1       -1.964   1.487  -3.079  0.00  0.00    +0.520 C 
ATOM     25  N   LIG    1       -3.088   1.005  -3.646  0.00  0.00    -0.670 N 
ATOM     26  H   LIG    1       -3.695   0.454  -3.128  0.00  0.00    +0.410 HD
BRANCH  25  27
ATOM     27  C   LIG    1       -3.379   1.300  -4.983  0.00  0.00    +0.140 A 
ATOM     28  C   LIG    1       -4.698   1.448  -5.391  0.00  0.00    -0.030 A 
ATOM     29  C   LIG    1       -4.982   1.744  -6.710  0.00  0.00    +0.030 A 
ATOM     30  C   LIG    1       -3.955   1.883  -7.625  0.00  0.00    -0.010 A 
ATOM     31  C   LIG    1       -2.640   1.731  -7.223  0.00  0.00    +0.030 A 
ATOM     32  C   LIG    1       -2.350   1.440  -5.904  0.00  0.00    +0.010 A 
ENDBRANCH  25  27
ENDBRANCH   1  24
TORSDOF 4
