REMARK  Name = ZINCrg000009DFeM.0
REMARK                            x       y       z     vdW  Elec       q    Type
REMARK                         _______ _______ _______ _____ _____    ______ ____
ROOT
ATOM      1  N   LIG    1       -0.011   0.972   0.021  0.00  0.00    -0.520 N 
ATOM      2  H   LIG    1        0.001   0.002   0.018  0.00  0.00    +0.430 HD
ATOM      3  C   LIG    1       -1.188   1.630   0.029  0.00  0.00    +0.600 C 
ATOM      4  O   LIG    1       -1.204   2.846   0.032  0.00  0.00    -0.540 OA
ENDROOT
BRANCH   3   5
ATOM      5  C   LIG    1       -2.454   0.876   0.033  0.00  0.00    -0.280 A 
ATOM      6  C   LIG    1       -3.727   1.412   0.047  0.00  0.00    +0.340 A 
ATOM      7  N   LIG    1       -4.595   0.384   0.044  0.00  0.00    -0.300 N 
ATOM      8  N   LIG    1       -3.868  -0.811   0.037  0.00  0.00    -0.280 NA
ATOM      9  C   LIG    1       -2.593  -0.530   0.031  0.00  0.00    +0.290 A 
BRANCH   7  10
ATOM     10  C   LIG    1       -5.992   0.493   0.052  0.00  0.00    +0.140 A 
ATOM     11  C   LIG    1       -6.593   1.745   0.063  0.00  0.00    +0.000 A 
ATOM     12  C   LIG    1       -7.970   1.848   0.066  0.00  0.00    +0.050 A 
ATOM     13  C   LIG    1       -8.751   0.707   0.068  0.00  0.00    +0.010 A 
ATOM     14  C   LIG    1       -8.156  -0.541   0.062  0.00  0.00    +0.040 A 
ATOM     15  C   LIG    1       -6.779  -0.651   0.054  0.00  0.00    +0.030 A 
ENDBRANCH   7  10
ENDBRANCH   3   5
BRANCH   1  17
ATOM     16  C   LIG    1        2.368   1.030  -0.003  0.00  0.00    +0.520 C 
ATOM     17  N   LIG    1        1.192   1.688   0.011  0.00  0.00    -0.520 N 
ATOM     18  H   LIG    1        1.179   2.658   0.013  0.00  0.00    +0.430 HD
ATOM     19  O   LIG    1        2.384  -0.183  -0.006  0.00  0.00    -0.530 OA
BRANCH  16  25
ATOM     20  C   LIG    1        5.147   4.667  -1.444  0.00  0.00    +0.550 C 
ATOM     21  N   LIG    1        5.041   3.328  -1.327  0.00  0.00    -0.610 N 
ATOM     22  C   LIG    1        6.242   2.485  -1.259  0.00  0.00    +0.270 C 
ATOM     23  C   LIG    1        6.156   1.604  -0.009  0.00  0.00    +0.020 C 
ATOM     24  C   LIG    1        4.840   0.822  -0.030  0.00  0.00    +0.060 C 
ATOM     25  C   LIG    1        3.663   1.801  -0.014  0.00  0.00    +0.000 C 
ATOM     26  C   LIG    1        3.721   2.684  -1.264  0.00  0.00    +0.300 C 
ATOM     27  O   LIG    1        4.148   5.345  -1.593  0.00  0.00    -0.540 OA
BRANCH  20  29
ATOM     28  C   LIG    1        6.568   6.633  -1.405  0.00  0.00    +0.140 C 
ATOM     29  C   LIG    1        6.470   5.307  -1.393  0.00  0.00    -0.090 C 
ENDBRANCH  20  29
ENDBRANCH  16  25
ENDBRANCH   1  17
TORSDOF 5
