REMARK  Name = ZINCrH00000No55M.0
REMARK                            x       y       z     vdW  Elec       q    Type
REMARK                         _______ _______ _______ _____ _____    ______ ____
ROOT
ATOM      1  O   LIG    1        8.746  -0.233  -5.491  0.00  0.00    -0.510 OA
ATOM      2  C   LIG    1        9.184  -0.873  -4.554  0.00  0.00    +0.570 C 
ATOM      3  N   LIG    1        8.345  -1.351  -3.615  0.00  0.00    -0.600 N 
ATOM      4  C   LIG    1        8.836  -2.227  -2.539  0.00  0.00    +0.280 C 
ATOM      5  C   LIG    1        7.951  -3.477  -2.487  0.00  0.00    +0.170 C 
ATOM      6  N   LIG    1        6.544  -3.073  -2.365  0.00  0.00    -0.530 NA
ATOM      7  C   LIG    1        6.105  -2.311  -3.542  0.00  0.00    +0.170 C 
ATOM      8  C   LIG    1        6.913  -1.013  -3.637  0.00  0.00    +0.300 C 
ENDROOT
BRANCH   2   9
ATOM      9  C   LIG    1       10.633  -1.126  -4.447  0.00  0.00    -0.120 A 
ATOM     10  C   LIG    1       11.293  -0.924  -3.232  0.00  0.00    +0.090 A 
ATOM     11  C   LIG    1       12.647  -1.169  -3.135  0.00  0.00    +0.090 A 
ATOM     12  C   LIG    1       13.359  -1.602  -4.245  0.00  0.00    +0.090 A 
ATOM     13  C   LIG    1       12.713  -1.799  -5.456  0.00  0.00    +0.060 A 
ATOM     14  F   LIG    1       13.412  -2.221  -6.532  0.00  0.00    -0.100 F 
ATOM     15  F   LIG    1       14.686  -1.835  -4.144  0.00  0.00    -0.100 F 
ATOM     16  F   LIG    1       13.283  -0.979  -1.958  0.00  0.00    -0.110 F 
ATOM     17  C   LIG    1       11.354  -1.563  -5.563  0.00  0.00    +0.140 A 
ATOM     18  F   LIG    1       10.725  -1.755  -6.743  0.00  0.00    -0.090 F 
ENDBRANCH   2   9
BRANCH   6  19
ATOM     19  C   LIG    1        5.679  -4.238  -2.139  0.00  0.00    +0.210 C 
BRANCH  19  20
ATOM     20  C   LIG    1        4.293  -3.772  -1.776  0.00  0.00    -0.020 C 
ATOM     21  C   LIG    1        3.248  -4.193  -2.475  0.00  0.00    +0.010 C 
BRANCH  21  22
ATOM     22  C   LIG    1        1.888  -3.736  -2.119  0.00  0.00    -0.060 A 
ATOM     23  C   LIG    1        0.786  -4.178  -2.853  0.00  0.00    +0.010 A 
ATOM     24  C   LIG    1       -0.480  -3.748  -2.515  0.00  0.00    +0.000 A 
ATOM     25  C   LIG    1       -0.660  -2.881  -1.452  0.00  0.00    +0.000 A 
ATOM     26  C   LIG    1        0.429  -2.440  -0.720  0.00  0.00    +0.000 A 
ATOM     27  C   LIG    1        1.701  -2.862  -1.048  0.00  0.00    +0.020 A 
ENDBRANCH  21  22
ENDBRANCH  19  20
ENDBRANCH   6  19
TORSDOF 4
