REMARK  Name = ZINCpe000000Tj9Q.0
REMARK                            x       y       z     vdW  Elec       q    Type
REMARK                         _______ _______ _______ _____ _____    ______ ____
ROOT
ATOM      1  N   LIG    1        0.002  -0.004   0.002  0.00  0.00    -0.510 N 
ATOM      2  C   LIG    1       -0.016   1.342   0.009  0.00  0.00    +0.710 A 
ATOM      3  N   LIG    1        1.118   2.063   0.003  0.00  0.00    -0.540 N 
ATOM      4  C   LIG    1        2.325   1.460  -0.011  0.00  0.00    +0.600 A 
ATOM      5  C   LIG    1        2.390   0.050  -0.021  0.00  0.00    -0.140 A 
ATOM      6  N   LIG    1        3.417  -0.873  -0.035  0.00  0.00    -0.390 N 
ATOM      7  C   LIG    1        2.849  -2.094  -0.036  0.00  0.00    +0.280 A 
ATOM      8  N   LIG    1        1.546  -1.975  -0.023  0.00  0.00    -0.480 NA
ATOM      9  O   LIG    1        3.346   2.124  -0.018  0.00  0.00    -0.490 OA
ATOM     10  O   LIG    1       -1.086   1.920   0.018  0.00  0.00    -0.530 OA
ATOM     11  C   LIG    1        1.210  -0.683  -0.013  0.00  0.00    +0.310 A 
ENDROOT
BRANCH   1  12
ATOM     12  C   LIG    1       -1.257  -0.753   0.011  0.00  0.00    +0.320 C 
BRANCH  12  13
ATOM     13  C   LIG    1       -1.710  -1.006  -1.429  0.00  0.00    +0.010 C 
BRANCH  13  15
ATOM     14  C   LIG    1       -3.478  -2.040  -2.860  0.00  0.00    +0.010 C 
ATOM     15  C   LIG    1       -3.025  -1.787  -1.420  0.00  0.00    +0.020 C 
ENDBRANCH  13  15
ENDBRANCH  12  13
ENDBRANCH   1  12
BRANCH   6  16
ATOM     16  C   LIG    1        4.853  -0.579  -0.047  0.00  0.00    +0.310 C 
BRANCH  16  17
ATOM     17  C   LIG    1        5.338  -0.468  -1.494  0.00  0.00    +0.010 C 
ATOM     18  C   LIG    1        6.837  -0.161  -1.506  0.00  0.00    +0.030 C 
ENDBRANCH  16  17
ENDBRANCH   6  16
BRANCH   7  19
ATOM     19  C   LIG    1        3.601  -3.400  -0.050  0.00  0.00    +0.320 C 
BRANCH  19  20
ATOM     20  O   LIG    1        3.826  -3.806  -1.402  0.00  0.00    -0.560 OA
ATOM     21  H   LIG    1        4.306  -4.641  -1.487  0.00  0.00    +0.390 HD
ENDBRANCH  19  20
ENDBRANCH   7  19
BRANCH   3  22
ATOM     22  C   LIG    1        1.043   3.526   0.011  0.00  0.00    +0.350 C 
BRANCH  22  23
ATOM     23  C   LIG    1        1.030   4.029   1.456  0.00  0.00    +0.110 C 
ATOM     24  C   LIG    1       -0.111   3.355   2.220  0.00  0.00    +0.020 C 
ATOM     25  C   LIG    1        0.827   5.545   1.467  0.00  0.00    +0.040 C 
BRANCH  23  26
ATOM     26  O   LIG    1        2.275   3.710   2.082  0.00  0.00    -0.550 OA
ATOM     27  H   LIG    1        2.338   4.000   3.002  0.00  0.00    +0.370 HD
ENDBRANCH  23  26
ENDBRANCH  22  23
ENDBRANCH   3  22
TORSDOF 10
