REMARK  Name = ZINCpk00000eaDGw.0
REMARK                            x       y       z     vdW  Elec       q    Type
REMARK                         _______ _______ _______ _____ _____    ______ ____
ROOT
ATOM      1  C   LIG    1        6.104   6.121  -3.688  0.00  0.00    +0.510 C 
ATOM      2  O   LIG    1        6.566   5.048  -4.021  0.00  0.00    -0.500 OA
ENDROOT
BRANCH   1   3
ATOM      3  C   LIG    1        6.694   7.372  -4.207  0.00  0.00    -0.120 A 
ATOM      4  C   LIG    1        6.162   8.607  -3.831  0.00  0.00    +0.090 A 
ATOM      5  C   LIG    1        6.722   9.771  -4.315  0.00  0.00    +0.030 A 
ATOM      6  C   LIG    1        7.800   9.717  -5.180  0.00  0.00    -0.070 A 
ATOM      7  C   LIG    1        8.329   8.496  -5.561  0.00  0.00    +0.030 A 
ATOM      8  C   LIG    1        7.783   7.324  -5.080  0.00  0.00    +0.090 A 
BRANCH   6   9
ATOM      9  C   LIG    1        8.402  10.993  -5.710  0.00  0.00    +0.330 C 
BRANCH   9  10
ATOM     10  N   LIG    1        7.732  11.368  -6.957  0.00  0.00    -0.740 N 
ATOM     11  H   LIG    1        7.018  10.814  -7.310  0.00  0.00    +0.400 HD
ATOM     12  C   LIG    1        8.107  12.484  -7.614  0.00  0.00    +0.710 C 
ATOM     13  O   LIG    1        9.001  13.178  -7.172  0.00  0.00    -0.590 OA
ATOM     14  N   LIG    1        7.490  12.829  -8.762  0.00  0.00    -0.870 N 
ATOM     15  H   LIG    1        7.760  13.631  -9.235  0.00  0.00    +0.420 HD
ATOM     16  H   LIG    1        6.776  12.274  -9.115  0.00  0.00    +0.400 HD
ENDBRANCH   9  10
ENDBRANCH   6   9
ENDBRANCH   1   3
BRANCH   1  17
ATOM     17  O   LIG    1        5.054   6.170  -2.846  0.00  0.00    -0.330 OA
BRANCH  17  18
ATOM     18  C   LIG    1        4.525   4.902  -2.377  0.00  0.00    +0.270 C 
BRANCH  18  21
ATOM     19  N   LIG    1        2.711   4.116  -0.890  0.00  0.00    -0.720 N 
ATOM     20  H   LIG    1        2.990   3.207  -1.082  0.00  0.00    +0.410 HD
ATOM     21  C   LIG    1        3.363   5.154  -1.451  0.00  0.00    +0.520 C 
ATOM     22  O   LIG    1        3.014   6.291  -1.211  0.00  0.00    -0.510 OA
BRANCH  19  24
ATOM     23  C   LIG    1        2.102   4.610   1.426  0.00  0.00    +0.040 C 
ATOM     24  C   LIG    1        1.581   4.361   0.009  0.00  0.00    +0.350 C 
BRANCH  24  25
ATOM     25  C   LIG    1        0.671   3.160   0.012  0.00  0.00    -0.030 A 
ATOM     26  C   LIG    1       -0.673   3.191   0.025  0.00  0.00    -0.040 A 
ATOM     27  C   LIG    1       -1.114   1.848   0.017  0.00  0.00    -0.060 A 
ATOM     28  C   LIG    1       -0.013   1.076   0.008  0.00  0.00    +0.180 A 
ATOM     29  O   LIG    1        1.066   1.876   0.002  0.00  0.00    -0.180 OA
ENDBRANCH  24  25
ENDBRANCH  19  24
ENDBRANCH  18  21
ENDBRANCH  17  18
ENDBRANCH   1  17
TORSDOF 8
