REMARK  Name = ZINCrD0000075rlz.0
REMARK                            x       y       z     vdW  Elec       q    Type
REMARK                         _______ _______ _______ _____ _____    ______ ____
ROOT
ATOM      1  C   LIG    1        3.065   1.442  -1.411  0.00  0.00    +0.470 C 
ATOM      2  O   LIG    1        3.325   0.418  -1.997  0.00  0.00    -0.490 OA
ENDROOT
BRANCH   1   3
ATOM      3  C   LIG    1        2.497   1.388  -0.016  0.00  0.00    +0.150 C 
ATOM      4  C   LIG    1        1.161   2.080   0.002  0.00  0.00    -0.160 A 
ATOM      5  C   LIG    1        1.115   3.463   0.011  0.00  0.00    +0.080 A 
ATOM      6  C   LIG    1       -0.102   4.118   0.026  0.00  0.00    -0.010 A 
ATOM      7  C   LIG    1       -1.279   3.393   0.032  0.00  0.00    +0.060 A 
ATOM      8  C   LIG    1       -1.238   2.013   0.019  0.00  0.00    +0.000 A 
ATOM      9  C   LIG    1       -0.016   1.350   0.009  0.00  0.00    +0.130 A 
ATOM     10  O   LIG    1        0.002  -0.004   0.002  0.00  0.00    -0.240 OA
ATOM     11  C   LIG    1        1.114  -0.671   0.393  0.00  0.00    +0.130 A 
ATOM     12  C   LIG    1        1.006  -2.000   0.786  0.00  0.00    +0.000 A 
ATOM     13  C   LIG    1        2.128  -2.698   1.187  0.00  0.00    +0.060 A 
ATOM     14  C   LIG    1        3.362  -2.074   1.199  0.00  0.00    -0.010 A 
ATOM     15  C   LIG    1        3.473  -0.753   0.809  0.00  0.00    +0.070 A 
ATOM     16  C   LIG    1        2.352  -0.049   0.406  0.00  0.00    -0.140 A 
ENDBRANCH   1   3
BRANCH   1  17
ATOM     17  O   LIG    1        3.283   2.628  -2.001  0.00  0.00    -0.330 OA
BRANCH  17  18
ATOM     18  C   LIG    1        3.833   2.604  -3.345  0.00  0.00    +0.260 C 
BRANCH  18  20
ATOM     19  O   LIG    1        3.700   4.951  -3.131  0.00  0.00    -0.510 OA
ATOM     20  C   LIG    1        4.008   4.016  -3.841  0.00  0.00    +0.520 C 
ATOM     21  N   LIG    1        4.507   4.241  -5.072  0.00  0.00    -0.730 N 
ATOM     22  H   LIG    1        4.753   3.493  -5.640  0.00  0.00    +0.410 HD
BRANCH  21  23
ATOM     23  C   LIG    1        4.677   5.613  -5.555  0.00  0.00    +0.400 C 
BRANCH  23  24
ATOM     24  C   LIG    1        5.247   5.589  -6.949  0.00  0.00    -0.050 A 
ATOM     25  C   LIG    1        4.535   5.551  -8.090  0.00  0.00    -0.030 A 
ATOM     26  C   LIG    1        5.466   5.542  -9.154  0.00  0.00    -0.070 A 
ATOM     27  C   LIG    1        6.691   5.567  -8.600  0.00  0.00    +0.190 A 
ATOM     28  O   LIG    1        6.553   5.595  -7.264  0.00  0.00    -0.170 OA
ENDBRANCH  23  24
ENDBRANCH  21  23
ENDBRANCH  18  20
ENDBRANCH  17  18
ENDBRANCH   1  17
TORSDOF 6
