REMARK  Name = ZINCrD00000l9xM0.0
REMARK                            x       y       z     vdW  Elec       q    Type
REMARK                         _______ _______ _______ _____ _____    ______ ____
ROOT
ATOM      1  N   LIG    1       -4.343   4.555  -3.433  0.00  0.00    -0.630 N 
ATOM      2  C   LIG    1       -4.031   4.497  -2.123  0.00  0.00    +0.710 C 
ATOM      3  N   LIG    1       -2.891   3.896  -1.728  0.00  0.00    -0.740 N 
ATOM      4  H   LIG    1       -2.295   3.506  -2.387  0.00  0.00    +0.400 HD
ATOM      5  O   LIG    1       -4.778   4.985  -1.298  0.00  0.00    -0.580 OA
ATOM      6  C   LIG    1       -3.443   3.966  -4.428  0.00  0.00    +0.290 C 
ENDROOT
BRANCH   1   7
ATOM      7  C   LIG    1       -5.582   5.207  -3.862  0.00  0.00    +0.360 C 
BRANCH   7  12
ATOM      8  C   LIG    1       -4.689   8.436  -5.611  0.00  0.00    +0.120 A 
ATOM      9  C   LIG    1       -4.834   9.355  -4.582  0.00  0.00    -0.070 A 
ATOM     10  C   LIG    1       -5.220   8.928  -3.326  0.00  0.00    +0.050 A 
ATOM     11  C   LIG    1       -5.467   7.588  -3.096  0.00  0.00    +0.000 A 
ATOM     12  C   LIG    1       -5.318   6.669  -4.119  0.00  0.00    -0.070 A 
ATOM     13  C   LIG    1       -4.932   7.090  -5.376  0.00  0.00    -0.010 A 
BRANCH   8  15
ATOM     14  C   LIG    1       -4.077  10.253  -7.017  0.00  0.00    +0.240 C 
ATOM     15  O   LIG    1       -4.310   8.853  -6.848  0.00  0.00    -0.320 OA
ENDBRANCH   8  15
ENDBRANCH   7  12
ENDBRANCH   1   7
BRANCH   3  16
ATOM     16  C   LIG    1       -2.551   3.833  -0.304  0.00  0.00    +0.340 C 
BRANCH  16  17
ATOM     17  C   LIG    1       -1.237   3.116  -0.133  0.00  0.00    -0.090 A 
ATOM     18  C   LIG    1       -1.216   1.743   0.033  0.00  0.00    +0.020 A 
ATOM     19  C   LIG    1       -0.012   1.082   0.197  0.00  0.00    +0.030 A 
ATOM     20  C   LIG    1        1.174   1.790   0.184  0.00  0.00    +0.030 A 
ATOM     21  C   LIG    1        1.156   3.168   0.013  0.00  0.00    +0.140 A 
ATOM     22  C   LIG    1       -0.055   3.830  -0.146  0.00  0.00    +0.000 A 
BRANCH  21  23
ATOM     23  N   LIG    1        2.355   3.889  -0.001  0.00  0.00    -0.670 N 
ATOM     24  H   LIG    1        2.383   4.791   0.355  0.00  0.00    +0.410 HD
ATOM     25  C   LIG    1        3.472   3.329  -0.507  0.00  0.00    +0.540 C 
ATOM     26  O   LIG    1        3.417   2.240  -1.038  0.00  0.00    -0.520 OA
BRANCH  25  27
ATOM     27  C   LIG    1        4.788   4.057  -0.415  0.00  0.00    -0.070 C 
ATOM     28  C   LIG    1        5.401   4.577  -1.716  0.00  0.00    +0.060 C 
ATOM     29  C   LIG    1        6.019   3.369  -1.009  0.00  0.00    +0.080 C 
ENDBRANCH  25  27
ENDBRANCH  21  23
ENDBRANCH  16  17
ENDBRANCH   3  16
TORSDOF 7
