REMARK  Name = ZINCqH0000005XRM.0
REMARK                            x       y       z     vdW  Elec       q    Type
REMARK                         _______ _______ _______ _____ _____    ______ ____
ROOT
ATOM      1  S   LIG    1       -3.793   1.960  -0.689  0.00  0.00    +2.690 S 
ATOM      2  O   LIG    1       -3.717   3.315  -0.269  0.00  0.00    -0.940 OA
ATOM      3  O   LIG    1       -4.932   1.140  -0.467  0.00  0.00    -0.930 OA
ENDROOT
BRANCH   1   4
ATOM      4  C   LIG    1       -3.512   1.961  -2.428  0.00  0.00    -0.660 A 
ATOM      5  C   LIG    1       -3.322   3.156  -3.096  0.00  0.00    +0.150 A 
ATOM      6  C   LIG    1       -3.096   3.157  -4.460  0.00  0.00    +0.050 A 
ATOM      7  C   LIG    1       -3.072   1.964  -5.158  0.00  0.00    -0.120 A 
ATOM      8  C   LIG    1       -3.268   0.769  -4.490  0.00  0.00    +0.060 A 
ATOM      9  C   LIG    1       -3.488   0.768  -3.126  0.00  0.00    +0.020 A 
ATOM     10  C   LIG    1       -3.702  -0.535  -2.398  0.00  0.00    +0.120 C 
BRANCH   7  11
ATOM     11  C   LIG    1       -2.832   1.966  -6.645  0.00  0.00    +0.510 C 
ATOM     12  F   LIG    1       -2.189   0.779  -7.015  0.00  0.00    -0.170 F 
ATOM     13  F   LIG    1       -2.026   3.058  -6.986  0.00  0.00    -0.170 F 
ATOM     14  F   LIG    1       -4.056   2.062  -7.316  0.00  0.00    -0.170 F 
ENDBRANCH   7  11
ENDBRANCH   1   4
BRANCH   1  15
ATOM     15  N   LIG    1       -2.512   1.180   0.014  0.00  0.00    -1.050 N 
ATOM     16  H   LIG    1       -2.662   0.380   0.543  0.00  0.00    +0.440 HD
BRANCH  15  20
ATOM     17  C   LIG    1        1.350   2.650  -0.496  0.00  0.00    -0.110 A 
ATOM     18  C   LIG    1        0.272   3.533  -0.386  0.00  0.00    +0.130 A 
ATOM     19  C   LIG    1       -1.003   3.043  -0.214  0.00  0.00    +0.020 A 
ATOM     20  C   LIG    1       -1.221   1.671  -0.155  0.00  0.00    +0.160 A 
ATOM     21  C   LIG    1       -0.148   0.786  -0.259  0.00  0.00    +0.070 A 
ATOM     22  F   LIG    1       -0.363  -0.546  -0.195  0.00  0.00    -0.120 F 
ATOM     23  C   LIG    1        1.130   1.270  -0.431  0.00  0.00    +0.100 A 
BRANCH  17  24
ATOM     24  C   LIG    1        2.716   3.171  -0.681  0.00  0.00    +0.510 C 
ATOM     25  O   LIG    1        3.653   2.403  -0.776  0.00  0.00    -0.500 OA
BRANCH  24  27
ATOM     26  C   LIG    1        4.298   4.943  -0.926  0.00  0.00    +0.290 C 
ATOM     27  O   LIG    1        2.927   4.501  -0.743  0.00  0.00    -0.350 OA
ENDBRANCH  24  27
ENDBRANCH  17  24
ENDBRANCH  15  20
ENDBRANCH   1  15
TORSDOF 6
