REMARK  Name = ZINCvU0000000Drd.0
REMARK                            x       y       z     vdW  Elec       q    Type
REMARK                         _______ _______ _______ _____ _____    ______ ____
ROOT
ATOM      1  C   LIG    1        1.155   3.191   0.008  0.00  0.00    -0.130 A 
ATOM      2  C   LIG    1       -0.073   3.857   0.024  0.00  0.00    +0.070 A 
ATOM      3  C   LIG    1       -1.247   3.134   0.031  0.00  0.00    -0.010 A 
ATOM      4  C   LIG    1       -1.217   1.749   0.017  0.00  0.00    +0.060 A 
ATOM      5  C   LIG    1       -0.013   1.076   0.008  0.00  0.00    -0.020 A 
ATOM      6  C   LIG    1        1.182   1.786   0.000  0.00  0.00    -0.050 A 
ENDROOT
BRANCH   1   8
ATOM      7  O   LIG    1        3.481   3.374  -0.012  0.00  0.00    -0.510 OA
ATOM      8  C   LIG    1        2.414   3.957   0.001  0.00  0.00    +0.550 C 
ATOM      9  N   LIG    1        2.382   5.305   0.008  0.00  0.00    -0.730 N 
ATOM     10  H   LIG    1        1.531   5.770   0.019  0.00  0.00    +0.400 HD
BRANCH   9  11
ATOM     11  C   LIG    1        3.634   6.066   0.001  0.00  0.00    +0.270 C 
BRANCH  11  12
ATOM     12  C   LIG    1        3.319   7.564   0.012  0.00  0.00    +0.110 C 
BRANCH  12  13
ATOM     13  C   LIG    1        4.607   8.347   0.004  0.00  0.00    -0.170 A 
ATOM     14  C   LIG    1        5.247   8.842   1.075  0.00  0.00    +0.230 A 
ATOM     15  N   LIG    1        6.384   9.492   0.680  0.00  0.00    -0.590 N 
ATOM     16  H   LIG    1        7.012   9.929   1.277  0.00  0.00    +0.420 HD
ATOM     17  C   LIG    1        6.502   9.438  -0.690  0.00  0.00    +0.090 A 
ATOM     18  C   LIG    1        7.442   9.929  -1.591  0.00  0.00    -0.010 A 
ATOM     19  C   LIG    1        7.277   9.706  -2.941  0.00  0.00    +0.030 A 
ATOM     20  C   LIG    1        6.182   8.996  -3.413  0.00  0.00    -0.020 A 
ATOM     21  C   LIG    1        5.247   8.505  -2.546  0.00  0.00    +0.050 A 
ATOM     22  C   LIG    1        5.394   8.719  -1.174  0.00  0.00    -0.100 A 
ENDBRANCH  12  13
ENDBRANCH  11  12
ENDBRANCH   9  11
ENDBRANCH   1   8
BRANCH   6  23
ATOM     23  S   LIG    1        2.722   0.930  -0.019  0.00  0.00    +0.030 S 
BRANCH  23  24
ATOM     24  C   LIG    1        2.220  -0.813  -0.025  0.00  0.00    +0.120 C 
BRANCH  24  25
ATOM     25  C   LIG    1        3.446  -1.688  -0.042  0.00  0.00    +0.080 A 
ATOM     26  C   LIG    1        4.074  -2.145  -1.148  0.00  0.00    +0.110 A 
ATOM     27  N   LIG    1        5.136  -2.898  -0.728  0.00  0.00    -0.360 N 
ATOM     28  C   LIG    1        6.101  -3.589  -1.401  0.00  0.00    +0.220 A 
ATOM     29  C   LIG    1        7.054  -4.270  -0.730  0.00  0.00    +0.010 A 
ATOM     30  C   LIG    1        7.064  -4.276   0.674  0.00  0.00    +0.040 A 
ATOM     31  C   LIG    1        6.108  -3.591   1.358  0.00  0.00    +0.070 A 
ATOM     32  C   LIG    1        5.120  -2.885   0.643  0.00  0.00    +0.230 A 
ATOM     33  N   LIG    1        4.090  -2.148   1.034  0.00  0.00    -0.480 NA
ENDBRANCH  24  25
ENDBRANCH  23  24
ENDBRANCH   6  23
TORSDOF 7
