REMARK  Name = ZINCpk00000xIiMe.2
REMARK                            x       y       z     vdW  Elec       q    Type
REMARK                         _______ _______ _______ _____ _____    ______ ____
ROOT
ATOM      1  C   LIG    1       -1.447   9.002   1.285  0.00  0.00    +0.290 C 
ENDROOT
BRANCH   1   2
ATOM      2  C   LIG    1       -1.771   8.952  -0.186  0.00  0.00    -0.260 A 
ATOM      3  C   LIG    1       -0.948   9.312  -1.195  0.00  0.00    +0.250 A 
ATOM      4  N   LIG    1       -1.605   9.120  -2.358  0.00  0.00    -0.470 N 
ATOM      5  H   LIG    1       -1.255   9.296  -3.246  0.00  0.00    +0.440 HD
ATOM      6  N   LIG    1       -2.881   8.623  -2.062  0.00  0.00    -0.270 NA
ATOM      7  C   LIG    1       -2.983   8.515  -0.754  0.00  0.00    +0.120 A 
BRANCH   7   8
ATOM      8  C   LIG    1       -4.169   8.022  -0.009  0.00  0.00    -0.050 A 
ATOM      9  C   LIG    1       -4.659   8.739   1.079  0.00  0.00    +0.070 A 
ATOM     10  C   LIG    1       -5.761   8.276   1.769  0.00  0.00    +0.020 A 
ATOM     11  C   LIG    1       -6.381   7.102   1.381  0.00  0.00    +0.060 A 
ATOM     12  C   LIG    1       -5.900   6.384   0.301  0.00  0.00    -0.010 A 
ATOM     13  C   LIG    1       -4.800   6.840  -0.400  0.00  0.00    +0.120 A 
ATOM     14  F   LIG    1       -4.334   6.141  -1.458  0.00  0.00    -0.130 F 
ENDBRANCH   7   8
ENDBRANCH   1   2
BRANCH   1  18
ATOM     15  C   LIG    1       -1.007   5.326   1.320  0.00  0.00    +0.120 C 
ATOM     16  C   LIG    1        0.447   5.823   1.177  0.00  0.00    +0.020 C 
ATOM     17  C   LIG    1        0.337   7.359   1.069  0.00  0.00    +0.170 C 
ATOM     18  N   LIG    1       -0.956   7.689   1.723  0.00  0.00    -0.490 NA
ATOM     19  C   LIG    1       -1.874   6.603   1.288  0.00  0.00    +0.220 C 
BRANCH  15  20
ATOM     20  O   LIG    1       -1.178   4.641   2.562  0.00  0.00    -0.540 OA
ATOM     21  H   LIG    1       -0.640   3.842   2.647  0.00  0.00    +0.370 HD
ENDBRANCH  15  20
BRANCH  15  22
ATOM     22  C   LIG    1       -1.372   4.407   0.152  0.00  0.00    +0.300 C 
BRANCH  22  23
ATOM     23  N   LIG    1       -0.515   3.219   0.180  0.00  0.00    -0.290 N 
ATOM     24  C   LIG    1       -0.942   1.935   0.195  0.00  0.00    +0.140 A 
ATOM     25  C   LIG    1        0.173   1.167   0.223  0.00  0.00    +0.140 A 
ATOM     26  N   LIG    1        1.213   2.009   0.214  0.00  0.00    -0.270 NA
ATOM     27  N   LIG    1        0.772   3.216   0.190  0.00  0.00    -0.090 NA
ENDBRANCH  22  23
ENDBRANCH  15  22
ENDBRANCH   1  18
TORSDOF 6
