REMARK  Name = ZINCpk00000KfKn9.0
REMARK                            x       y       z     vdW  Elec       q    Type
REMARK                         _______ _______ _______ _____ _____    ______ ____
ROOT
ATOM      1  C   LIG    1        1.163   1.831   0.028  0.00  0.00    +0.350 C 
ENDROOT
BRANCH   1   6
ATOM      2  N   LIG    1       -2.333   0.704   0.130  0.00  0.00    -0.870 N 
ATOM      3  H   LIG    1       -3.222   1.093   0.134  0.00  0.00    +0.420 HD
ATOM      4  H   LIG    1       -2.223  -0.257   0.201  0.00  0.00    +0.400 HD
ATOM      5  C   LIG    1       -1.251   1.501   0.026  0.00  0.00    +0.700 C 
ATOM      6  N   LIG    1       -0.015   0.961   0.021  0.00  0.00    -0.730 N 
ATOM      7  H   LIG    1        0.093  -0.003   0.009  0.00  0.00    +0.400 HD
ATOM      8  O   LIG    1       -1.388   2.705  -0.063  0.00  0.00    -0.580 OA
ENDBRANCH   1   6
BRANCH   1   9
ATOM      9  C   LIG    1        1.192   2.649  -1.238  0.00  0.00    -0.080 A 
ATOM     10  C   LIG    1        0.653   2.137  -2.403  0.00  0.00    +0.040 A 
ATOM     11  C   LIG    1        0.674   2.889  -3.563  0.00  0.00    +0.020 A 
ATOM     12  C   LIG    1        1.243   4.149  -3.561  0.00  0.00    +0.040 A 
ATOM     13  C   LIG    1        1.787   4.659  -2.395  0.00  0.00    -0.090 A 
ATOM     14 BR   LIG    1        2.566   6.382  -2.390  0.00  0.00    -0.050 Br
ATOM     15  C   LIG    1        1.761   3.909  -1.234  0.00  0.00    +0.050 A 
ENDBRANCH   1   9
BRANCH   1  16
ATOM     16  C   LIG    1        1.101   2.765   1.238  0.00  0.00    +0.080 C 
BRANCH  16  17
ATOM     17  C   LIG    1        1.197   1.954   2.504  0.00  0.00    +0.520 C 
ATOM     18  N   LIG    1        1.163   2.569   3.703  0.00  0.00    -0.520 N 
ATOM     19  H   LIG    1        1.077   3.534   3.750  0.00  0.00    +0.430 HD
ATOM     20  O   LIG    1        1.304   0.747   2.445  0.00  0.00    -0.540 OA
BRANCH  18  21
ATOM     21  N   LIG    1        1.252   1.815   4.880  0.00  0.00    -0.520 N 
ATOM     22  H   LIG    1        1.338   0.850   4.833  0.00  0.00    +0.430 HD
ATOM     23  C   LIG    1        1.218   2.431   6.079  0.00  0.00    +0.560 C 
ATOM     24  O   LIG    1        1.110   3.640   6.138  0.00  0.00    -0.520 OA
BRANCH  23  25
ATOM     25  C   LIG    1        1.312   1.633   7.324  0.00  0.00    -0.080 A 
ATOM     26  C   LIG    1        1.430   0.241   7.278  0.00  0.00    +0.000 A 
ATOM     27  C   LIG    1        1.520  -0.463   8.463  0.00  0.00    +0.270 A 
ATOM     28  N   LIG    1        1.484   0.160   9.624  0.00  0.00    -0.460 NA
ATOM     29  C   LIG    1        1.369   1.470   9.713  0.00  0.00    +0.270 A 
ATOM     30  C   LIG    1        1.279   2.252   8.577  0.00  0.00    +0.040 A 
ENDBRANCH  23  25
ENDBRANCH  18  21
ENDBRANCH  16  17
ENDBRANCH   1  16
TORSDOF 6
