REMARK  Name = ZINCtV00000L6klC.0
REMARK                            x       y       z     vdW  Elec       q    Type
REMARK                         _______ _______ _______ _____ _____    ______ ____
ROOT
ATOM      1  C   LIG    1       -1.222  -0.743  -0.065  0.00  0.00    +0.440 C 
ENDROOT
BRANCH   1   3
ATOM      2  O   LIG    1       -1.604  -3.028   0.365  0.00  0.00    -0.460 OA
ATOM      3  C   LIG    1       -0.865  -2.205  -0.123  0.00  0.00    +0.450 C 
BRANCH   3   4
ATOM      4  O   LIG    1        0.274  -2.595  -0.717  0.00  0.00    -0.330 OA
BRANCH   4   5
ATOM      5  C   LIG    1        0.554  -4.020  -0.736  0.00  0.00    +0.310 C 
BRANCH   5   6
ATOM      6  C   LIG    1        1.864  -4.265  -1.439  0.00  0.00    -0.080 A 
ATOM      7  C   LIG    1        2.585  -3.201  -1.946  0.00  0.00    +0.080 A 
ATOM      8  C   LIG    1        3.790  -3.425  -2.586  0.00  0.00    +0.050 A 
ATOM      9  C   LIG    1        4.269  -4.715  -2.729  0.00  0.00    -0.020 A 
ATOM     10  C   LIG    1        3.545  -5.781  -2.225  0.00  0.00    +0.050 A 
ATOM     11 CL   LIG    1        5.779  -4.996  -3.538  0.00  0.00    -0.050 Cl
ATOM     12  C   LIG    1        2.342  -5.556  -1.581  0.00  0.00    -0.020 A 
ATOM     13 CL   LIG    1        1.432  -6.893  -0.950  0.00  0.00    -0.050 Cl
ENDBRANCH   5   6
ENDBRANCH   4   5
ENDBRANCH   3   4
ENDBRANCH   1   3
BRANCH   1  14
ATOM     14  O   LIG    1       -1.993  -0.487   1.111  0.00  0.00    -0.300 OA
BRANCH  14  15
ATOM     15  C   LIG    1       -2.619   0.717   1.189  0.00  0.00    +0.120 A 
ATOM     16  C   LIG    1       -2.404   1.676   0.210  0.00  0.00    -0.040 A 
ATOM     17  C   LIG    1       -3.045   2.897   0.289  0.00  0.00    +0.070 A 
ATOM     18  C   LIG    1       -3.892   3.168   1.349  0.00  0.00    -0.060 A 
ATOM     19  C   LIG    1       -4.104   2.215   2.329  0.00  0.00    +0.070 A 
ATOM     20 CL   LIG    1       -4.691   4.707   1.449  0.00  0.00    -0.060 Cl
ATOM     21  C   LIG    1       -3.469   0.990   2.251  0.00  0.00    +0.020 A 
ENDBRANCH  14  15
ENDBRANCH   1  14
BRANCH   1  22
ATOM     22  O   LIG    1       -0.026   0.039  -0.029  0.00  0.00    -0.300 OA
BRANCH  22  23
ATOM     23  C   LIG    1        0.854  -0.226   0.972  0.00  0.00    +0.130 A 
ATOM     24  C   LIG    1        0.521  -1.131   1.969  0.00  0.00    -0.050 A 
ATOM     25  C   LIG    1        1.419  -1.402   2.983  0.00  0.00    +0.070 A 
ATOM     26  C   LIG    1        2.646  -0.764   3.010  0.00  0.00    -0.060 A 
ATOM     27  C   LIG    1        2.979   0.142   2.020  0.00  0.00    +0.070 A 
ATOM     28 CL   LIG    1        3.770  -1.102   4.290  0.00  0.00    -0.060 Cl
ATOM     29  C   LIG    1        2.085   0.412   1.001  0.00  0.00    +0.020 A 
ENDBRANCH  22  23
ENDBRANCH   1  22
TORSDOF 8
