REMARK  Name = ZINCrD00000F5LyJ.0
REMARK                            x       y       z     vdW  Elec       q    Type
REMARK                         _______ _______ _______ _____ _____    ______ ____
ROOT
ATOM      1  C   LIG    1       -1.747  -2.366  -3.346  0.00  0.00    -0.010 C 
ATOM      2  C   LIG    1       -1.347  -3.487  -3.995  0.00  0.00    +0.160 C 
ENDROOT
BRANCH   2   3
ATOM      3  C   LIG    1       -1.766  -3.722  -5.328  0.00  0.00    +0.230 A 
ATOM      4  N   LIG    1       -2.543  -2.936  -6.058  0.00  0.00    -0.240 NA
ATOM      5  N   LIG    1       -2.721  -3.455  -7.221  0.00  0.00    -0.250 NA
ATOM      6  C   LIG    1       -2.068  -4.603  -7.305  0.00  0.00    +0.180 A 
ATOM      7  C   LIG    1       -1.912  -5.602  -8.362  0.00  0.00    +0.010 A 
ATOM      8  C   LIG    1       -1.116  -6.741  -8.092  0.00  0.00    -0.110 A 
ATOM      9  C   LIG    1       -0.490  -6.865  -6.778  0.00  0.00    +0.400 A 
ATOM     10  N   LIG    1       -0.666  -5.942  -5.877  0.00  0.00    -0.260 NA
ATOM     11  C   LIG    1       -0.949  -7.712  -9.082  0.00  0.00    +0.080 A 
ATOM     12  C   LIG    1       -1.556  -7.549 -10.296  0.00  0.00    +0.030 A 
ATOM     13  C   LIG    1       -2.337  -6.431 -10.559  0.00  0.00    +0.060 A 
ATOM     14  C   LIG    1       -2.519  -5.464  -9.611  0.00  0.00    +0.070 A 
ATOM     15  N   LIG    1       -1.437  -4.804  -6.108  0.00  0.00    -0.310 N 
ENDBRANCH   2   3
BRANCH   1  17
ATOM     16  N   LIG    1       -1.726  -1.018  -1.367  0.00  0.00    -0.600 N 
ATOM     17  C   LIG    1       -1.328  -2.132  -2.013  0.00  0.00    +0.550 C 
ATOM     18  O   LIG    1       -0.608  -2.937  -1.450  0.00  0.00    -0.540 OA
BRANCH  16  20
ATOM     19  C   LIG    1       -1.730   0.987  -2.769  0.00  0.00    +0.020 C 
ATOM     20  C   LIG    1       -2.592  -0.049  -2.044  0.00  0.00    +0.270 C 
ENDBRANCH  16  20
BRANCH  16  21
ATOM     21  C   LIG    1       -1.293  -0.775   0.011  0.00  0.00    +0.330 C 
BRANCH  21  22
ATOM     22  C   LIG    1        0.002  -0.004   0.002  0.00  0.00    -0.110 A 
ATOM     23  C   LIG    1       -0.017   1.378   0.010  0.00  0.00    +0.010 A 
ATOM     24  C   LIG    1        1.171   2.086   0.002  0.00  0.00    -0.010 A 
ATOM     25  C   LIG    1        2.377   1.411  -0.015  0.00  0.00    +0.000 A 
ATOM     26  C   LIG    1        2.396   0.029  -0.022  0.00  0.00    +0.000 A 
ATOM     27  C   LIG    1        1.208  -0.679  -0.013  0.00  0.00    +0.030 A 
ENDBRANCH  21  22
ENDBRANCH  16  21
ENDBRANCH   1  17
TORSDOF 5
