REMARK  Name = ZINCqH0000002TJx.0
REMARK                            x       y       z     vdW  Elec       q    Type
REMARK                         _______ _______ _______ _____ _____    ______ ____
ROOT
ATOM      1  C   LIG    1       -1.498  -1.310  -1.421  0.00  0.00    +0.500 C 
ATOM      2  N   LIG    1       -2.657  -1.959  -1.649  0.00  0.00    -0.660 N 
ATOM      3  H   LIG    1       -3.178  -2.297  -0.904  0.00  0.00    +0.420 HD
ATOM      4  O   LIG    1       -0.799  -0.972  -2.353  0.00  0.00    -0.500 OA
ENDROOT
BRANCH   2   5
ATOM      5  C   LIG    1       -3.107  -2.146  -2.960  0.00  0.00    +0.150 A 
ATOM      6  C   LIG    1       -2.851  -1.182  -3.927  0.00  0.00    +0.020 A 
ATOM      7  C   LIG    1       -3.289  -1.366  -5.221  0.00  0.00    +0.060 A 
ATOM      8  C   LIG    1       -4.002  -2.518  -5.562  0.00  0.00    -0.070 A 
ATOM      9  C   LIG    1       -4.260  -3.478  -4.585  0.00  0.00    -0.070 A 
ATOM     10  C   LIG    1       -5.037  -4.594  -5.239  0.00  0.00    +0.160 C 
ATOM     11  C   LIG    1       -5.206  -4.193  -6.684  0.00  0.00    -0.090 A 
ATOM     12  C   LIG    1       -5.824  -4.812  -7.750  0.00  0.00    +0.030 A 
ATOM     13  C   LIG    1       -5.828  -4.207  -8.995  0.00  0.00    +0.020 A 
ATOM     14  C   LIG    1       -5.214  -2.981  -9.172  0.00  0.00    +0.010 A 
ATOM     15  C   LIG    1       -4.593  -2.354  -8.111  0.00  0.00    +0.020 A 
ATOM     16  C   LIG    1       -4.584  -2.959  -6.853  0.00  0.00    -0.060 A 
ATOM     17  C   LIG    1       -3.817  -3.294  -3.294  0.00  0.00    +0.010 A 
ENDBRANCH   2   5
BRANCH   1  18
ATOM     18  C   LIG    1       -1.071  -1.003  -0.009  0.00  0.00    +0.390 C 
BRANCH  18  25
ATOM     19  C   LIG    1        1.453  -0.885   0.010  0.00  0.00    +0.290 A 
ATOM     20  N   LIG    1        2.356   0.042  -0.024  0.00  0.00    -0.270 NA
ATOM     21  N   LIG    1        1.705   1.282  -0.086  0.00  0.00    -0.470 N 
ATOM     22  H   LIG    1        2.130   2.153  -0.121  0.00  0.00    +0.470 HD
ATOM     23  C   LIG    1        0.378   1.039  -0.087  0.00  0.00    +0.480 A 
ATOM     24  S   LIG    1       -0.868   2.212  -0.159  0.00  0.00    -0.570 S 
ATOM     25  N   LIG    1        0.212  -0.298  -0.029  0.00  0.00    -0.480 N 
BRANCH  19  26
ATOM     26  C   LIG    1        1.720  -2.367   0.079  0.00  0.00    +0.150 C 
BRANCH  26  28
ATOM     27  C   LIG    1        3.501  -4.116   0.175  0.00  0.00    +0.030 C 
ATOM     28  C   LIG    1        3.230  -2.612   0.105  0.00  0.00    +0.040 C 
ENDBRANCH  26  28
ENDBRANCH  19  26
ENDBRANCH  18  25
ENDBRANCH   1  18
TORSDOF 5
