REMARK  Name = ZINCkj00000GeRiN.0
REMARK                            x       y       z     vdW  Elec       q    Type
REMARK                         _______ _______ _______ _____ _____    ______ ____
ROOT
ATOM      1  N   LIG    1       -1.097  -0.516  -0.820  0.00  0.00    -0.750 N 
ATOM      2  H   LIG    1       -0.948  -0.724  -1.755  0.00  0.00    +0.400 HD
ATOM      3  C   LIG    1       -2.317  -0.699  -0.276  0.00  0.00    +0.700 C 
ATOM      4  N   LIG    1       -3.328  -1.170  -1.032  0.00  0.00    -0.740 N 
ATOM      5  H   LIG    1       -3.178  -1.378  -1.967  0.00  0.00    +0.400 HD
ATOM      6  O   LIG    1       -2.505  -0.438   0.897  0.00  0.00    -0.580 OA
ENDROOT
BRANCH   4   7
ATOM      7  C   LIG    1       -4.654  -1.369  -0.440  0.00  0.00    +0.250 C 
ATOM      8  C   LIG    1       -5.432  -0.052  -0.480  0.00  0.00    +0.000 C 
ATOM      9  C   LIG    1       -6.817  -0.259   0.137  0.00  0.00    +0.020 C 
ATOM     10  C   LIG    1       -7.575  -1.325  -0.657  0.00  0.00    -0.010 C 
ATOM     11  C   LIG    1       -6.797  -2.641  -0.617  0.00  0.00    +0.030 C 
ATOM     12  C   LIG    1       -5.412  -2.434  -1.235  0.00  0.00    +0.020 C 
BRANCH  10  13
ATOM     13  C   LIG    1       -8.960  -1.532  -0.040  0.00  0.00    +0.180 C 
BRANCH  13  14
ATOM     14  O   LIG    1       -9.728  -0.336  -0.181  0.00  0.00    -0.570 OA
ATOM     15  H   LIG    1      -10.620  -0.395   0.189  0.00  0.00    +0.380 HD
ENDBRANCH  13  14
ENDBRANCH  10  13
ENDBRANCH   4   7
BRANCH   1  19
ATOM     16  C   LIG    1        2.107   0.881  -0.942  0.00  0.00    +0.170 C 
ATOM     17  C   LIG    1        1.477   1.939  -0.002  0.00  0.00    +0.050 C 
ATOM     18  C   LIG    1       -0.019   1.538   0.011  0.00  0.00    +0.050 C 
ATOM     19  C   LIG    1        0.002  -0.004   0.002  0.00  0.00    +0.280 C 
ATOM     20  C   LIG    1        1.353  -0.422  -0.604  0.00  0.00    +0.050 C 
BRANCH  16  22
ATOM     21  C   LIG    1        4.087  -0.360  -1.483  0.00  0.00    +0.320 C 
ATOM     22  N   LIG    1        3.542   0.732  -0.666  0.00  0.00    -0.380 N 
ATOM     23  C   LIG    1        4.236   1.984  -0.996  0.00  0.00    +0.320 C 
ATOM     24  H   LIG    1        3.676   0.520   0.311  0.00  0.00    +0.430 HD
ENDBRANCH  16  22
ENDBRANCH   1  19
TORSDOF 5
