REMARK  Name = ZINCvU0000000AvC.0
REMARK                            x       y       z     vdW  Elec       q    Type
REMARK                         _______ _______ _______ _____ _____    ______ ____
ROOT
ATOM      1  C   LIG    1       -1.492   3.743   2.360  0.00  0.00    +0.220 C 
ENDROOT
BRANCH   1   5
ATOM      2  N   LIG    1       -0.724   1.573  -1.182  0.00  0.00    -0.480 N 
ATOM      3  C   LIG    1        0.131   1.312  -0.015  0.00  0.00    +0.200 C 
ATOM      4  C   LIG    1       -0.580   1.793   1.252  0.00  0.00    +0.190 C 
ATOM      5  N   LIG    1       -0.877   3.227   1.130  0.00  0.00    -0.530 NA
ATOM      6  C   LIG    1       -1.732   3.488  -0.036  0.00  0.00    +0.180 C 
ATOM      7  C   LIG    1       -1.021   3.007  -1.304  0.00  0.00    +0.190 C 
BRANCH   2  13
ATOM      8  C   LIG    1        0.025  -0.292  -2.530  0.00  0.00    +0.120 A 
ATOM      9  C   LIG    1        0.605  -0.773  -3.692  0.00  0.00    -0.060 A 
ATOM     10  C   LIG    1        1.023   0.108  -4.673  0.00  0.00    +0.020 A 
ATOM     11  C   LIG    1        0.862   1.470  -4.498  0.00  0.00    -0.010 A 
ATOM     12  C   LIG    1        0.278   1.958  -3.344  0.00  0.00    +0.000 A 
ATOM     13  C   LIG    1       -0.138   1.081  -2.354  0.00  0.00    +0.080 A 
BRANCH   8  14
ATOM     14  O   LIG    1       -0.385  -1.157  -1.564  0.00  0.00    -0.300 OA
BRANCH  14  16
ATOM     15  C   LIG    1       -0.706  -3.360  -0.624  0.00  0.00    +0.070 C 
ATOM     16  C   LIG    1       -0.186  -2.550  -1.814  0.00  0.00    +0.170 C 
ENDBRANCH  14  16
ENDBRANCH   8  14
ENDBRANCH   2  13
ENDBRANCH   1   5
BRANCH   1  17
ATOM     17  C   LIG    1       -0.493   3.682   3.486  0.00  0.00    -0.080 A 
ATOM     18  C   LIG    1       -0.416   2.552   4.280  0.00  0.00    +0.020 A 
ATOM     19  C   LIG    1        0.503   2.491   5.310  0.00  0.00    -0.090 A 
ATOM     20  C   LIG    1        1.341   3.569   5.554  0.00  0.00    +0.120 A 
ATOM     21  C   LIG    1        1.259   4.703   4.760  0.00  0.00    -0.090 A 
ATOM     22  C   LIG    1        0.342   4.757   3.728  0.00  0.00    +0.040 A 
BRANCH  21  23
ATOM     23  C   LIG    1        2.168   5.876   5.023  0.00  0.00    -0.020 C 
ATOM     24  C   LIG    1        3.625   5.433   4.882  0.00  0.00    +0.030 C 
ATOM     25  C   LIG    1        1.928   6.399   6.440  0.00  0.00    +0.030 C 
ATOM     26  C   LIG    1        1.873   6.987   4.012  0.00  0.00    +0.030 C 
ENDBRANCH  21  23
BRANCH  19  27
ATOM     27  C   LIG    1        0.590   1.258   6.171  0.00  0.00    -0.020 C 
ATOM     28  C   LIG    1        0.298   1.630   7.626  0.00  0.00    +0.030 C 
ATOM     29  C   LIG    1        1.995   0.662   6.069  0.00  0.00    +0.030 C 
ATOM     30  C   LIG    1       -0.436   0.228   5.692  0.00  0.00    +0.030 C 
ENDBRANCH  19  27
BRANCH  20  31
ATOM     31  O   LIG    1        2.242   3.514   6.570  0.00  0.00    -0.490 OA
ATOM     32  H   LIG    1        1.903   3.840   7.415  0.00  0.00    +0.380 HD
ENDBRANCH  20  31
ENDBRANCH   1  17
TORSDOF 8
