REMARK  Name = ZINCpe00000MJLs1.0
REMARK                            x       y       z     vdW  Elec       q    Type
REMARK                         _______ _______ _______ _____ _____    ______ ____
ROOT
ATOM      1  C   LIG    1       -1.330   1.944   0.019  0.00  0.00    +0.140 C 
ATOM      2  C   LIG    1       -1.524   2.785   1.282  0.00  0.00    +0.080 C 
ENDROOT
BRANCH   1   3
ATOM      3  N   LIG    1       -2.431   0.980  -0.102  0.00  0.00    -0.510 NA
ATOM      4  C   LIG    1       -2.328   0.216  -1.354  0.00  0.00    +0.150 C 
ATOM      5  C   LIG    1       -3.458  -0.815  -1.411  0.00  0.00    +0.250 C 
ATOM      6  O   LIG    1       -4.715  -0.145  -1.288  0.00  0.00    -0.390 OA
ATOM      7  C   LIG    1       -4.850   0.608  -0.079  0.00  0.00    +0.290 C 
ATOM      8  C   LIG    1       -3.734   1.654  -0.009  0.00  0.00    +0.190 C 
BRANCH   7   9
ATOM      9  C   LIG    1       -6.190   1.298  -0.063  0.00  0.00    +0.180 A 
ATOM     10  N   LIG    1       -6.617   2.136   0.841  0.00  0.00    -0.280 NA
ATOM     11  N   LIG    1       -7.802   2.534   0.538  0.00  0.00    -0.290 NA
ATOM     12  C   LIG    1       -8.188   1.960  -0.569  0.00  0.00    +0.180 A 
ATOM     13  C   LIG    1       -9.513   2.152  -1.260  0.00  0.00    +0.200 C 
ATOM     14  N   LIG    1       -7.175   1.159  -0.982  0.00  0.00    -0.560 N 
ATOM     15  H   LIG    1       -7.160   0.601  -1.775  0.00  0.00    +0.430 HD
ENDBRANCH   7   9
ENDBRANCH   1   3
BRANCH   1  17
ATOM     16  N   LIG    1        1.124   1.811  -0.264  0.00  0.00    -0.620 N 
ATOM     17  C   LIG    1       -0.020   1.203   0.106  0.00  0.00    +0.520 C 
ATOM     18  O   LIG    1        0.003   0.058   0.504  0.00  0.00    -0.500 OA
ATOM     19  C   LIG    1        1.096   3.195  -0.745  0.00  0.00    +0.270 C 
BRANCH  16  20
ATOM     20  C   LIG    1        2.396   1.089  -0.185  0.00  0.00    +0.400 C 
BRANCH  20  24
ATOM     21  C   LIG    1        3.980  -0.175  -4.854  0.00  0.00    +0.180 C 
ATOM     22  C   LIG    1        3.339  -0.148  -3.491  0.00  0.00    -0.030 A 
ATOM     23  C   LIG    1        3.418   0.848  -2.577  0.00  0.00    -0.060 A 
ATOM     24  C   LIG    1        2.650   0.376  -1.488  0.00  0.00    -0.010 A 
ATOM     25  N   LIG    1        2.211  -0.801  -1.832  0.00  0.00    -0.340 NA
ATOM     26  O   LIG    1        2.578  -1.106  -2.942  0.00  0.00    +0.100 OA
ENDBRANCH  20  24
ENDBRANCH  16  20
ENDBRANCH   1  17
TORSDOF 5
