REMARK  Name = ZINCpe00000MJLs1.1
REMARK                            x       y       z     vdW  Elec       q    Type
REMARK                         _______ _______ _______ _____ _____    ______ ____
ROOT
ATOM      1  C   LIG    1       -2.844   1.538   2.451  0.00  0.00    +0.180 C 
ATOM      2  C   LIG    1       -4.072   0.720   2.046  0.00  0.00    +0.030 C 
ENDROOT
BRANCH   1   3
ATOM      3  N   LIG    1       -1.890   1.573   1.334  0.00  0.00    -0.510 NA
ATOM      4  C   LIG    1       -2.338   2.503   0.287  0.00  0.00    +0.150 C 
ATOM      5  C   LIG    1       -1.288   2.553  -0.826  0.00  0.00    +0.240 C 
ATOM      6  O   LIG    1       -1.072   1.233  -1.331  0.00  0.00    -0.370 OA
ATOM      7  C   LIG    1       -0.635   0.301  -0.338  0.00  0.00    +0.290 C 
ATOM      8  C   LIG    1       -1.678   0.228   0.780  0.00  0.00    +0.190 C 
BRANCH   7   9
ATOM      9  C   LIG    1       -0.470  -1.060  -0.963  0.00  0.00    +0.240 A 
ATOM     10  N   LIG    1       -1.319  -1.629  -1.779  0.00  0.00    -0.290 NA
ATOM     11  N   LIG    1       -0.778  -2.880  -2.118  0.00  0.00    -0.480 N 
ATOM     12  H   LIG    1       -1.171  -3.542  -2.709  0.00  0.00    +0.440 HD
ATOM     13  C   LIG    1        0.391  -2.978  -1.463  0.00  0.00    +0.290 A 
ATOM     14  C   LIG    1        1.338  -4.149  -1.513  0.00  0.00    +0.190 C 
ATOM     15  N   LIG    1        0.566  -1.877  -0.778  0.00  0.00    -0.530 NA
ENDBRANCH   7   9
ENDBRANCH   1   3
BRANCH   1  17
ATOM     16  N   LIG    1       -2.736   1.052   4.874  0.00  0.00    -0.620 N 
ATOM     17  C   LIG    1       -2.190   0.902   3.651  0.00  0.00    +0.520 C 
ATOM     18  O   LIG    1       -1.173   0.256   3.515  0.00  0.00    -0.500 OA
ATOM     19  C   LIG    1       -3.965   1.832   5.037  0.00  0.00    +0.270 C 
BRANCH  16  20
ATOM     20  C   LIG    1       -2.100   0.434   6.040  0.00  0.00    +0.400 C 
BRANCH  20  24
ATOM     21  C   LIG    1        0.171   3.994   8.881  0.00  0.00    +0.180 C 
ATOM     22  C   LIG    1       -0.153   2.925   7.870  0.00  0.00    -0.030 A 
ATOM     23  C   LIG    1       -1.341   2.295   7.708  0.00  0.00    -0.060 A 
ATOM     24  C   LIG    1       -1.109   1.397   6.641  0.00  0.00    -0.010 A 
ATOM     25  N   LIG    1        0.129   1.571   6.277  0.00  0.00    -0.330 NA
ATOM     26  O   LIG    1        0.675   2.415   6.948  0.00  0.00    +0.100 OA
ENDBRANCH  20  24
ENDBRANCH  16  20
ENDBRANCH   1  17
TORSDOF 5
