REMARK  Name = ZINCrg000000paHx.0
REMARK                            x       y       z     vdW  Elec       q    Type
REMARK                         _______ _______ _______ _____ _____    ______ ____
ROOT
ATOM      1  N   LIG    1       -0.231  -8.030   2.382  0.00  0.00    -0.730 N 
ATOM      2  H   LIG    1        0.375  -8.311   1.679  0.00  0.00    +0.400 HD
ATOM      3  C   LIG    1       -0.847  -6.834   2.304  0.00  0.00    +0.730 C 
ATOM      4  N   LIG    1       -0.622  -6.028   1.247  0.00  0.00    -0.630 N 
ATOM      5  C   LIG    1        0.270  -6.328   0.112  0.00  0.00    +0.260 C 
ATOM      6  C   LIG    1        0.666  -4.944  -0.459  0.00  0.00    +0.070 C 
ATOM      7  C   LIG    1       -0.655  -4.147  -0.287  0.00  0.00    +0.160 C 
ATOM      8  C   LIG    1       -1.224  -4.704   1.035  0.00  0.00    +0.260 C 
ATOM      9  O   LIG    1       -1.606  -6.481   3.186  0.00  0.00    -0.570 OA
ENDROOT
BRANCH   1  14
ATOM     10  C   LIG    1        1.933  -9.709   6.308  0.00  0.00    +0.290 C 
ATOM     11  N   LIG    1        0.981  -9.683   5.195  0.00  0.00    -0.630 N 
ATOM     12  C   LIG    1        0.472 -10.878   4.512  0.00  0.00    +0.270 C 
ATOM     13  C   LIG    1       -0.123 -10.370   3.180  0.00  0.00    +0.050 C 
ATOM     14  C   LIG    1       -0.475  -8.905   3.531  0.00  0.00    +0.270 C 
ATOM     15  C   LIG    1        0.461  -8.561   4.668  0.00  0.00    +0.500 C 
ATOM     16  O   LIG    1        0.706  -7.436   5.050  0.00  0.00    -0.510 OA
ENDBRANCH   1  14
BRANCH   7  17
ATOM     17  O   LIG    1       -0.390  -2.748  -0.174  0.00  0.00    -0.280 OA
BRANCH  17  18
ATOM     18  C   LIG    1       -1.389  -1.899  -0.536  0.00  0.00    +0.070 A 
ATOM     19  C   LIG    1       -2.602  -2.393  -0.992  0.00  0.00    -0.010 A 
ATOM     20  C   LIG    1       -3.593  -1.488  -1.350  0.00  0.00    -0.010 A 
ATOM     21  C   LIG    1       -3.345  -0.136  -1.244  0.00  0.00    +0.240 A 
ATOM     22  N   LIG    1       -2.182   0.309  -0.802  0.00  0.00    -0.480 NA
ATOM     23  C   LIG    1       -1.209  -0.517  -0.454  0.00  0.00    +0.280 A 
BRANCH  23  24
ATOM     24  N   LIG    1        0.002  -0.004   0.002  0.00  0.00    -0.450 N 
ATOM     25  C   LIG    1       -0.018   1.481   0.010  0.00  0.00    +0.190 C 
ATOM     26  C   LIG    1        1.470   1.891  -0.002  0.00  0.00    +0.010 C 
ATOM     27  C   LIG    1        2.212   0.687  -0.618  0.00  0.00    +0.030 C 
ATOM     28  C   LIG    1        1.110  -0.349  -0.926  0.00  0.00    +0.180 C 
ENDBRANCH  23  24
ENDBRANCH  17  18
ENDBRANCH   7  17
TORSDOF 4
