REMARK  Name = ZINCrg000000r93i.0
REMARK                            x       y       z     vdW  Elec       q    Type
REMARK                         _______ _______ _______ _____ _____    ______ ____
ROOT
ATOM      1  C   LIG    1        1.091   3.613  -0.012  0.00  0.00    +0.250 C 
ENDROOT
BRANCH   1   2
ATOM      2  C   LIG    1        2.402   4.026   0.606  0.00  0.00    +0.520 C 
ATOM      3  N   LIG    1        2.766   5.324   0.610  0.00  0.00    -0.610 N 
ATOM      4  C   LIG    1        1.851   6.360   0.112  0.00  0.00    +0.270 C 
ATOM      5  C   LIG    1        1.689   7.433   1.199  0.00  0.00    +0.040 C 
ATOM      6  C   LIG    1        3.069   7.955   1.602  0.00  0.00    -0.010 C 
ATOM      7  C   LIG    1        3.903   6.808   2.178  0.00  0.00    +0.050 C 
ATOM      8  C   LIG    1        4.088   5.729   1.107  0.00  0.00    +0.290 C 
ATOM      9  O   LIG    1        3.129   3.191   1.101  0.00  0.00    -0.530 OA
BRANCH   6  10
ATOM     10  C   LIG    1        2.913   9.035   2.642  0.00  0.00    +0.520 C 
ATOM     11  O   LIG    1        3.419   8.900   3.736  0.00  0.00    -0.540 OA
ATOM     12  N   LIG    1        2.212  10.150   2.357  0.00  0.00    -0.860 N 
ATOM     13  H   LIG    1        2.112  10.844   3.026  0.00  0.00    +0.400 HD
ATOM     14  H   LIG    1        1.808  10.257   1.482  0.00  0.00    +0.400 HD
ENDBRANCH   6  10
ENDBRANCH   1   2
BRANCH   1  15
ATOM     15  N   LIG    1        0.701   2.298   0.503  0.00  0.00    -0.710 N 
ATOM     16  H   LIG    1        1.378   1.687   0.833  0.00  0.00    +0.410 HD
ATOM     17  C   LIG    1       -0.598   1.939   0.519  0.00  0.00    +0.520 C 
ATOM     18  O   LIG    1       -1.443   2.702   0.102  0.00  0.00    -0.510 OA
BRANCH  17  19
ATOM     19  C   LIG    1       -0.999   0.586   1.049  0.00  0.00    +0.240 C 
BRANCH  19  20
ATOM     20  O   LIG    1       -2.418   0.442   0.961  0.00  0.00    -0.290 OA
BRANCH  20  21
ATOM     21  C   LIG    1       -2.947  -0.730   1.400  0.00  0.00    +0.130 A 
ATOM     22  C   LIG    1       -2.117  -1.723   1.901  0.00  0.00    -0.080 A 
ATOM     23  C   LIG    1       -2.658  -2.911   2.352  0.00  0.00    +0.050 A 
ATOM     24  C   LIG    1       -4.025  -3.115   2.296  0.00  0.00    -0.030 A 
ATOM     25  C   LIG    1       -4.853  -2.130   1.792  0.00  0.00    +0.050 A 
ATOM     26  C   LIG    1       -4.318  -0.938   1.344  0.00  0.00    -0.020 A 
ENDBRANCH  20  21
ENDBRANCH  19  20
ENDBRANCH  17  19
ENDBRANCH   1  15
BRANCH   1  27
ATOM     27  C   LIG    1        1.245   3.541  -1.532  0.00  0.00    +0.070 C 
BRANCH  27  28
ATOM     28  C   LIG    1       -0.116   3.248  -2.169  0.00  0.00    +0.100 C 
BRANCH  28  30
ATOM     29  C   LIG    1       -1.622   2.814  -4.536  0.00  0.00    +0.140 C 
ATOM     30  S   LIG    1        0.066   3.162  -3.971  0.00  0.00    -0.270 S 
ENDBRANCH  28  30
ENDBRANCH  27  28
ENDBRANCH   1  27
TORSDOF 9
