REMARK  Name = ZINCrH000004v9Yj.0
REMARK                            x       y       z     vdW  Elec       q    Type
REMARK                         _______ _______ _______ _____ _____    ______ ____
ROOT
ATOM      1  O   LIG    1       -1.291   2.780  -0.066  0.00  0.00    -0.560 OA
ATOM      2  C   LIG    1       -1.216   1.569   0.018  0.00  0.00    +0.730 C 
ATOM      3  N   LIG    1       -2.339   0.830   0.122  0.00  0.00    -0.640 N 
ATOM      4  C   LIG    1       -2.450  -0.643   0.234  0.00  0.00    +0.260 C 
ATOM      5  C   LIG    1       -3.669  -1.009  -0.640  0.00  0.00    +0.040 C 
ATOM      6  C   LIG    1       -4.520   0.277  -0.696  0.00  0.00    -0.060 C 
ATOM      7  C   LIG    1       -3.741   1.308   0.157  0.00  0.00    +0.310 C 
ATOM      8  N   LIG    1       -0.011   0.966   0.007  0.00  0.00    -0.680 N 
ATOM      9  H   LIG    1        0.047  -0.003   0.007  0.00  0.00    +0.400 HD
ENDROOT
BRANCH   8  10
ATOM     10  C   LIG    1        1.158   1.737  -0.009  0.00  0.00    +0.190 A 
ATOM     11  C   LIG    1        1.184   2.938  -0.716  0.00  0.00    +0.000 A 
ATOM     12  C   LIG    1        2.314   3.704  -0.737  0.00  0.00    +0.080 A 
ATOM     13  C   LIG    1        3.456   3.278  -0.056  0.00  0.00    -0.120 A 
ATOM     14  C   LIG    1        4.801   3.833   0.121  0.00  0.00    -0.050 A 
ATOM     15  C   LIG    1        5.484   2.970   0.888  0.00  0.00    +0.220 A 
ATOM     16  N   LIG    1        4.687   1.905   1.217  0.00  0.00    -0.600 N 
ATOM     17  H   LIG    1        4.960   1.153   1.765  0.00  0.00    +0.410 HD
ATOM     18  C   LIG    1        3.440   2.064   0.655  0.00  0.00    +0.110 A 
ATOM     19  C   LIG    1        2.280   1.298   0.671  0.00  0.00    -0.040 A 
ENDBRANCH   8  10
BRANCH   6  20
ATOM     20  C   LIG    1       -5.902   0.026  -0.089  0.00  0.00    +0.100 C 
BRANCH  20  21
ATOM     21  C   LIG    1       -6.716   1.293  -0.152  0.00  0.00    -0.080 A 
ATOM     22  C   LIG    1       -6.678   2.191   0.897  0.00  0.00    +0.030 A 
ATOM     23  C   LIG    1       -7.420   3.356   0.838  0.00  0.00    -0.030 A 
ATOM     24  C   LIG    1       -8.209   3.617  -0.270  0.00  0.00    +0.100 A 
ATOM     25  C   LIG    1       -8.250   2.714  -1.318  0.00  0.00    -0.040 A 
ATOM     26  F   LIG    1       -8.939   4.753  -0.327  0.00  0.00    -0.150 F 
ATOM     27  C   LIG    1       -7.504   1.552  -1.258  0.00  0.00    +0.100 A 
ENDBRANCH  20  21
ENDBRANCH   6  20
BRANCH   6  28
ATOM     28  C   LIG    1       -4.655   0.764  -2.140  0.00  0.00    +0.180 C 
BRANCH  28  29
ATOM     29  O   LIG    1       -5.446   1.954  -2.169  0.00  0.00    -0.550 OA
ATOM     30  H   LIG    1       -5.573   2.320  -3.055  0.00  0.00    +0.370 HD
ENDBRANCH  28  29
ENDBRANCH   6  28
TORSDOF 5
