REMARK  Name = ZINCqH0000000ykv.0
REMARK                            x       y       z     vdW  Elec       q    Type
REMARK                         _______ _______ _______ _____ _____    ______ ____
ROOT
ATOM      1  C   LIG    1        0.308   7.797   2.097  0.00  0.00    +0.310 C 
ENDROOT
BRANCH   1   4
ATOM      2  N   LIG    1        0.538  10.256   2.235  0.00  0.00    -0.660 N 
ATOM      3  H   LIG    1        0.113  10.315   1.365  0.00  0.00    +0.420 HD
ATOM      4  C   LIG    1        0.784   9.050   2.785  0.00  0.00    +0.510 C 
ATOM      5  O   LIG    1        1.388   8.974   3.834  0.00  0.00    -0.510 OA
BRANCH   2  11
ATOM      6  C   LIG    1        0.092  12.568   2.816  0.00  0.00    -0.210 A 
ATOM      7  C   LIG    1        0.458  13.726   3.511  0.00  0.00    +0.090 A 
ATOM      8  C   LIG    1        1.604  13.734   4.276  0.00  0.00    -0.020 A 
ATOM      9  C   LIG    1        2.394  12.599   4.366  0.00  0.00    +0.070 A 
ATOM     10  C   LIG    1        2.043  11.447   3.691  0.00  0.00    +0.010 A 
ATOM     11  C   LIG    1        0.893  11.417   2.915  0.00  0.00    +0.200 A 
BRANCH   6  13
ATOM     12  C   LIG    1       -1.915  13.820   1.796  0.00  0.00    +0.080 C 
ATOM     13  C   LIG    1       -1.124  12.553   1.993  0.00  0.00    +0.400 C 
ATOM     14  O   LIG    1       -1.491  11.521   1.473  0.00  0.00    -0.470 OA
ENDBRANCH   6  13
ENDBRANCH   2  11
ENDBRANCH   1   4
BRANCH   1  15
ATOM     15  N   LIG    1        0.696   6.628   2.889  0.00  0.00    -0.730 N 
ATOM     16  H   LIG    1        1.185   6.744   3.719  0.00  0.00    +0.420 HD
BRANCH  15  17
ATOM     17  C   LIG    1        0.362   5.341   2.449  0.00  0.00    +0.240 A 
ATOM     18  C   LIG    1       -0.338   5.175   1.261  0.00  0.00    -0.050 A 
ATOM     19  C   LIG    1       -0.665   3.900   0.831  0.00  0.00    +0.120 A 
ATOM     20  C   LIG    1       -0.297   2.795   1.584  0.00  0.00    +0.020 A 
ATOM     21  O   LIG    1       -0.628   1.542   1.149  0.00  0.00    -0.310 OA
ATOM     22  C   LIG    1        0.042   1.093  -0.030  0.00  0.00    +0.220 C 
ATOM     23  C   LIG    1       -0.670   1.592  -1.277  0.00  0.00    -0.010 C 
ATOM     24  C   LIG    1       -0.628   3.107  -1.401  0.00  0.00    +0.230 C 
ATOM     25  C   LIG    1        0.401   2.960   2.768  0.00  0.00    +0.090 A 
ATOM     26  O   LIG    1       -1.353   3.723  -0.335  0.00  0.00    -0.320 OA
ATOM     27  C   LIG    1        0.731   4.232   3.200  0.00  0.00    -0.100 A 
ATOM     28 CL   LIG    1        1.606   4.444   4.684  0.00  0.00    -0.060 Cl
ENDBRANCH  15  17
ENDBRANCH   1  15
TORSDOF 5
