REMARK  Name = ZINCvU00000008wr.0
REMARK                            x       y       z     vdW  Elec       q    Type
REMARK                         _______ _______ _______ _____ _____    ______ ____
ROOT
ATOM      1  C   LIG    1        4.865  -0.635  -7.964  0.00  0.00    +0.530 C 
ATOM      2  N   LIG    1        5.159  -1.034  -9.218  0.00  0.00    -0.670 N 
ATOM      3  H   LIG    1        4.570  -1.649  -9.681  0.00  0.00    +0.410 HD
ATOM      4  O   LIG    1        5.556   0.197  -7.415  0.00  0.00    -0.510 OA
ENDROOT
BRANCH   1   7
ATOM      5  N   LIG    1        3.072  -1.725  -4.980  0.00  0.00    -0.560 N 
ATOM      6  C   LIG    1        3.537  -0.622  -5.829  0.00  0.00    +0.310 C 
ATOM      7  C   LIG    1        3.679  -1.224  -7.245  0.00  0.00    +0.010 C 
ATOM      8  C   LIG    1        3.910  -2.720  -6.929  0.00  0.00    +0.100 C 
ATOM      9  C   LIG    1        3.279  -2.915  -5.568  0.00  0.00    +0.520 C 
ATOM     10  O   LIG    1        2.999  -3.990  -5.080  0.00  0.00    -0.500 OA
BRANCH   5  14
ATOM     11  C   LIG    1        1.345  -1.229  -1.216  0.00  0.00    -0.110 A 
ATOM     12  C   LIG    1        1.407  -2.492  -1.791  0.00  0.00    +0.030 A 
ATOM     13  C   LIG    1        1.973  -2.655  -3.039  0.00  0.00    +0.030 A 
ATOM     14  C   LIG    1        2.491  -1.558  -3.715  0.00  0.00    +0.160 A 
ATOM     15  C   LIG    1        2.435  -0.296  -3.138  0.00  0.00    -0.010 A 
ATOM     16  C   LIG    1        1.863  -0.132  -1.892  0.00  0.00    +0.060 A 
BRANCH  11  18
ATOM     17  C   LIG    1        0.107  -2.704   0.816  0.00  0.00    +0.120 C 
ATOM     18  S   LIG    1        0.615  -1.020   0.375  0.00  0.00    -0.120 S 
ENDBRANCH  11  18
ENDBRANCH   5  14
ENDBRANCH   1   7
BRANCH   2  19
ATOM     19  C   LIG    1        6.315  -0.559  -9.851  0.00  0.00    +0.130 A 
ATOM     20  C   LIG    1        6.742   0.744  -9.631  0.00  0.00    +0.040 A 
ATOM     21  C   LIG    1        7.884   1.211 -10.251  0.00  0.00    +0.010 A 
ATOM     22  C   LIG    1        8.600   0.380 -11.104  0.00  0.00    -0.100 A 
ATOM     23  C   LIG    1        8.170  -0.922 -11.328  0.00  0.00    +0.050 A 
ATOM     24  C   LIG    1        7.031  -1.389 -10.704  0.00  0.00    +0.010 A 
BRANCH  22  25
ATOM     25  S   LIG    1       10.054   0.977 -11.901  0.00  0.00    -0.100 S 
BRANCH  25  26
ATOM     26  C   LIG    1       10.181   2.682 -11.294  0.00  0.00    +0.140 C 
BRANCH  26  27
ATOM     27  C   LIG    1       11.396   3.340 -11.895  0.00  0.00    -0.130 A 
ATOM     28  C   LIG    1       12.621   3.274 -11.250  0.00  0.00    +0.080 A 
ATOM     29  C   LIG    1       13.713   3.889 -11.844  0.00  0.00    -0.030 A 
ATOM     30  C   LIG    1       13.542   4.554 -13.043  0.00  0.00    +0.270 A 
ATOM     31  N   LIG    1       12.360   4.601 -13.626  0.00  0.00    -0.480 NA
ATOM     32  C   LIG    1       11.301   4.022 -13.094  0.00  0.00    +0.280 A 
ENDBRANCH  26  27
ENDBRANCH  25  26
ENDBRANCH  22  25
ENDBRANCH   2  19
TORSDOF 7
