REMARK  Name = ZINCrD000006S5mT.0
REMARK                            x       y       z     vdW  Elec       q    Type
REMARK                         _______ _______ _______ _____ _____    ______ ____
ROOT
ATOM      1  N   LIG    1       -0.229   5.426   0.178  0.00  0.00    -0.490 N 
ATOM      2  C   LIG    1       -1.064   5.892   1.292  0.00  0.00    +0.190 C 
ATOM      3  C   LIG    1       -1.068   7.425   1.316  0.00  0.00    +0.300 C 
ATOM      4  N   LIG    1       -1.473   7.912  -0.011  0.00  0.00    -0.990 NA
ATOM      5  C   LIG    1       -0.770   7.383  -1.190  0.00  0.00    +0.300 C 
ATOM      6  C   LIG    1       -0.778   5.853  -1.116  0.00  0.00    +0.190 C 
ENDROOT
BRANCH   1  14
ATOM      7  C   LIG    1        2.328   4.393   0.878  0.00  0.00    +0.100 C 
ATOM      8  C   LIG    1        1.164   3.491   0.557  0.00  0.00    -0.060 A 
ATOM      9  C   LIG    1        1.320   2.120   0.598  0.00  0.00    +0.000 A 
ATOM     10  C   LIG    1        0.252   1.292   0.304  0.00  0.00    +0.010 A 
ATOM     11  C   LIG    1       -0.973   1.833  -0.038  0.00  0.00    +0.000 A 
ATOM     12  C   LIG    1       -1.138   3.204  -0.075  0.00  0.00    -0.110 A 
ATOM     13  C   LIG    1       -2.475   3.794  -0.441  0.00  0.00    +0.090 C 
ATOM     14  C   LIG    1       -0.067   4.039   0.220  0.00  0.00    +0.080 A 
ENDBRANCH   1  14
BRANCH   4  15
ATOM     15  S   LIG    1       -2.686   9.027  -0.174  0.00  0.00    +2.690 S 
ATOM     16  O   LIG    1       -3.398   9.027   1.056  0.00  0.00    -0.930 OA
ATOM     17  O   LIG    1       -3.302   8.769  -1.429  0.00  0.00    -0.940 OA
BRANCH  15  18
ATOM     18  C   LIG    1       -1.925  10.610  -0.309  0.00  0.00    -0.680 A 
ATOM     19  C   LIG    1       -2.018  11.323  -1.490  0.00  0.00    +0.230 A 
ATOM     20  C   LIG    1       -1.421  12.566  -1.596  0.00  0.00    -0.060 A 
ATOM     21  C   LIG    1       -0.733  13.096  -0.521  0.00  0.00    +0.180 A 
ATOM     22  C   LIG    1       -0.639  12.384   0.660  0.00  0.00    +0.050 A 
ATOM     23  C   LIG    1       -1.240  11.143   0.768  0.00  0.00    +0.090 A 
ATOM     24 CL   LIG    1       -1.130  10.251   2.254  0.00  0.00    -0.010 Cl
BRANCH  20  25
ATOM     25  N   LIG    1       -1.521  13.329  -2.860  0.00  0.00    +0.020 N 
ATOM     26  O   LIG    1       -0.995  14.424  -2.954  0.00  0.00    -0.140 OA
ATOM     27  O   LIG    1       -2.128  12.862  -3.807  0.00  0.00    -0.140 OA
ENDBRANCH  20  25
ENDBRANCH  15  18
ENDBRANCH   4  15
TORSDOF 4
