REMARK  Name = ZINCrD000000C8ln.0
REMARK                            x       y       z     vdW  Elec       q    Type
REMARK                         _______ _______ _______ _____ _____    ______ ____
ROOT
ATOM      1  O   LIG    1       -3.515   3.827   4.610  0.00  0.00    -0.480 OA
ATOM      2  C   LIG    1       -3.775   4.396   3.571  0.00  0.00    +0.490 C 
ATOM      3  N   LIG    1       -3.115   4.072   2.441  0.00  0.00    -0.670 N 
ATOM      4  H   LIG    1       -3.264   4.581   1.629  0.00  0.00    +0.410 HD
ENDROOT
BRANCH   3   5
ATOM      5  C   LIG    1       -2.213   3.002   2.441  0.00  0.00    +0.150 A 
ATOM      6  C   LIG    1       -2.355   1.981   3.367  0.00  0.00    +0.010 A 
ATOM      7  C   LIG    1       -1.464   0.925   3.364  0.00  0.00    +0.020 A 
ATOM      8  C   LIG    1       -0.439   0.895   2.441  0.00  0.00    -0.020 A 
ATOM      9  C   LIG    1       -0.291   1.918   1.511  0.00  0.00    -0.060 A 
ATOM     10  C   LIG    1        0.856   1.819   0.539  0.00  0.00    +0.080 C 
ATOM     11  C   LIG    1        0.633   2.751  -0.651  0.00  0.00    +0.020 C 
ATOM     12  C   LIG    1        0.306   4.149  -0.115  0.00  0.00    +0.020 C 
ATOM     13  C   LIG    1       -1.080   4.108   0.525  0.00  0.00    +0.060 C 
ATOM     14  C   LIG    1       -1.176   2.970   1.507  0.00  0.00    -0.110 A 
ENDBRANCH   3   5
BRANCH   2  15
ATOM     15  C   LIG    1       -4.835   5.466   3.543  0.00  0.00    +0.250 C 
ATOM     16  C   LIG    1       -5.977   5.049   2.592  0.00  0.00    +0.060 C 
ATOM     17  C   LIG    1       -7.246   5.546   3.333  0.00  0.00    +0.040 C 
ATOM     18  C   LIG    1       -6.857   5.304   4.813  0.00  0.00    +0.280 C 
ATOM     19  N   LIG    1       -5.420   5.626   4.883  0.00  0.00    -0.990 NA
BRANCH  19  20
ATOM     20  S   LIG    1       -4.599   6.090   6.244  0.00  0.00    +2.710 S 
ATOM     21  O   LIG    1       -3.234   5.766   6.020  0.00  0.00    -0.930 OA
ATOM     22  O   LIG    1       -5.345   5.598   7.349  0.00  0.00    -0.950 OA
BRANCH  20  23
ATOM     23  C   LIG    1       -4.685   7.848   6.331  0.00  0.00    -0.680 A 
ATOM     24  C   LIG    1       -3.704   8.618   5.733  0.00  0.00    +0.120 A 
ATOM     25  C   LIG    1       -3.774   9.997   5.798  0.00  0.00    -0.010 A 
ATOM     26  C   LIG    1       -4.819  10.606   6.467  0.00  0.00    +0.070 A 
ATOM     27  C   LIG    1       -5.796   9.836   7.069  0.00  0.00    -0.010 A 
ATOM     28  C   LIG    1       -5.729   8.457   7.001  0.00  0.00    +0.120 A 
ENDBRANCH  20  23
ENDBRANCH  19  20
ENDBRANCH   2  15
TORSDOF 4
