REMARK  Name = ZINCrg000000mRHz.0
REMARK                            x       y       z     vdW  Elec       q    Type
REMARK                         _______ _______ _______ _____ _____    ______ ____
ROOT
ATOM      1  C   LIG    1       -5.161  -1.700  -0.994  0.00  0.00    +0.540 C 
ATOM      2  N   LIG    1       -5.656  -0.453  -0.870  0.00  0.00    -0.610 N 
ATOM      3  C   LIG    1       -5.395   0.563  -1.899  0.00  0.00    +0.290 C 
ATOM      4  C   LIG    1       -4.798   1.804  -1.228  0.00  0.00    +0.030 C 
ATOM      5  C   LIG    1       -5.730   2.270  -0.107  0.00  0.00    +0.100 C 
ATOM      6  C   LIG    1       -5.858   1.166   0.945  0.00  0.00    +0.020 C 
ATOM      7  C   LIG    1       -6.467  -0.082   0.298  0.00  0.00    +0.280 C 
ATOM      8  O   LIG    1       -4.493  -1.993  -1.963  0.00  0.00    -0.510 OA
ENDROOT
BRANCH   1  20
ATOM      9  C   LIG    1       -8.266  -4.346  -1.969  0.00  0.00    +0.110 C 
ATOM     10  C   LIG    1       -7.072  -3.506  -1.595  0.00  0.00    +0.510 C 
ATOM     11  N   LIG    1       -6.525  -3.620  -0.369  0.00  0.00    -0.610 N 
ATOM     12  C   LIG    1       -6.990  -4.636   0.582  0.00  0.00    +0.340 C 
ATOM     13  C   LIG    1       -5.804  -5.300   1.236  0.00  0.00    -0.100 A 
ATOM     14  C   LIG    1       -6.035  -6.447   1.983  0.00  0.00    +0.020 A 
ATOM     15  C   LIG    1       -4.991  -7.094   2.613  0.00  0.00    +0.010 A 
ATOM     16  C   LIG    1       -3.707  -6.595   2.501  0.00  0.00    +0.010 A 
ATOM     17  C   LIG    1       -3.477  -5.457   1.755  0.00  0.00    +0.000 A 
ATOM     18  C   LIG    1       -4.524  -4.807   1.115  0.00  0.00    -0.070 A 
ATOM     19  C   LIG    1       -4.192  -3.585   0.299  0.00  0.00    +0.100 C 
ATOM     20  C   LIG    1       -5.438  -2.730   0.071  0.00  0.00    +0.220 C 
ATOM     21  O   LIG    1       -6.603  -2.728  -2.398  0.00  0.00    -0.500 OA
ENDBRANCH   1  20
BRANCH   5  22
ATOM     22  C   LIG    1       -5.163   3.511   0.533  0.00  0.00    +0.320 A 
ATOM     23  N   LIG    1       -5.478   4.744   0.229  0.00  0.00    -0.570 NA
ATOM     24  C   LIG    1       -4.778   5.591   0.990  0.00  0.00    +0.480 A 
ATOM     25  N   LIG    1       -4.010   4.897   1.797  0.00  0.00    -0.370 NA
ATOM     26  N   LIG    1       -4.249   3.542   1.517  0.00  0.00    -0.480 N 
ATOM     27  H   LIG    1       -3.833   2.779   1.947  0.00  0.00    +0.440 HD
BRANCH  24  28
ATOM     28  N   LIG    1       -4.853   6.984   0.937  0.00  0.00    -0.820 N 
ATOM     29  H   LIG    1       -5.452   7.414   0.307  0.00  0.00    +0.420 HD
ATOM     30  H   LIG    1       -4.306   7.522   1.530  0.00  0.00    +0.410 HD
ENDBRANCH  24  28
ENDBRANCH   5  22
TORSDOF 3
