REMARK  Name = ZINCkj000005jr1p.1
REMARK                            x       y       z     vdW  Elec       q    Type
REMARK                         _______ _______ _______ _____ _____    ______ ____
ROOT
ATOM      1  C   LIG    1        0.455   2.609  -3.390  0.00  0.00    +0.060 C 
ATOM      2  C   LIG    1        0.615   1.597  -2.254  0.00  0.00    +0.220 C 
ATOM      3  C   LIG    1       -0.614   1.642  -1.312  0.00  0.00    +0.070 C 
ATOM      4  C   LIG    1       -0.014   1.089   0.008  0.00  0.00    +0.050 C 
ATOM      5  C   LIG    1        1.423   1.650  -0.003  0.00  0.00    +0.250 C 
ATOM      6  N   LIG    1        1.760   1.961  -1.400  0.00  0.00    -0.590 N 
ATOM      7  C   LIG    1        2.922   2.492  -1.829  0.00  0.00    +0.520 C 
ATOM      8  O   LIG    1        3.129   2.619  -3.017  0.00  0.00    -0.520 OA
ENDROOT
BRANCH   7   9
ATOM      9  C   LIG    1        3.965   2.928  -0.831  0.00  0.00    +0.140 C 
ATOM     10  C   LIG    1        4.831   1.727  -0.442  0.00  0.00    +0.280 C 
ATOM     11  O   LIG    1        5.853   2.157   0.462  0.00  0.00    -0.350 OA
ATOM     12  C   LIG    1        6.692   3.188  -0.069  0.00  0.00    +0.270 C 
ATOM     13  C   LIG    1        5.829   4.390  -0.458  0.00  0.00    +0.250 C 
ATOM     14  N   LIG    1        4.813   3.967  -1.431  0.00  0.00    -0.490 N 
ATOM     15  H   LIG    1        4.243   4.759  -1.689  0.00  0.00    +0.440 HD
ATOM     16  H   LIG    1        5.267   3.598  -2.253  0.00  0.00    +0.440 HD
ENDBRANCH   7   9
BRANCH   4  17
ATOM     17  C   LIG    1       -0.778   1.601   1.202  0.00  0.00    -0.090 A 
ATOM     18  C   LIG    1       -0.896   2.962   1.413  0.00  0.00    +0.000 A 
ATOM     19  C   LIG    1       -1.601   3.433   2.506  0.00  0.00    +0.000 A 
ATOM     20  C   LIG    1       -2.178   2.543   3.392  0.00  0.00    +0.020 A 
ATOM     21  C   LIG    1       -2.056   1.182   3.182  0.00  0.00    +0.020 A 
ATOM     22  C   LIG    1       -1.355   0.711   2.087  0.00  0.00    +0.020 A 
ENDBRANCH   4  17
TORSDOF 2
