REMARK  Name = ZINCvU0000000AmT.0
REMARK                            x       y       z     vdW  Elec       q    Type
REMARK                         _______ _______ _______ _____ _____    ______ ____
ROOT
ATOM      1  N   LIG    1        4.256   3.805   0.159  0.00  0.00    -0.470 N 
ATOM      2  C   LIG    1        2.893   3.738  -0.052  0.00  0.00    +0.070 A 
ATOM      3  C   LIG    1        2.019   2.720  -0.408  0.00  0.00    +0.010 A 
ATOM      4  C   LIG    1        0.674   2.991  -0.541  0.00  0.00    +0.040 A 
ATOM      5  C   LIG    1        0.189   4.272  -0.321  0.00  0.00    +0.000 A 
ATOM      6  C   LIG    1        1.035   5.287   0.029  0.00  0.00    +0.070 A 
ATOM      7  C   LIG    1        2.402   5.036   0.169  0.00  0.00    +0.050 A 
ATOM      8  N   LIG    1        3.467   5.811   0.499  0.00  0.00    -0.460 NA
ATOM      9  C   LIG    1        4.551   5.091   0.492  0.00  0.00    +0.280 A 
ENDROOT
BRANCH   1  10
ATOM     10  C   LIG    1        5.208   2.698   0.046  0.00  0.00    +0.340 C 
BRANCH  10  13
ATOM     11  N   LIG    1        6.628   1.680  -1.705  0.00  0.00    -0.670 N 
ATOM     12  H   LIG    1        6.974   1.075  -1.030  0.00  0.00    +0.410 HD
ATOM     13  C   LIG    1        5.732   2.628  -1.365  0.00  0.00    +0.490 C 
ATOM     14  O   LIG    1        5.349   3.425  -2.195  0.00  0.00    -0.480 OA
BRANCH  11  19
ATOM     15  C   LIG    1        8.370   1.223  -7.085  0.00  0.00    +0.090 C 
ATOM     16  C   LIG    1        7.907   1.344  -5.655  0.00  0.00    -0.080 A 
ATOM     17  C   LIG    1        8.836   1.438  -4.635  0.00  0.00    +0.010 A 
ATOM     18  C   LIG    1        8.415   1.550  -3.325  0.00  0.00    -0.090 A 
ATOM     19  C   LIG    1        7.058   1.567  -3.032  0.00  0.00    +0.130 A 
ATOM     20  C   LIG    1        6.128   1.466  -4.058  0.00  0.00    -0.060 A 
ATOM     21  C   LIG    1        4.654   1.476  -3.744  0.00  0.00    +0.080 C 
ATOM     22  C   LIG    1        9.428   1.654  -2.213  0.00  0.00    +0.090 C 
ATOM     23  C   LIG    1        6.555   1.361  -5.367  0.00  0.00    +0.010 A 
ENDBRANCH  11  19
ENDBRANCH  10  13
ENDBRANCH   1  10
BRANCH   9  24
ATOM     24  C   LIG    1        5.932   5.606   0.807  0.00  0.00    +0.330 C 
BRANCH  24  25
ATOM     25  O   LIG    1        6.555   6.063  -0.395  0.00  0.00    -0.300 OA
BRANCH  25  26
ATOM     26  C   LIG    1        7.814   6.563  -0.285  0.00  0.00    +0.140 A 
ATOM     27  C   LIG    1        8.435   6.617   0.954  0.00  0.00    -0.060 A 
ATOM     28  C   LIG    1        9.716   7.122   1.063  0.00  0.00    +0.070 A 
ATOM     29  C   LIG    1       10.377   7.581  -0.062  0.00  0.00    -0.070 A 
ATOM     30  C   LIG    1        9.758   7.532  -1.299  0.00  0.00    +0.070 A 
ATOM     31 CL   LIG    1       11.986   8.220   0.077  0.00  0.00    -0.070 Cl
ATOM     32  C   LIG    1        8.479   7.024  -1.412  0.00  0.00    +0.010 A 
ENDBRANCH  25  26
ENDBRANCH  24  25
ENDBRANCH   9  24
TORSDOF 6
