REMARK  Name = ZINCrH00000No4I7.0
REMARK                            x       y       z     vdW  Elec       q    Type
REMARK                         _______ _______ _______ _____ _____    ______ ____
ROOT
ATOM      1  C   LIG    1        4.078   0.819  -1.666  0.00  0.00    +0.500 A 
ATOM      2  N   LIG    1        4.848   0.389  -0.673  0.00  0.00    -0.610 NA
ATOM      3  C   LIG    1        5.983  -0.245  -0.925  0.00  0.00    +0.610 A 
ATOM      4  N   LIG    1        6.391  -0.474  -2.165  0.00  0.00    -0.590 NA
ATOM      5  C   LIG    1        5.672  -0.073  -3.203  0.00  0.00    +0.410 A 
ATOM      6  C   LIG    1        4.479   0.588  -2.985  0.00  0.00    -0.270 A 
ATOM      7 CL   LIG    1        3.504   1.125  -4.317  0.00  0.00    -0.060 Cl
ENDROOT
BRANCH   1   8
ATOM      8  N   LIG    1        2.890   1.482  -1.398  0.00  0.00    -0.700 N 
ATOM      9  H   LIG    1        2.333   1.793  -2.129  0.00  0.00    +0.410 HD
BRANCH   8  10
ATOM     10  C   LIG    1        2.477   1.713  -0.012  0.00  0.00    +0.380 C 
BRANCH  10  15
ATOM     11  C   LIG    1       -2.481   4.594   0.048  0.00  0.00    +0.130 C 
ATOM     12  C   LIG    1       -1.198   3.804   0.033  0.00  0.00    -0.080 A 
ATOM     13  C   LIG    1       -1.228   2.418   0.021  0.00  0.00    +0.100 A 
ATOM     14  C   LIG    1       -0.021   1.732   0.012  0.00  0.00    -0.060 A 
ATOM     15  C   LIG    1        1.161   2.448   0.004  0.00  0.00    +0.120 A 
ATOM     16  N   LIG    1        1.151   3.767   0.010  0.00  0.00    -0.420 NA
ATOM     17 CL   LIG    1        0.002  -0.004   0.002  0.00  0.00    -0.030 Cl
ATOM     18  C   LIG    1        0.024   4.452   0.024  0.00  0.00    +0.120 A 
ATOM     19 BR   LIG    1        0.079   6.342   0.033  0.00  0.00    +0.010 Br
ENDBRANCH  10  15
ENDBRANCH   8  10
ENDBRANCH   1   8
BRANCH   3  20
ATOM     20  N   LIG    1        6.763  -0.681   0.133  0.00  0.00    -0.680 N 
ATOM     21  H   LIG    1        6.476  -0.520   1.045  0.00  0.00    +0.420 HD
BRANCH  20  22
ATOM     22  C   LIG    1        8.022  -1.384  -0.126  0.00  0.00    +0.310 C 
BRANCH  22  23
ATOM     23  C   LIG    1        8.683  -1.753   1.204  0.00  0.00    -0.010 C 
ATOM     24  C   LIG    1        9.932  -2.595   0.934  0.00  0.00    +0.040 C 
ATOM     25  C   LIG    1       10.724  -2.720   2.242  0.00  0.00    +0.020 C 
ATOM     26  C   LIG    1       11.278  -1.343   2.611  0.00  0.00    +0.260 C 
ATOM     27  N   LIG    1       10.219  -0.342   2.579  0.00  0.00    -0.720 N 
ATOM     28  H   LIG    1       10.367   0.491   3.055  0.00  0.00    +0.400 HD
ATOM     29  C   LIG    1        9.061  -0.498   1.938  0.00  0.00    +0.520 C 
ATOM     30  O   LIG    1        8.271   0.421   1.947  0.00  0.00    -0.540 OA
ENDBRANCH  22  23
ENDBRANCH  20  22
ENDBRANCH   3  20
TORSDOF 6
