REMARK  Name = ZINCpe00000VVGo4.0
REMARK                            x       y       z     vdW  Elec       q    Type
REMARK                         _______ _______ _______ _____ _____    ______ ____
ROOT
ATOM      1  C   LIG    1       -0.338   4.117   0.727  0.00  0.00    +0.280 C 
ENDROOT
BRANCH   1  11
ATOM      2  C   LIG    1        1.903  -0.769   1.600  0.00  0.00    +0.370 C 
ATOM      3  N   LIG    1        0.465  -0.594   1.821  0.00  0.00    -0.350 N 
ATOM      4  N   LIG    1       -0.426  -1.586   2.248  0.00  0.00    -0.270 NA
ATOM      5  C   LIG    1       -1.627  -1.084   2.339  0.00  0.00    +0.330 A 
ATOM      6  C   LIG    1       -1.568   0.273   1.970  0.00  0.00    -0.350 A 
ATOM      7  C   LIG    1       -2.548   1.354   1.868  0.00  0.00    +0.580 A 
ATOM      8  O   LIG    1       -3.723   1.169   2.135  0.00  0.00    -0.520 OA
ATOM      9  N   LIG    1       -2.102   2.567   1.465  0.00  0.00    -0.650 N 
ATOM     10  H   LIG    1       -2.723   3.308   1.385  0.00  0.00    +0.420 HD
ATOM     11  C   LIG    1       -0.790   2.750   1.172  0.00  0.00    +0.430 A 
ATOM     12  N   LIG    1        0.095   1.800   1.253  0.00  0.00    -0.490 NA
ATOM     13  C   LIG    1       -0.232   0.559   1.646  0.00  0.00    +0.340 A 
ENDBRANCH   1  11
BRANCH   1  14
ATOM     14  N   LIG    1        1.075   4.060   0.329  0.00  0.00    -0.500 NA
BRANCH  14  15
ATOM     15  C   LIG    1        1.642   5.409   0.203  0.00  0.00    +0.200 C 
BRANCH  15  16
ATOM     16  C   LIG    1        3.169   5.322   0.189  0.00  0.00    +0.170 C 
ATOM     17  C   LIG    1        3.775   6.742   0.199  0.00  0.00    +0.010 C 
ATOM     18  C   LIG    1        4.979   6.593  -0.771  0.00  0.00    +0.000 C 
ATOM     19  C   LIG    1        4.412   5.572  -1.789  0.00  0.00    +0.190 C 
ATOM     20  O   LIG    1        3.608   4.672  -1.010  0.00  0.00    -0.370 OA
ENDBRANCH  15  16
ENDBRANCH  14  15
BRANCH  14  21
ATOM     21  C   LIG    1        1.240   3.301  -0.918  0.00  0.00    +0.260 C 
BRANCH  21  22
ATOM     22  C   LIG    1        0.396   3.943  -2.021  0.00  0.00    +0.100 C 
ATOM     23  C   LIG    1        0.514   3.136  -3.339  0.00  0.00    +0.010 C 
ATOM     24  C   LIG    1        0.177   4.206  -4.406  0.00  0.00    +0.000 C 
ATOM     25  C   LIG    1        0.436   5.546  -3.691  0.00  0.00    +0.170 C 
ATOM     26  O   LIG    1        0.920   5.241  -2.373  0.00  0.00    -0.360 OA
ENDBRANCH  21  22
ENDBRANCH  14  21
ENDBRANCH   1  14
TORSDOF 6
