REMARK  Name = ZINCvU0000000GzK.0
REMARK                            x       y       z     vdW  Elec       q    Type
REMARK                         _______ _______ _______ _____ _____    ______ ____
ROOT
ATOM      1  C   LIG    1       -2.775   5.533  -8.247  0.00  0.00    +0.120 C 
ATOM      2  C   LIG    1       -2.894   4.508  -7.149  0.00  0.00    -0.010 A 
ATOM      3  C   LIG    1       -2.144   4.650  -6.003  0.00  0.00    +0.030 A 
ATOM      4  C   LIG    1       -2.243   3.709  -4.979  0.00  0.00    +0.150 A 
ATOM      5  C   LIG    1       -3.114   2.620  -5.144  0.00  0.00    -0.210 A 
ATOM      6  C   LIG    1       -3.214   1.607  -4.063  0.00  0.00    +0.460 A 
ATOM      7  C   LIG    1       -2.198   1.763  -3.017  0.00  0.00    -0.240 A 
ATOM      8  C   LIG    1       -1.400   2.870  -2.970  0.00  0.00    +0.090 A 
ATOM      9  C   LIG    1       -0.486   2.733  -1.822  0.00  0.00    +0.570 C 
ATOM     10  N   LIG    1       -0.721   1.571  -1.179  0.00  0.00    -0.590 N 
ATOM     11  O   LIG    1        0.356   3.548  -1.502  0.00  0.00    -0.480 OA
ATOM     12  C   LIG    1       -1.810   0.873  -1.882  0.00  0.00    +0.360 C 
ATOM     13  O   LIG    1       -4.059   0.729  -4.047  0.00  0.00    -0.420 OA
ATOM     14  C   LIG    1       -3.872   2.488  -6.308  0.00  0.00    +0.140 A 
ATOM     15  O   LIG    1       -1.499   3.876  -3.861  0.00  0.00    -0.180 OA
ATOM     16  C   LIG    1       -3.758   3.432  -7.305  0.00  0.00    -0.070 A 
ATOM     17 CL   LIG    1       -4.696   3.276  -8.758  0.00  0.00    -0.040 Cl
ENDROOT
BRANCH  12  18
ATOM     18  C   LIG    1       -2.983   0.674  -0.957  0.00  0.00    -0.090 A 
ATOM     19  C   LIG    1       -3.347   1.676  -0.077  0.00  0.00    +0.030 A 
ATOM     20  C   LIG    1       -4.426   1.496   0.769  0.00  0.00    +0.040 A 
ATOM     21  C   LIG    1       -5.134   0.309   0.743  0.00  0.00    +0.050 A 
ATOM     22  C   LIG    1       -4.766  -0.697  -0.134  0.00  0.00    -0.030 A 
ATOM     23 CL   LIG    1       -5.655  -2.187  -0.167  0.00  0.00    -0.060 Cl
ATOM     24  C   LIG    1       -3.690  -0.513  -0.984  0.00  0.00    +0.060 A 
ENDBRANCH  12  18
BRANCH  10  25
ATOM     25  C   LIG    1       -0.013   1.086   0.008  0.00  0.00    +0.410 C 
BRANCH  25  26
ATOM     26  C   LIG    1       -0.718   1.572   1.248  0.00  0.00    -0.180 A 
ATOM     27  C   LIG    1       -0.366   2.781   1.827  0.00  0.00    +0.090 A 
ATOM     28  C   LIG    1       -1.046   3.191   2.965  0.00  0.00    -0.040 A 
ATOM     29  C   LIG    1       -2.037   2.381   3.485  0.00  0.00    +0.270 A 
ATOM     30  N   LIG    1       -2.342   1.234   2.910  0.00  0.00    -0.480 NA
ATOM     31  C   LIG    1       -1.721   0.815   1.825  0.00  0.00    +0.280 A 
ENDBRANCH  25  26
ENDBRANCH  10  25
TORSDOF 3
