REMARK  Name = ZINCtV00000L6l9q.0
REMARK                            x       y       z     vdW  Elec       q    Type
REMARK                         _______ _______ _______ _____ _____    ______ ____
ROOT
ATOM      1  N   LIG    1        3.585   2.124  -0.022  0.00  0.00    -0.460 N 
ATOM      2  C   LIG    1        4.153   2.475  -1.193  0.00  0.00    +0.520 C 
ATOM      3  O   LIG    1        5.195   3.094  -1.201  0.00  0.00    -0.460 OA
ENDROOT
BRANCH   1   4
ATOM      4  C   LIG    1        4.194   2.472   1.175  0.00  0.00    +0.320 A 
ATOM      5  N   LIG    1        3.732   2.191   2.343  0.00  0.00    -0.490 NA
ATOM      6  C   LIG    1        4.441   2.593   3.416  0.00  0.00    +0.100 A 
ATOM      7  C   LIG    1        4.154   2.407   4.785  0.00  0.00    +0.060 A 
ATOM      8  C   LIG    1        5.001   2.900   5.745  0.00  0.00    +0.040 A 
ATOM      9  C   LIG    1        6.151   3.587   5.388  0.00  0.00    +0.030 A 
ATOM     10  C   LIG    1        6.452   3.781   4.058  0.00  0.00    +0.060 A 
ATOM     11  C   LIG    1        5.604   3.288   3.069  0.00  0.00    -0.220 A 
ATOM     12  S   LIG    1        5.702   3.366   1.312  0.00  0.00    +0.170 S 
ENDBRANCH   1   4
BRANCH   1  20
ATOM     13  C   LIG    1        1.148   3.594   0.010  0.00  0.00    +0.100 C 
ATOM     14  C   LIG    1        1.169   2.087   0.002  0.00  0.00    -0.060 A 
ATOM     15  C   LIG    1       -0.017   1.379   0.010  0.00  0.00    +0.010 A 
ATOM     16  C   LIG    1        0.002  -0.004   0.002  0.00  0.00    +0.040 A 
ATOM     17  C   LIG    1        1.207  -0.682  -0.013  0.00  0.00    +0.010 A 
ATOM     18  C   LIG    1        2.396   0.021  -0.021  0.00  0.00    -0.060 A 
ATOM     19  C   LIG    1        3.709  -0.719  -0.039  0.00  0.00    +0.090 C 
ATOM     20  C   LIG    1        2.381   1.409  -0.013  0.00  0.00    +0.100 A 
ENDBRANCH   1  20
BRANCH   2  21
ATOM     21  C   LIG    1        3.491   2.097  -2.494  0.00  0.00    +0.270 C 
BRANCH  21  22
ATOM     22  O   LIG    1        4.279   2.577  -3.586  0.00  0.00    -0.290 OA
BRANCH  22  23
ATOM     23  C   LIG    1        3.819   2.318  -4.838  0.00  0.00    +0.130 A 
ATOM     24  C   LIG    1        2.638   1.612  -5.013  0.00  0.00    -0.060 A 
ATOM     25  C   LIG    1        2.170   1.354  -6.287  0.00  0.00    +0.070 A 
ATOM     26  C   LIG    1        2.884   1.791  -7.388  0.00  0.00    -0.070 A 
ATOM     27  C   LIG    1        4.065   2.491  -7.216  0.00  0.00    +0.070 A 
ATOM     28 CL   LIG    1        2.297   1.460  -8.988  0.00  0.00    -0.070 Cl
ATOM     29  C   LIG    1        4.533   2.756  -5.944  0.00  0.00    +0.010 A 
ENDBRANCH  22  23
ENDBRANCH  21  22
ENDBRANCH   2  21
TORSDOF 5
