REMARK  Name = ZINCqH0000001Rmq.0
REMARK                            x       y       z     vdW  Elec       q    Type
REMARK                         _______ _______ _______ _____ _____    ______ ____
ROOT
ATOM      1  C   LIG    1        0.508   6.045  -0.983  0.00  0.00    +0.080 C 
ATOM      2  C   LIG    1       -0.268   5.426   0.182  0.00  0.00    +0.060 C 
ATOM      3  C   LIG    1       -0.283   3.903   0.027  0.00  0.00    +0.210 C 
ATOM      4  N   LIG    1        1.096   3.399   0.010  0.00  0.00    -0.470 N 
ATOM      5  C   LIG    1        1.848   3.943  -1.128  0.00  0.00    +0.200 C 
ATOM      6  C   LIG    1        1.925   5.467  -1.007  0.00  0.00    +0.060 C 
ENDROOT
BRANCH   4   7
ATOM      7  C   LIG    1        1.118   2.013   0.002  0.00  0.00    +0.360 A 
ATOM      8  C   LIG    1        2.333   1.324  -0.013  0.00  0.00    -0.100 A 
ATOM      9  C   LIG    1        2.307  -0.058  -0.020  0.00  0.00    +0.340 A 
ATOM     10  N   LIG    1        1.140  -0.684  -0.013  0.00  0.00    -0.530 NA
ATOM     11  C   LIG    1        0.002  -0.004   0.002  0.00  0.00    +0.390 A 
ATOM     12  N   LIG    1       -0.016   1.321   0.009  0.00  0.00    -0.550 NA
BRANCH  11  13
ATOM     13  C   LIG    1       -1.283  -0.745   0.011  0.00  0.00    -0.050 A 
ATOM     14  C   LIG    1       -2.491  -0.050   0.032  0.00  0.00    +0.060 A 
ATOM     15  C   LIG    1       -3.683  -0.744   0.034  0.00  0.00    +0.000 A 
ATOM     16  C   LIG    1       -3.681  -2.127   0.027  0.00  0.00    +0.030 A 
ATOM     17  C   LIG    1       -2.486  -2.822   0.012  0.00  0.00    +0.000 A 
ATOM     18  C   LIG    1       -1.287  -2.139   0.003  0.00  0.00    +0.070 A 
ENDBRANCH  11  13
ENDBRANCH   4   7
BRANCH   1  23
ATOM     19  N   LIG    1        0.098   8.474  -1.661  0.00  0.00    -0.470 N 
ATOM     20  C   LIG    1        0.376   9.675  -1.099  0.00  0.00    +0.360 A 
ATOM     21  N   LIG    1        0.995   9.443   0.027  0.00  0.00    -0.300 NA
ATOM     22  N   LIG    1        1.114   8.175   0.202  0.00  0.00    -0.290 NA
ATOM     23  C   LIG    1        0.577   7.540  -0.804  0.00  0.00    +0.180 A 
BRANCH  19  25
ATOM     24  C   LIG    1       -1.988   8.843  -2.883  0.00  0.00    +0.060 C 
ATOM     25  C   LIG    1       -0.585   8.235  -2.934  0.00  0.00    +0.230 C 
ATOM     26  C   LIG    1        0.210   8.882  -4.069  0.00  0.00    +0.060 C 
ENDBRANCH  19  25
ENDBRANCH   1  23
TORSDOF 4
