REMARK  Name = ZINCpe000000VJdH.0
REMARK                            x       y       z     vdW  Elec       q    Type
REMARK                         _______ _______ _______ _____ _____    ______ ____
ROOT
ATOM      1  C   LIG    1       -0.057   5.184   1.223  0.00  0.00    +0.440 A 
ATOM      2  N   LIG    1        1.063   5.848   1.315  0.00  0.00    -0.320 NA
ATOM      3  N   LIG    1        1.109   7.242   1.328  0.00  0.00    -0.290 N 
ATOM      4  C   LIG    1        2.127   8.130   1.414  0.00  0.00    +0.220 A 
ATOM      5  N   LIG    1        1.610   9.332   1.381  0.00  0.00    -0.270 NA
ATOM      6  N   LIG    1        0.329   9.259   1.280  0.00  0.00    -0.250 NA
ATOM      7  C   LIG    1        3.592   7.796   1.527  0.00  0.00    +0.200 C 
ATOM      8  C   LIG    1       -0.034   7.993   1.244  0.00  0.00    +0.150 A 
ATOM      9  C   LIG    1       -1.327   7.310   1.138  0.00  0.00    +0.020 A 
ATOM     10  C   LIG    1       -2.528   8.012   1.048  0.00  0.00    +0.070 A 
ATOM     11  C   LIG    1       -3.715   7.319   0.950  0.00  0.00    +0.050 A 
ATOM     12  C   LIG    1       -3.725   5.930   0.940  0.00  0.00    +0.030 A 
ATOM     13  C   LIG    1       -2.550   5.217   1.028  0.00  0.00    +0.050 A 
ATOM     14  C   LIG    1       -1.336   5.897   1.122  0.00  0.00    -0.110 A 
ENDROOT
BRANCH   1  19
ATOM     15  C   LIG    1       -0.668  -0.014   0.216  0.00  0.00    +0.520 C 
ATOM     16  N   LIG    1       -0.686   1.333   0.223  0.00  0.00    -0.610 N 
ATOM     17  C   LIG    1       -1.738   2.063   0.945  0.00  0.00    +0.270 C 
ATOM     18  C   LIG    1       -1.067   3.030   1.934  0.00  0.00    +0.290 C 
ATOM     19  N   LIG    1       -0.038   3.796   1.216  0.00  0.00    -0.600 N 
ATOM     20  C   LIG    1        1.010   3.066   0.489  0.00  0.00    +0.300 C 
ATOM     21  C   LIG    1        0.342   2.099  -0.495  0.00  0.00    +0.290 C 
ATOM     22  O   LIG    1        0.202  -0.606  -0.388  0.00  0.00    -0.510 OA
BRANCH  15  23
ATOM     23  C   LIG    1       -1.729  -0.786   0.957  0.00  0.00    +0.200 C 
BRANCH  23  25
ATOM     24  C   LIG    1       -2.451  -3.014   1.468  0.00  0.00    +0.220 C 
ATOM     25  O   LIG    1       -1.496  -2.187   0.800  0.00  0.00    -0.370 OA
ENDBRANCH  23  25
ENDBRANCH  15  23
ENDBRANCH   1  19
TORSDOF 3
