REMARK  Name = ZINCqH0000004RK8.0
REMARK                            x       y       z     vdW  Elec       q    Type
REMARK                         _______ _______ _______ _____ _____    ______ ____
ROOT
ATOM      1  N   LIG    1        6.153   1.068  -2.661  0.00  0.00    -0.640 N 
ATOM      2  H   LIG    1        5.661   1.035  -3.496  0.00  0.00    +0.420 HD
ATOM      3  C   LIG    1        5.492   1.009  -1.488  0.00  0.00    +0.520 C 
ATOM      4  O   LIG    1        6.107   1.051  -0.443  0.00  0.00    -0.460 OA
ENDROOT
BRANCH   1  13
ATOM      5  N   LIG    1        8.304   1.243  -3.798  0.00  0.00    -0.500 N 
ATOM      6  C   LIG    1        9.622   1.344  -3.387  0.00  0.00    +0.050 A 
ATOM      7  C   LIG    1       10.833   1.443  -4.055  0.00  0.00    +0.010 A 
ATOM      8  C   LIG    1       12.008   1.530  -3.337  0.00  0.00    +0.030 A 
ATOM      9  C   LIG    1       11.987   1.520  -1.950  0.00  0.00    +0.010 A 
ATOM     10  C   LIG    1       10.793   1.422  -1.270  0.00  0.00    +0.060 A 
ATOM     11  C   LIG    1        9.595   1.333  -1.982  0.00  0.00    +0.060 A 
ATOM     12  N   LIG    1        8.292   1.235  -1.609  0.00  0.00    -0.470 NA
ATOM     13  C   LIG    1        7.533   1.176  -2.673  0.00  0.00    +0.500 A 
BRANCH   5  15
ATOM     14  C   LIG    1        7.546   2.642  -5.656  0.00  0.00    +0.040 C 
ATOM     15  C   LIG    1        7.825   1.214  -5.182  0.00  0.00    +0.290 C 
ENDBRANCH   5  15
ENDBRANCH   1  13
BRANCH   3  16
ATOM     16  C   LIG    1        3.990   0.891  -1.474  0.00  0.00    +0.090 C 
BRANCH  16  17
ATOM     17  C   LIG    1        3.495   0.844  -0.027  0.00  0.00    +0.230 C 
BRANCH  17  18
ATOM     18  C   LIG    1        1.993   0.726  -0.013  0.00  0.00    +0.180 A 
ATOM     19  N   LIG    1        1.300  -0.385  -0.012  0.00  0.00    -0.470 NA
ATOM     20  C   LIG    1        0.002  -0.004   0.002  0.00  0.00    +0.230 A 
ATOM     21  N   LIG    1       -0.016   1.304   0.009  0.00  0.00    -0.370 NA
ATOM     22  O   LIG    1        1.118   1.736   0.001  0.00  0.00    +0.090 OA
BRANCH  20  23
ATOM     23  C   LIG    1       -1.179  -0.900   0.009  0.00  0.00    -0.050 A 
ATOM     24  C   LIG    1       -1.076  -2.241   0.002  0.00  0.00    -0.020 A 
ATOM     25  S   LIG    1       -2.624  -2.959   0.013  0.00  0.00    +0.200 S 
ATOM     26  C   LIG    1       -3.410  -1.387   0.028  0.00  0.00    -0.060 A 
ATOM     27  C   LIG    1       -2.490  -0.424   0.030  0.00  0.00    +0.040 A 
ENDBRANCH  20  23
ENDBRANCH  17  18
ENDBRANCH  16  17
ENDBRANCH   3  16
TORSDOF 6
