REMARK  Name = ZINCrg00000BgOpo.0
REMARK                            x       y       z     vdW  Elec       q    Type
REMARK                         _______ _______ _______ _____ _____    ______ ____
ROOT
ATOM      1  O   LIG    1       -4.947   1.398   1.494  0.00  0.00    -0.530 OA
ATOM      2  C   LIG    1       -4.157   1.482   2.410  0.00  0.00    +0.520 C 
ATOM      3  N   LIG    1       -4.444   2.253   3.478  0.00  0.00    -0.620 N 
ATOM      4  C   LIG    1       -3.499   2.360   4.599  0.00  0.00    +0.270 C 
ATOM      5  C   LIG    1       -3.181   3.848   4.826  0.00  0.00    +0.290 C 
ATOM      6  N   LIG    1       -4.447   4.592   4.893  0.00  0.00    -0.610 N 
ATOM      7  C   LIG    1       -5.394   4.481   3.775  0.00  0.00    +0.270 C 
ATOM      8  C   LIG    1       -4.733   5.363   5.961  0.00  0.00    +0.530 C 
ATOM      9  O   LIG    1       -3.980   5.387   6.911  0.00  0.00    -0.520 OA
ATOM     10  C   LIG    1       -5.710   2.997   3.545  0.00  0.00    +0.280 C 
ENDROOT
BRANCH   8  11
ATOM     11  C   LIG    1       -5.989   6.195   5.974  0.00  0.00    +0.000 C 
ATOM     12  C   LIG    1       -5.745   7.530   5.249  0.00  0.00    +0.090 C 
ATOM     13  C   LIG    1       -6.910   8.488   5.569  0.00  0.00    -0.300 C 
ATOM     14  S   LIG    1       -7.521   7.963   7.211  0.00  0.00    +2.390 S 
ATOM     15  O   LIG    1       -7.218   8.967   8.169  0.00  0.00    -0.930 OA
ATOM     16  O   LIG    1       -8.852   7.479   7.086  0.00  0.00    -0.930 OA
ATOM     17  C   LIG    1       -6.379   6.546   7.433  0.00  0.00    -0.290 C 
ENDBRANCH   8  11
BRANCH   2  18
ATOM     18  C   LIG    1       -2.856   0.725   2.355  0.00  0.00    +0.060 C 
BRANCH  18  19
ATOM     19  C   LIG    1       -2.781  -0.066   1.048  0.00  0.00    +0.110 C 
BRANCH  19  20
ATOM     20  C   LIG    1       -1.479  -0.823   0.993  0.00  0.00    -0.070 A 
ATOM     21  C   LIG    1       -0.362  -0.237   0.427  0.00  0.00    +0.040 A 
ATOM     22  C   LIG    1        0.831  -0.931   0.370  0.00  0.00    +0.030 A 
ATOM     23  C   LIG    1        0.910  -2.215   0.880  0.00  0.00    +0.060 A 
ATOM     24  C   LIG    1       -0.211  -2.804   1.448  0.00  0.00    +0.070 A 
ATOM     25  F   LIG    1       -0.137  -4.057   1.947  0.00  0.00    -0.130 F 
ATOM     26  F   LIG    1        2.076  -2.895   0.825  0.00  0.00    -0.130 F 
ATOM     27  C   LIG    1       -1.404  -2.106   1.503  0.00  0.00    +0.030 A 
ENDBRANCH  19  20
ENDBRANCH  18  19
ENDBRANCH   2  18
TORSDOF 4
