REMARK  Name = ZINCwl0000000jeJ.0
REMARK                            x       y       z     vdW  Elec       q    Type
REMARK                         _______ _______ _______ _____ _____    ______ ____
ROOT
ATOM      1  C   LIG    1        1.620  -1.321  -3.098  0.00  0.00    +0.600 C 
ATOM      2  N   LIG    1        1.279  -0.716  -1.943  0.00  0.00    -0.620 N 
ATOM      3  C   LIG    1       -0.083  -0.328  -1.549  0.00  0.00    +0.240 C 
ATOM      4  C   LIG    1        0.009   0.304  -0.144  0.00  0.00    +0.260 C 
ATOM      5  C   LIG    1        1.335  -0.278   0.412  0.00  0.00    -0.080 C 
ATOM      6  C   LIG    1        1.121  -1.677   0.992  0.00  0.00    +0.060 C 
ATOM      7  C   LIG    1        1.950   0.658   1.455  0.00  0.00    +0.050 C 
ATOM      8  C   LIG    1        2.210  -0.334  -0.866  0.00  0.00    +0.270 C 
ATOM      9  O   LIG    1        2.791  -1.516  -3.360  0.00  0.00    -0.510 OA
ENDROOT
BRANCH   1  13
ATOM     10  C   LIG    1       -1.578  -0.225  -6.645  0.00  0.00    +0.330 C 
ATOM     11  N   LIG    1       -0.968  -1.214  -5.753  0.00  0.00    -0.490 N 
ATOM     12  C   LIG    1       -0.017  -0.827  -4.883  0.00  0.00    +0.320 A 
ATOM     13  C   LIG    1        0.572  -1.748  -4.044  0.00  0.00    -0.230 A 
ATOM     14  C   LIG    1        0.164  -3.109  -4.088  0.00  0.00    +0.040 A 
ATOM     15  C   LIG    1       -0.803  -3.473  -4.961  0.00  0.00    -0.190 A 
ATOM     16  C   LIG    1       -1.312  -4.885  -5.072  0.00  0.00    +0.100 C 
ATOM     17  C   LIG    1       -0.327  -5.864  -4.436  0.00  0.00    +0.030 C 
ATOM     18  C   LIG    1        0.012  -5.360  -3.027  0.00  0.00    +0.020 C 
ATOM     19  C   LIG    1        0.838  -4.082  -3.160  0.00  0.00    +0.080 C 
ATOM     20  C   LIG    1       -1.371  -2.494  -5.809  0.00  0.00    +0.520 A 
ATOM     21  O   LIG    1       -2.238  -2.817  -6.604  0.00  0.00    -0.530 OA
ENDBRANCH   1  13
BRANCH   4  22
ATOM     22  N   LIG    1        0.081   1.764  -0.235  0.00  0.00    -0.720 N 
ATOM     23  H   LIG    1        0.944   2.207  -0.249  0.00  0.00    +0.400 HD
ATOM     24  C   LIG    1       -1.052   2.491  -0.306  0.00  0.00    +0.510 C 
ATOM     25  O   LIG    1       -2.130   1.937  -0.294  0.00  0.00    -0.510 OA
BRANCH  24  26
ATOM     26  C   LIG    1       -0.978   3.994  -0.400  0.00  0.00    +0.010 C 
ATOM     27  C   LIG    1       -0.259   4.550   0.831  0.00  0.00    +0.270 C 
ATOM     28  N   LIG    1       -1.147   5.455   1.564  0.00  0.00    -0.370 N 
ATOM     29  C   LIG    1       -2.337   4.741   2.035  0.00  0.00    +0.250 C 
ATOM     30  C   LIG    1       -3.124   4.191   0.844  0.00  0.00    +0.070 C 
ATOM     31  C   LIG    1       -1.538   6.588   0.722  0.00  0.00    +0.250 C 
ATOM     32  C   LIG    1       -2.304   6.089  -0.506  0.00  0.00    +0.070 C 
ATOM     33  H   LIG    1       -0.650   5.811   2.366  0.00  0.00    +0.430 HD
ATOM     34  C   LIG    1       -2.396   4.576  -0.451  0.00  0.00    +0.040 C 
ENDBRANCH  24  26
ENDBRANCH   4  22
TORSDOF 3
