REMARK  Name = ZINCvU000000064R.0
REMARK                            x       y       z     vdW  Elec       q    Type
REMARK                         _______ _______ _______ _____ _____    ______ ____
ROOT
ATOM      1  C   LIG    1        2.929   7.816  -0.145  0.00  0.00    +0.520 C 
ATOM      2  N   LIG    1        3.188   6.493  -0.175  0.00  0.00    -0.610 N 
ATOM      3  H   LIG    1        4.101   6.180  -0.265  0.00  0.00    +0.430 HD
ATOM      4  O   LIG    1        1.786   8.207  -0.032  0.00  0.00    -0.490 OA
ENDROOT
BRANCH   2   5
ATOM      5  C   LIG    1        2.146   5.579  -0.077  0.00  0.00    +0.270 A 
ATOM      6  N   LIG    1        2.277   4.289  -0.095  0.00  0.00    -0.490 NA
ATOM      7  C   LIG    1        1.169   3.570   0.010  0.00  0.00    +0.130 A 
ATOM      8  C   LIG    1        0.030   4.278   0.118  0.00  0.00    -0.110 A 
ATOM      9  S   LIG    1        0.442   5.991   0.090  0.00  0.00    +0.210 S 
BRANCH   7  10
ATOM     10  C   LIG    1        1.182   2.087   0.002  0.00  0.00    -0.030 A 
ATOM     11  C   LIG    1       -0.017   1.376   0.010  0.00  0.00    +0.020 A 
ATOM     12  C   LIG    1        0.002  -0.004   0.002  0.00  0.00    +0.010 A 
ATOM     13  C   LIG    1        1.208  -0.682  -0.013  0.00  0.00    -0.080 A 
ATOM     14  C   LIG    1        2.401   0.018  -0.021  0.00  0.00    -0.090 A 
ATOM     15  C   LIG    1        3.710  -0.728  -0.038  0.00  0.00    +0.090 C 
ATOM     16  C   LIG    1        1.221  -2.189  -0.021  0.00  0.00    +0.090 C 
ATOM     17  C   LIG    1        2.394   1.398  -0.014  0.00  0.00    +0.050 A 
ENDBRANCH   7  10
ENDBRANCH   2   5
BRANCH   1  18
ATOM     18  C   LIG    1        4.058   8.807  -0.251  0.00  0.00    +0.270 C 
BRANCH  18  19
ATOM     19  N   LIG    1        3.520  10.169  -0.193  0.00  0.00    -0.710 N 
ATOM     20  H   LIG    1        2.672  10.336   0.247  0.00  0.00    +0.410 HD
ATOM     21  C   LIG    1        4.203  11.188  -0.751  0.00  0.00    +0.570 C 
ATOM     22  O   LIG    1        5.266  10.977  -1.302  0.00  0.00    -0.530 OA
BRANCH  21  23
ATOM     23  C   LIG    1        3.660  12.561  -0.693  0.00  0.00    -0.140 A 
ATOM     24  C   LIG    1        2.437  12.806  -0.066  0.00  0.00    +0.040 A 
ATOM     25  C   LIG    1        1.938  14.091  -0.011  0.00  0.00    +0.010 A 
ATOM     26  C   LIG    1        2.641  15.134  -0.585  0.00  0.00    +0.040 A 
ATOM     27  C   LIG    1        3.852  14.898  -1.212  0.00  0.00    -0.090 A 
ATOM     28  C   LIG    1        4.612  16.041  -1.835  0.00  0.00    +0.090 C 
ATOM     29  C   LIG    1        4.365  13.619  -1.270  0.00  0.00    +0.080 A 
ENDBRANCH  21  23
ENDBRANCH  18  19
BRANCH  18  30
ATOM     30  C   LIG    1        5.034   8.595   0.909  0.00  0.00    +0.060 C 
BRANCH  30  31
ATOM     31  C   LIG    1        6.242   9.516   0.734  0.00  0.00    +0.100 C 
BRANCH  31  33
ATOM     32  C   LIG    1        8.742  10.424   1.729  0.00  0.00    +0.140 C 
ATOM     33  S   LIG    1        7.399   9.265   2.108  0.00  0.00    -0.270 S 
ENDBRANCH  31  33
ENDBRANCH  30  31
ENDBRANCH  18  30
ENDBRANCH   1  18
TORSDOF 8
