REMARK  Name = ZINCrH00000lp1e3.0
REMARK                            x       y       z     vdW  Elec       q    Type
REMARK                         _______ _______ _______ _____ _____    ______ ____
ROOT
ATOM      1  C   LIG    1        6.260  10.104  -0.569  0.00  0.00    +0.190 C 
ATOM      2  C   LIG    1        5.310   8.941  -0.446  0.00  0.00    +0.300 A 
ATOM      3  N   LIG    1        5.665   7.689  -0.402  0.00  0.00    -0.490 NA
ATOM      4  C   LIG    1        4.562   6.904  -0.289  0.00  0.00    +0.070 A 
ATOM      5  C   LIG    1        4.370   5.523  -0.203  0.00  0.00    +0.030 A 
ATOM      6  C   LIG    1        3.090   5.015  -0.094  0.00  0.00    +0.150 A 
ATOM      7  C   LIG    1        1.991   5.871  -0.076  0.00  0.00    +0.060 A 
ATOM      8  C   LIG    1        2.169   7.235  -0.155  0.00  0.00    +0.040 A 
ATOM      9  C   LIG    1        3.448   7.761  -0.265  0.00  0.00    +0.040 A 
ATOM     10  N   LIG    1        3.954   9.046  -0.366  0.00  0.00    -0.450 N 
ENDROOT
BRANCH  10  11
ATOM     11  C   LIG    1        3.210  10.233  -0.382  0.00  0.00    +0.120 A 
ATOM     12  C   LIG    1        2.476  10.609   0.735  0.00  0.00    +0.020 A 
ATOM     13  C   LIG    1        1.748  11.783   0.718  0.00  0.00    +0.030 A 
ATOM     14  C   LIG    1        1.741  12.577  -0.413  0.00  0.00    +0.020 A 
ATOM     15  C   LIG    1        2.466  12.203  -1.529  0.00  0.00    +0.020 A 
ATOM     16  C   LIG    1        3.201  11.033  -1.517  0.00  0.00    +0.020 A 
ENDBRANCH  10  11
BRANCH   6  17
ATOM     17  N   LIG    1        2.895   3.631  -0.007  0.00  0.00    -0.630 N 
ATOM     18  H   LIG    1        3.496   3.027  -0.470  0.00  0.00    +0.420 HD
BRANCH  17  19
ATOM     19  C   LIG    1        1.848   3.126   0.740  0.00  0.00    +0.510 A 
ATOM     20  C   LIG    1        1.565   1.746   0.746  0.00  0.00    -0.330 A 
ATOM     21  C   LIG    1        2.133   0.614   0.123  0.00  0.00    +0.300 A 
ATOM     22  N   LIG    1        1.459  -0.439   0.489  0.00  0.00    -0.250 NA
ATOM     23  N   LIG    1        0.429  -0.062   1.359  0.00  0.00    -0.380 N 
ATOM     24  C   LIG    1       -0.543  -0.964   1.982  0.00  0.00    +0.370 C 
ATOM     25  C   LIG    1        0.485   1.290   1.526  0.00  0.00    +0.370 A 
ATOM     26  N   LIG    1       -0.221   2.176   2.227  0.00  0.00    -0.570 NA
ATOM     27  C   LIG    1        0.078   3.456   2.185  0.00  0.00    +0.600 A 
ATOM     28  N   LIG    1        1.081   3.931   1.469  0.00  0.00    -0.590 NA
ENDBRANCH  17  19
ENDBRANCH   6  17
TORSDOF 3
