REMARK  Name = ZINCrg00000SjSvN.0
REMARK                            x       y       z     vdW  Elec       q    Type
REMARK                         _______ _______ _______ _____ _____    ______ ____
ROOT
ATOM      1  C   LIG    1       -0.917   2.923   4.690  0.00  0.00    +0.610 C 
ATOM      2  N   LIG    1        0.328   2.882   5.205  0.00  0.00    -0.600 N 
ATOM      3  C   LIG    1        0.583   3.289   6.596  0.00  0.00    +0.290 C 
ATOM      4  C   LIG    1        1.377   2.169   7.287  0.00  0.00    +0.170 C 
ATOM      5  N   LIG    1        2.579   1.869   6.498  0.00  0.00    -0.530 NA
ATOM      6  C   LIG    1        2.228   1.356   5.167  0.00  0.00    +0.170 C 
ATOM      7  C   LIG    1        1.468   2.436   4.390  0.00  0.00    +0.290 C 
ATOM      8  O   LIG    1       -1.862   3.198   5.404  0.00  0.00    -0.530 OA
ENDROOT
BRANCH   1  11
ATOM      9  N   LIG    1       -0.743   2.205   1.195  0.00  0.00    -0.260 N 
ATOM     10  N   LIG    1       -0.199   2.432   2.342  0.00  0.00    -0.260 NA
ATOM     11  C   LIG    1       -1.133   2.632   3.258  0.00  0.00    -0.000 A 
ATOM     12  C   LIG    1       -2.367   2.515   2.604  0.00  0.00    -0.140 A 
ATOM     13  C   LIG    1       -3.771   2.638   3.131  0.00  0.00    +0.110 C 
ATOM     14  C   LIG    1       -4.718   2.052   2.075  0.00  0.00    +0.150 C 
ATOM     15  C   LIG    1       -6.160   2.437   2.412  0.00  0.00    +0.080 C 
ATOM     16  O   LIG    1       -4.379   2.561   0.783  0.00  0.00    -0.360 OA
ATOM     17  C   LIG    1       -3.142   2.064   0.252  0.00  0.00    +0.250 C 
ATOM     18  C   LIG    1       -2.769   2.847  -1.009  0.00  0.00    +0.070 C 
ATOM     19  C   LIG    1       -2.078   2.252   1.302  0.00  0.00    -0.020 A 
BRANCH   9  21
ATOM     20  C   LIG    1        0.351   3.266  -0.718  0.00  0.00    +0.050 C 
ATOM     21  C   LIG    1       -0.009   1.940  -0.045  0.00  0.00    +0.320 C 
ENDBRANCH   9  21
ENDBRANCH   1  11
BRANCH   5  22
ATOM     22  C   LIG    1        3.456   0.930   7.210  0.00  0.00    +0.320 C 
BRANCH  22  23
ATOM     23  C   LIG    1        3.991   1.589   8.456  0.00  0.00    +0.230 A 
ATOM     24  N   LIG    1        5.099   2.278   8.534  0.00  0.00    -0.300 NA
ATOM     25  N   LIG    1        5.214   2.711   9.866  0.00  0.00    -0.480 N 
ATOM     26  H   LIG    1        5.928   3.247  10.243  0.00  0.00    +0.440 HD
ATOM     27  C   LIG    1        4.139   2.229  10.514  0.00  0.00    +0.480 A 
ATOM     28  N   LIG    1        3.414   1.558   9.657  0.00  0.00    -0.540 NA
ENDBRANCH  22  23
ENDBRANCH   5  22
TORSDOF 4
