REMARK  Name = ZINCpe000000Tjjn.0
REMARK                            x       y       z     vdW  Elec       q    Type
REMARK                         _______ _______ _______ _____ _____    ______ ____
ROOT
ATOM      1  C   LIG    1       -0.252   5.430  -0.007  0.00  0.00    +0.610 C 
ATOM      2  N   LIG    1       -1.469   5.992   0.128  0.00  0.00    -0.600 N 
ATOM      3  C   LIG    1       -2.770   5.291   0.224  0.00  0.00    +0.280 C 
ATOM      4  C   LIG    1       -3.719   6.181  -0.612  0.00  0.00    -0.010 C 
ATOM      5  C   LIG    1       -3.227   7.610  -0.288  0.00  0.00    +0.130 C 
ATOM      6  C   LIG    1       -3.565   5.879  -2.104  0.00  0.00    +0.040 C 
ATOM      7  C   LIG    1       -1.778   7.432   0.204  0.00  0.00    +0.280 C 
ATOM      8  O   LIG    1       -0.151   4.228  -0.155  0.00  0.00    -0.520 OA
ENDROOT
BRANCH   1  11
ATOM      9  N   LIG    1        1.869   8.359   0.125  0.00  0.00    -0.340 N 
ATOM     10  N   LIG    1        0.847   7.582   0.089  0.00  0.00    -0.180 NA
ATOM     11  C   LIG    1        0.961   6.275   0.026  0.00  0.00    +0.020 A 
ATOM     12  C   LIG    1        2.242   5.673  -0.011  0.00  0.00    +0.130 A 
ATOM     13  C   LIG    1        3.337   6.484   0.021  0.00  0.00    -0.020 A 
ATOM     14  C   LIG    1        3.126   7.879   0.089  0.00  0.00    +0.480 A 
ATOM     15  O   LIG    1        4.076   8.643   0.119  0.00  0.00    -0.520 OA
BRANCH   9  16
ATOM     16  C   LIG    1        1.661   9.807   0.201  0.00  0.00    +0.320 C 
BRANCH  16  17
ATOM     17  C   LIG    1        1.575  10.385  -1.213  0.00  0.00    +0.000 C 
BRANCH  17  19
ATOM     18  C   LIG    1        1.273  12.475  -2.548  0.00  0.00    +0.030 C 
ATOM     19  C   LIG    1        1.358  11.897  -1.134  0.00  0.00    +0.020 C 
ENDBRANCH  17  19
ENDBRANCH  16  17
ENDBRANCH   9  16
ENDBRANCH   1  11
BRANCH   5  20
ATOM     20  N   LIG    1       -3.256   8.448  -1.494  0.00  0.00    -0.520 NA
ATOM     21  C   LIG    1       -2.507   9.696  -1.288  0.00  0.00    +0.150 C 
ATOM     22  C   LIG    1       -2.513  10.509  -2.585  0.00  0.00    +0.220 C 
ATOM     23  O   LIG    1       -3.865  10.749  -2.985  0.00  0.00    -0.380 OA
ATOM     24  C   LIG    1       -4.624   9.555  -3.195  0.00  0.00    +0.220 C 
ATOM     25  C   LIG    1       -4.639   8.732  -1.904  0.00  0.00    +0.140 C 
ENDBRANCH   5  20
TORSDOF 5
