REMARK  Name = ZINCrg000000pze7.0
REMARK                            x       y       z     vdW  Elec       q    Type
REMARK                         _______ _______ _______ _____ _____    ______ ____
ROOT
ATOM      1  N   LIG    1       -1.126  -0.816   0.008  0.00  0.00    -0.510 N 
ATOM      2  C   LIG    1       -0.992  -2.157  -0.000  0.00  0.00    +0.520 C 
ATOM      3  O   LIG    1        0.114  -2.655  -0.013  0.00  0.00    -0.500 OA
ATOM      4  C   LIG    1       -2.462  -0.213   0.024  0.00  0.00    +0.320 C 
ENDROOT
BRANCH   1   8
ATOM      5  C   LIG    1        1.153   1.905   0.001  0.00  0.00    +0.100 A 
ATOM      6  C   LIG    1        2.208   1.089  -0.013  0.00  0.00    -0.120 A 
ATOM      7  S   LIG    1        1.615  -0.570  -0.016  0.00  0.00    +0.250 S 
ATOM      8  C   LIG    1        0.002  -0.004   0.002  0.00  0.00    +0.240 A 
ATOM      9  N   LIG    1       -0.015   1.292   0.009  0.00  0.00    -0.490 NA
BRANCH   5  10
ATOM     10  C   LIG    1        1.285   3.407   0.008  0.00  0.00    +0.210 C 
BRANCH  10  11
ATOM     11  C   LIG    1        0.506   3.985  -1.145  0.00  0.00    +0.460 C 
ATOM     12  O   LIG    1       -0.095   3.253  -1.895  0.00  0.00    -0.490 OA
BRANCH  11  14
ATOM     13  C   LIG    1       -0.292   5.799  -2.469  0.00  0.00    +0.260 C 
ATOM     14  O   LIG    1        0.479   5.313  -1.338  0.00  0.00    -0.360 OA
ENDBRANCH  11  14
ENDBRANCH  10  11
ENDBRANCH   5  10
ENDBRANCH   1   8
BRANCH   2  15
ATOM     15  C   LIG    1       -2.215  -3.037   0.007  0.00  0.00    +0.070 C 
BRANCH  15  16
ATOM     16  C   LIG    1       -1.787  -4.505  -0.005  0.00  0.00    +0.360 C 
BRANCH  16  17
ATOM     17  N   LIG    1       -2.977  -5.361   0.002  0.00  0.00    -0.460 N 
ATOM     18  N   LIG    1       -3.528  -5.779   1.216  0.00  0.00    +0.080 NA
ATOM     19  N   LIG    1       -4.571  -6.524   1.289  0.00  0.00    -0.190 NA
ATOM     20  C   LIG    1       -5.213  -6.971   0.181  0.00  0.00    +0.060 A 
ATOM     21  C   LIG    1       -6.344  -7.786   0.276  0.00  0.00    +0.080 A 
ATOM     22  C   LIG    1       -6.970  -8.222  -0.870  0.00  0.00    +0.070 A 
ATOM     23  C   LIG    1       -6.490  -7.863  -2.123  0.00  0.00    +0.040 A 
ATOM     24  C   LIG    1       -5.377  -7.060  -2.243  0.00  0.00    +0.100 A 
ATOM     25  C   LIG    1       -4.729  -6.608  -1.095  0.00  0.00    -0.150 A 
ATOM     26  C   LIG    1       -3.537  -5.749  -1.168  0.00  0.00    +0.530 A 
ATOM     27  O   LIG    1       -3.072  -5.402  -2.238  0.00  0.00    -0.500 OA
ENDBRANCH  16  17
ENDBRANCH  15  16
ENDBRANCH   2  15
TORSDOF 7
