REMARK  Name = ZINCvU00000009uS.0
REMARK                            x       y       z     vdW  Elec       q    Type
REMARK                         _______ _______ _______ _____ _____    ______ ____
ROOT
ATOM      1  C   LIG    1        3.679  -0.278   0.148  0.00  0.00    +0.190 C 
ATOM      2  C   LIG    1        3.534  -1.620   0.337  0.00  0.00    -0.140 C 
ENDROOT
BRANCH   1   8
ATOM      3  C   LIG    1        2.420   1.856   0.393  0.00  0.00    +0.160 A 
ATOM      4  C   LIG    1        1.305   2.632   0.122  0.00  0.00    -0.090 A 
ATOM      5  C   LIG    1        0.282   2.128  -0.658  0.00  0.00    +0.070 A 
ATOM      6  C   LIG    1        0.360   0.846  -1.177  0.00  0.00    -0.030 A 
ATOM      7  C   LIG    1        1.460   0.058  -0.920  0.00  0.00    +0.090 A 
ATOM      8  C   LIG    1        2.505   0.554  -0.131  0.00  0.00    -0.120 A 
BRANCH   3  10
ATOM      9  C   LIG    1        3.268   3.681   1.655  0.00  0.00    +0.250 C 
ATOM     10  O   LIG    1        3.425   2.350   1.159  0.00  0.00    -0.310 OA
ENDBRANCH   3  10
ENDBRANCH   1   8
BRANCH   2  11
ATOM     11  C   LIG    1        2.180  -2.215   0.409  0.00  0.00    -0.040 A 
ATOM     12  C   LIG    1        1.334  -1.903   1.473  0.00  0.00    +0.020 A 
ATOM     13  C   LIG    1        0.071  -2.457   1.532  0.00  0.00    +0.000 A 
ATOM     14  C   LIG    1       -0.351  -3.329   0.544  0.00  0.00    +0.010 A 
ATOM     15  C   LIG    1        0.486  -3.647  -0.510  0.00  0.00    +0.010 A 
ATOM     16  C   LIG    1        1.748  -3.095  -0.583  0.00  0.00    +0.020 A 
ENDBRANCH   2  11
BRANCH   2  17
ATOM     17  C   LIG    1        4.721  -2.475   0.469  0.00  0.00    +0.520 C 
ATOM     18  O   LIG    1        5.832  -1.986   0.410  0.00  0.00    -0.510 OA
BRANCH  17  19
ATOM     19  O   LIG    1        4.577  -3.803   0.656  0.00  0.00    -0.320 OA
BRANCH  19  20
ATOM     20  C   LIG    1        5.793  -4.587   0.778  0.00  0.00    +0.270 C 
BRANCH  20  21
ATOM     21  C   LIG    1        5.438  -6.037   0.981  0.00  0.00    +0.510 C 
ATOM     22  N   LIG    1        6.413  -6.957   1.120  0.00  0.00    -0.660 N 
ATOM     23  H   LIG    1        7.342  -6.697   1.019  0.00  0.00    +0.410 HD
ATOM     24  O   LIG    1        4.274  -6.377   1.018  0.00  0.00    -0.490 OA
BRANCH  22  25
ATOM     25  C   LIG    1        6.085  -8.286   1.410  0.00  0.00    +0.150 A 
ATOM     26  C   LIG    1        4.850  -8.592   1.965  0.00  0.00    +0.010 A 
ATOM     27  C   LIG    1        4.530  -9.905   2.250  0.00  0.00    -0.070 A 
ATOM     28  C   LIG    1        5.437 -10.914   1.984  0.00  0.00    -0.010 A 
ATOM     29  C   LIG    1        6.668 -10.612   1.431  0.00  0.00    +0.030 A 
ATOM     30  C   LIG    1        3.189 -10.239   2.853  0.00  0.00    +0.100 C 
ATOM     31  C   LIG    1        6.992  -9.302   1.137  0.00  0.00    -0.120 A 
ATOM     32  C   LIG    1        8.332  -8.974   0.529  0.00  0.00    +0.080 C 
ENDBRANCH  22  25
ENDBRANCH  20  21
ENDBRANCH  19  20
ENDBRANCH  17  19
ENDBRANCH   2  17
TORSDOF 8
