REMARK  Name = ZINCtj00000nxmJp.0
REMARK                            x       y       z     vdW  Elec       q    Type
REMARK                         _______ _______ _______ _____ _____    ______ ____
ROOT
ATOM      1  N   LIG    1        0.556   1.363  -2.272  0.00  0.00    -0.730 N 
ATOM      2  H   LIG    1        1.522   1.435  -2.226  0.00  0.00    +0.410 HD
ATOM      3  C   LIG    1       -0.036   0.951  -3.410  0.00  0.00    +0.570 C 
ATOM      4  O   LIG    1       -1.247   0.862  -3.468  0.00  0.00    -0.510 OA
ENDROOT
BRANCH   1   8
ATOM      5  N   LIG    1       -0.648   3.371   1.233  0.00  0.00    -0.380 N 
ATOM      6  C   LIG    1       -0.260   1.963   1.380  0.00  0.00    +0.270 C 
ATOM      7  C   LIG    1        0.572   1.530   0.170  0.00  0.00    +0.060 C 
ATOM      8  C   LIG    1       -0.261   1.703  -1.103  0.00  0.00    +0.250 C 
ATOM      9  C   LIG    1       -0.721   3.160  -1.207  0.00  0.00    +0.050 C 
ATOM     10  C   LIG    1       -1.506   3.532   0.053  0.00  0.00    +0.260 C 
ATOM     11  H   LIG    1        0.181   3.937   1.125  0.00  0.00    +0.430 HD
BRANCH   5  12
ATOM     12  C   LIG    1       -1.380   3.801   2.432  0.00  0.00    +0.240 C 
BRANCH  12  13
ATOM     13  C   LIG    1       -1.651   5.305   2.351  0.00  0.00    +0.210 C 
BRANCH  13  14
ATOM     14  O   LIG    1       -0.409   6.009   2.270  0.00  0.00    -0.540 OA
ATOM     15  H   LIG    1        0.175   5.864   3.026  0.00  0.00    +0.390 HD
ENDBRANCH  13  14
BRANCH  13  16
ATOM     16  C   LIG    1       -2.410   5.754   3.602  0.00  0.00    +0.160 C 
BRANCH  16  18
ATOM     17  C   LIG    1       -3.481   7.655   4.595  0.00  0.00    +0.230 C 
ATOM     18  O   LIG    1       -2.764   7.133   3.474  0.00  0.00    -0.380 OA
ENDBRANCH  16  18
ENDBRANCH  13  16
ENDBRANCH  12  13
ENDBRANCH   5  12
ENDBRANCH   1   8
BRANCH   3  19
ATOM     19  C   LIG    1        0.786   0.609  -4.587  0.00  0.00    -0.150 A 
ATOM     20  C   LIG    1        2.178   0.711  -4.522  0.00  0.00    +0.110 A 
ATOM     21  C   LIG    1        2.942   0.391  -5.621  0.00  0.00    -0.010 A 
ATOM     22  C   LIG    1        2.330  -0.034  -6.796  0.00  0.00    +0.190 A 
ATOM     23  C   LIG    1        0.943  -0.137  -6.864  0.00  0.00    -0.030 A 
ATOM     24  C   LIG    1        0.174   0.176  -5.767  0.00  0.00    +0.180 A 
BRANCH  22  25
ATOM     25  N   LIG    1        3.104  -0.356  -7.905  0.00  0.00    -0.480 N 
ATOM     26  C   LIG    1        4.042   0.747  -8.238  0.00  0.00    +0.180 C 
ATOM     27  C   LIG    1        5.128   0.043  -9.091  0.00  0.00    +0.050 C 
ATOM     28  C   LIG    1        5.271  -1.333  -8.402  0.00  0.00    +0.020 C 
ATOM     29  C   LIG    1        3.951  -1.538  -7.635  0.00  0.00    +0.180 C 
ENDBRANCH  22  25
BRANCH  23  30
ATOM     30  N   LIG    1        0.295  -0.590  -8.116  0.00  0.00    +0.020 N 
ATOM     31  O   LIG    1        0.977  -0.961  -9.054  0.00  0.00    -0.090 OA
ATOM     32  O   LIG    1       -0.919  -0.593  -8.207  0.00  0.00    -0.180 OA
ENDBRANCH  23  30
ENDBRANCH   3  19
TORSDOF 9
