REMARK  Name = ZINCqH00000072pl.0
REMARK                            x       y       z     vdW  Elec       q    Type
REMARK                         _______ _______ _______ _____ _____    ______ ____
ROOT
ATOM      1  C   LIG    1        2.263   0.156   1.052  0.00  0.00    -0.030 C 
ATOM      2  C   LIG    1        0.880  -0.492   1.159  0.00  0.00    +0.040 C 
ATOM      3  C   LIG    1        0.002  -0.004   0.002  0.00  0.00    +0.300 C 
ATOM      4  N   LIG    1       -0.018   1.465   0.010  0.00  0.00    -1.000 NA
ATOM      5  C   LIG    1        1.261   2.189   0.002  0.00  0.00    +0.300 C 
ATOM      6  C   LIG    1        2.125   1.677   1.158  0.00  0.00    +0.040 C 
ENDROOT
BRANCH   4   7
ATOM      7  S   LIG    1       -1.454   2.289   0.021  0.00  0.00    +2.690 S 
ATOM      8  O   LIG    1       -2.427   1.408  -0.523  0.00  0.00    -0.950 OA
ATOM      9  O   LIG    1       -1.183   3.576  -0.517  0.00  0.00    -0.950 OA
BRANCH   7  10
ATOM     10  C   LIG    1       -1.898   2.540   1.708  0.00  0.00    -0.670 A 
ATOM     11  C   LIG    1       -2.674   1.602   2.365  0.00  0.00    +0.140 A 
ATOM     12  C   LIG    1       -3.018   1.796   3.689  0.00  0.00    +0.030 A 
ATOM     13  C   LIG    1       -2.596   2.933   4.354  0.00  0.00    -0.040 A 
ATOM     14  C   LIG    1       -1.825   3.874   3.695  0.00  0.00    +0.030 A 
ATOM     15 BR   LIG    1       -3.073   3.202   6.164  0.00  0.00    -0.030 Br
ATOM     16  C   LIG    1       -1.477   3.676   2.372  0.00  0.00    +0.140 A 
ENDBRANCH   7  10
ENDBRANCH   4   7
BRANCH   1  17
ATOM     17  C   LIG    1        3.140  -0.347   2.169  0.00  0.00    +0.410 C 
ATOM     18  O   LIG    1        2.640  -0.756   3.196  0.00  0.00    -0.450 OA
BRANCH  17  22
ATOM     19  C   LIG    1        7.352  -0.337   1.722  0.00  0.00    +0.160 A 
ATOM     20  C   LIG    1        6.781  -0.805   2.901  0.00  0.00    -0.030 A 
ATOM     21  C   LIG    1        5.418  -0.811   3.050  0.00  0.00    +0.120 A 
ATOM     22  C   LIG    1        4.601  -0.344   2.014  0.00  0.00    -0.210 A 
ATOM     23  C   LIG    1        5.180   0.122   0.827  0.00  0.00    +0.110 A 
ATOM     24  C   LIG    1        6.544   0.128   0.690  0.00  0.00    -0.080 A 
BRANCH  19  26
ATOM     25  C   LIG    1        9.221   0.160   0.343  0.00  0.00    +0.240 C 
ATOM     26  O   LIG    1        8.701  -0.334   1.578  0.00  0.00    -0.310 OA
ENDBRANCH  19  26
ENDBRANCH  17  22
ENDBRANCH   1  17
TORSDOF 5
