REMARK  Name = ZINCpe00000MJKoE.0
REMARK                            x       y       z     vdW  Elec       q    Type
REMARK                         _______ _______ _______ _____ _____    ______ ____
ROOT
ATOM      1  C   LIG    1        2.422   1.186  -0.015  0.00  0.00    +0.250 C 
ATOM      2  C   LIG    1        2.818   0.818   1.417  0.00  0.00    +0.010 C 
ATOM      3  C   LIG    1        4.138   0.040   1.393  0.00  0.00    +0.300 C 
ATOM      4  N   LIG    1        5.143   0.835   0.674  0.00  0.00    -1.000 NA
ATOM      5  C   LIG    1        4.827   1.318  -0.677  0.00  0.00    +0.300 C 
ATOM      6  C   LIG    1        3.499   2.081  -0.630  0.00  0.00    +0.020 C 
ENDROOT
BRANCH   1   8
ATOM      7  C   LIG    1       -0.014   1.211   0.009  0.00  0.00    +0.540 C 
ATOM      8  N   LIG    1        1.143   1.901   0.001  0.00  0.00    -0.720 N 
ATOM      9  H   LIG    1        1.130   2.871   0.007  0.00  0.00    +0.400 HD
ATOM     10  O   LIG    1        0.002  -0.004   0.002  0.00  0.00    -0.520 OA
BRANCH   7  12
ATOM     11  C   LIG    1       -2.457   1.245   0.021  0.00  0.00    +0.060 C 
ATOM     12  C   LIG    1       -1.303   1.932   0.019  0.00  0.00    +0.030 C 
BRANCH  11  13
ATOM     13  C   LIG    1       -3.744   1.965   0.030  0.00  0.00    +0.490 C 
ATOM     14  O   LIG    1       -3.761   3.180   0.037  0.00  0.00    -0.500 OA
BRANCH  13  16
ATOM     15  C   LIG    1       -6.130   2.050   0.042  0.00  0.00    +0.290 C 
ATOM     16  O   LIG    1       -4.902   1.276   0.032  0.00  0.00    -0.350 OA
ENDBRANCH  13  16
ENDBRANCH  11  13
ENDBRANCH   7  12
ENDBRANCH   1   8
BRANCH   4  17
ATOM     17  S   LIG    1        6.604   1.181   1.374  0.00  0.00    +2.600 S 
ATOM     18  O   LIG    1        7.482   1.372   0.273  0.00  0.00    -0.940 OA
ATOM     19  O   LIG    1        6.808   0.122   2.299  0.00  0.00    -0.940 OA
BRANCH  17  20
ATOM     20  C   LIG    1        6.328   2.746   2.248  0.00  0.00    -0.300 C 
BRANCH  20  21
ATOM     21  C   LIG    1        7.602   3.169   2.933  0.00  0.00    -0.100 A 
ATOM     22  C   LIG    1        7.857   2.763   4.229  0.00  0.00    +0.020 A 
ATOM     23  C   LIG    1        9.028   3.148   4.856  0.00  0.00    +0.010 A 
ATOM     24  C   LIG    1        9.938   3.947   4.190  0.00  0.00    +0.020 A 
ATOM     25  C   LIG    1        9.681   4.357   2.896  0.00  0.00    +0.010 A 
ATOM     26  C   LIG    1        8.512   3.969   2.267  0.00  0.00    +0.020 A 
ENDBRANCH  20  21
ENDBRANCH  17  20
ENDBRANCH   4  17
TORSDOF 7
