REMARK  Name = ZINCpk00000dH7oU.0
REMARK                            x       y       z     vdW  Elec       q    Type
REMARK                         _______ _______ _______ _____ _____    ______ ____
ROOT
ATOM      1  C   LIG    1        6.189  -1.573   2.260  0.00  0.00    +0.040 A 
ATOM      2  C   LIG    1        5.598  -2.694   2.719  0.00  0.00    -0.060 A 
ATOM      3  C   LIG    1        6.045  -2.883   4.043  0.00  0.00    -0.010 A 
ATOM      4  C   LIG    1        6.886  -1.853   4.323  0.00  0.00    -0.000 A 
ATOM      5  O   LIG    1        6.964  -1.066   3.233  0.00  0.00    -0.130 OA
ENDROOT
BRANCH   4   6
ATOM      6  C   LIG    1        7.591  -1.633   5.603  0.00  0.00    +0.050 A 
ATOM      7  C   LIG    1        6.886  -1.667   6.807  0.00  0.00    +0.050 A 
ATOM      8  C   LIG    1        7.552  -1.467   7.999  0.00  0.00    +0.090 A 
ATOM      9  C   LIG    1        8.914  -1.222   8.001  0.00  0.00    +0.040 A 
ATOM     10  C   LIG    1        9.618  -1.181   6.811  0.00  0.00    +0.110 A 
ATOM     11  C   LIG    1        8.965  -1.385   5.613  0.00  0.00    -0.040 A 
BRANCH  11  12
ATOM     12  N   LIG    1        9.720  -1.341   4.340  0.00  0.00    +0.030 N 
ATOM     13  O   LIG    1        9.142  -1.521   3.283  0.00  0.00    -0.130 OA
ATOM     14  O   LIG    1       10.918  -1.124   4.350  0.00  0.00    -0.170 OA
ENDBRANCH  11  12
ENDBRANCH   4   6
BRANCH   1  15
ATOM     15  C   LIG    1        6.006  -0.984   0.885  0.00  0.00    +0.300 C 
BRANCH  15  19
ATOM     16  N   LIG    1        2.410   1.040  -0.015  0.00  0.00    -0.520 NA
ATOM     17  C   LIG    1        2.473   0.271   1.235  0.00  0.00    +0.190 C 
ATOM     18  C   LIG    1        3.611  -0.748   1.147  0.00  0.00    +0.180 C 
ATOM     19  N   LIG    1        4.877  -0.045   0.901  0.00  0.00    -0.540 NA
ATOM     20  C   LIG    1        4.814   0.724  -0.350  0.00  0.00    +0.200 C 
ATOM     21  C   LIG    1        3.676   1.744  -0.262  0.00  0.00    +0.190 C 
BRANCH  16  22
ATOM     22  C   LIG    1        1.280   1.980   0.001  0.00  0.00    +0.210 C 
BRANCH  22  26
ATOM     23  N   LIG    1       -1.191   1.867   0.018  0.00  0.00    -0.860 N 
ATOM     24  H   LIG    1       -1.204   2.837   0.023  0.00  0.00    +0.400 HD
ATOM     25  H   LIG    1       -2.024   1.370   0.019  0.00  0.00    +0.400 HD
ATOM     26  C   LIG    1       -0.014   1.209   0.009  0.00  0.00    +0.520 C 
ATOM     27  O   LIG    1        0.002  -0.004   0.002  0.00  0.00    -0.520 OA
ENDBRANCH  22  26
ENDBRANCH  16  22
ENDBRANCH  15  19
ENDBRANCH   1  15
TORSDOF 6
