REMARK  Name = ZINCrH000004u6Az.0
REMARK                            x       y       z     vdW  Elec       q    Type
REMARK                         _______ _______ _______ _____ _____    ______ ____
ROOT
ATOM      1  O   LIG    1       -4.706   0.811  -0.364  0.00  0.00    -0.530 OA
ATOM      2  C   LIG    1       -4.213   1.685   0.318  0.00  0.00    +0.530 C 
ATOM      3  N   LIG    1       -4.918   2.229   1.329  0.00  0.00    -0.730 N 
ATOM      4  H   LIG    1       -4.553   2.977   1.828  0.00  0.00    +0.400 HD
ENDROOT
BRANCH   2   5
ATOM      5  C   LIG    1       -2.811   2.161   0.035  0.00  0.00    +0.040 C 
ATOM      6  C   LIG    1       -2.479   1.904  -1.433  0.00  0.00    +0.040 C 
ATOM      7  C   LIG    1       -0.988   2.190  -1.649  0.00  0.00    +0.020 C 
ATOM      8  C   LIG    1       -0.182   1.101  -0.943  0.00  0.00    +0.080 C 
ATOM      9  C   LIG    1       -0.639   0.946   0.484  0.00  0.00    -0.060 A 
ATOM     10  C   LIG    1        0.207   0.286   1.365  0.00  0.00    +0.000 A 
ATOM     11  C   LIG    1       -0.157   0.107   2.684  0.00  0.00    +0.010 A 
ATOM     12  C   LIG    1       -1.372   0.589   3.133  0.00  0.00    +0.000 A 
ATOM     13  C   LIG    1       -2.211   1.246   2.260  0.00  0.00    +0.000 A 
ATOM     14  C   LIG    1       -1.847   1.429   0.932  0.00  0.00    -0.070 A 
ENDBRANCH   2   5
BRANCH   3  15
ATOM     15  C   LIG    1       -6.236   1.692   1.675  0.00  0.00    +0.240 C 
ATOM     16  C   LIG    1       -7.299   2.335   0.781  0.00  0.00    +0.010 C 
ATOM     17  C   LIG    1       -8.671   1.745   1.122  0.00  0.00    +0.270 C 
ATOM     18  N   LIG    1       -8.913   1.912   2.561  0.00  0.00    -0.620 N 
ATOM     19  C   LIG    1       -7.909   1.411   3.509  0.00  0.00    +0.280 C 
ATOM     20  C   LIG    1      -10.035   2.513   3.004  0.00  0.00    +0.520 C 
ATOM     21  O   LIG    1      -10.177   2.736   4.188  0.00  0.00    -0.540 OA
ATOM     22  C   LIG    1       -6.545   2.003   3.141  0.00  0.00    +0.010 C 
BRANCH  20  23
ATOM     23  C   LIG    1      -11.113   2.910   2.029  0.00  0.00    -0.020 C 
ATOM     24  C   LIG    1      -10.918   4.371   1.619  0.00  0.00    +0.020 C 
ATOM     25  C   LIG    1      -12.012   4.774   0.628  0.00  0.00    +0.010 C 
ATOM     26  C   LIG    1      -13.383   4.607   1.287  0.00  0.00    +0.000 C 
ATOM     27  C   LIG    1      -13.578   3.146   1.697  0.00  0.00    +0.010 C 
ATOM     28  C   LIG    1      -12.484   2.744   2.688  0.00  0.00    +0.040 C 
ENDBRANCH  20  23
ENDBRANCH   3  15
TORSDOF 3
