REMARK  Name = ZINCrH000004rKj3.0
REMARK                            x       y       z     vdW  Elec       q    Type
REMARK                         _______ _______ _______ _____ _____    ______ ____
ROOT
ATOM      1  N   LIG    1        1.387   1.593   2.433  0.00  0.00    -0.480 N 
ATOM      2  C   LIG    1        1.873   0.379   2.779  0.00  0.00    +0.560 A 
ATOM      3  C   LIG    1        3.332   0.207   2.786  0.00  0.00    -0.200 A 
ATOM      4  C   LIG    1        3.927  -1.007   3.128  0.00  0.00    +0.130 A 
ATOM      5  C   LIG    1        5.290  -1.118   3.120  0.00  0.00    +0.020 A 
ATOM      6  C   LIG    1        6.089  -0.034   2.774  0.00  0.00    +0.010 A 
ATOM      7  C   LIG    1        5.527   1.177   2.433  0.00  0.00    +0.050 A 
ATOM      8 CL   LIG    1        7.816  -0.208   2.773  0.00  0.00    -0.050 Cl
ATOM      9  C   LIG    1        4.137   1.315   2.434  0.00  0.00    +0.180 A 
ATOM     10  N   LIG    1        3.541   2.485   2.105  0.00  0.00    -0.530 NA
ATOM     11  O   LIG    1        1.129  -0.538   3.073  0.00  0.00    -0.490 OA
ATOM     12  C   LIG    1        2.237   2.612   2.100  0.00  0.00    +0.380 A 
ENDROOT
BRANCH   1  18
ATOM     13  C   LIG    1       -2.865   1.540  -0.036  0.00  0.00    +0.100 C 
ATOM     14  C   LIG    1       -2.082   1.789   1.227  0.00  0.00    -0.080 A 
ATOM     15  C   LIG    1       -2.731   2.230   2.366  0.00  0.00    +0.040 A 
ATOM     16  C   LIG    1       -2.015   2.465   3.526  0.00  0.00    +0.020 A 
ATOM     17  C   LIG    1       -0.650   2.255   3.551  0.00  0.00    +0.040 A 
ATOM     18  C   LIG    1        0.003   1.807   2.411  0.00  0.00    +0.090 A 
ATOM     19  C   LIG    1       -0.718   1.572   1.248  0.00  0.00    -0.050 A 
ATOM     20  C   LIG    1       -0.013   1.086   0.008  0.00  0.00    +0.100 C 
ENDBRANCH   1  18
BRANCH  12  21
ATOM     21  S   LIG    1        1.545   4.170   1.652  0.00  0.00    +0.040 S 
BRANCH  21  22
ATOM     22  C   LIG    1        3.061   5.104   1.325  0.00  0.00    +0.130 C 
BRANCH  22  23
ATOM     23  C   LIG    1        2.700   6.531   0.906  0.00  0.00    -0.330 C 
BRANCH  23  24
ATOM     24  S   LIG    1        4.219   7.467   0.578  0.00  0.00    +2.430 S 
ATOM     25  O   LIG    1        4.867   6.896  -0.551  0.00  0.00    -0.930 OA
ATOM     26  O   LIG    1        4.939   7.603   1.796  0.00  0.00    -0.930 OA
ATOM     27  C   LIG    1        3.564   9.092   0.109  0.00  0.00    -0.260 C 
ENDBRANCH  23  24
ENDBRANCH  22  23
ENDBRANCH  21  22
ENDBRANCH  12  21
TORSDOF 5
