REMARK  Name = ZINCrH000004nxL0.0
REMARK                            x       y       z     vdW  Elec       q    Type
REMARK                         _______ _______ _______ _____ _____    ______ ____
ROOT
ATOM      1  N   LIG    1       -2.566   3.547   0.044  0.00  0.00    -0.450 N 
ATOM      2  C   LIG    1       -1.234   3.166   0.030  0.00  0.00    +0.060 A 
ATOM      3  C   LIG    1       -0.034   3.861   0.022  0.00  0.00    +0.020 A 
ATOM      4  C   LIG    1        1.160   3.170   0.007  0.00  0.00    +0.020 A 
ATOM      5  C   LIG    1        1.169   1.783   0.001  0.00  0.00    +0.010 A 
ATOM      6  C   LIG    1       -0.013   1.076   0.008  0.00  0.00    +0.060 A 
ATOM      7  C   LIG    1       -1.230   1.760   0.017  0.00  0.00    +0.070 A 
ATOM      8  N   LIG    1       -2.528   1.357   0.022  0.00  0.00    -0.470 NA
ATOM      9  C   LIG    1       -3.314   2.403   0.031  0.00  0.00    +0.510 A 
ENDROOT
BRANCH   1  15
ATOM     10  C   LIG    1       -3.287   5.511   1.266  0.00  0.00    +0.150 A 
ATOM     11  C   LIG    1       -3.770   6.809   1.271  0.00  0.00    -0.060 A 
ATOM     12  C   LIG    1       -4.019   7.459   0.076  0.00  0.00    +0.080 A 
ATOM     13  C   LIG    1       -3.789   6.815  -1.125  0.00  0.00    -0.010 A 
ATOM     14  C   LIG    1       -3.303   5.522  -1.139  0.00  0.00    +0.080 A 
ATOM     15  C   LIG    1       -3.055   4.862   0.055  0.00  0.00    +0.060 A 
BRANCH  10  17
ATOM     16  C   LIG    1       -3.303   5.597   3.643  0.00  0.00    +0.240 C 
ATOM     17  O   LIG    1       -3.041   4.870   2.440  0.00  0.00    -0.310 OA
ENDBRANCH  10  17
ENDBRANCH   1  15
BRANCH   9  18
ATOM     18  N   LIG    1       -4.697   2.358   0.037  0.00  0.00    -0.620 N 
ATOM     19  H   LIG    1       -5.209   3.182   0.044  0.00  0.00    +0.430 HD
ATOM     20  C   LIG    1       -5.332   1.169   0.034  0.00  0.00    +0.570 C 
ATOM     21  O   LIG    1       -4.691   0.138   0.025  0.00  0.00    -0.420 OA
BRANCH  20  22
ATOM     22  C   LIG    1       -6.815   1.121   0.041  0.00  0.00    +0.140 A 
ATOM     23  N   LIG    1       -7.529   2.244   0.051  0.00  0.00    -0.490 NA
ATOM     24  C   LIG    1       -8.844   2.206   0.057  0.00  0.00    +0.510 A 
ATOM     25  N   LIG    1       -9.508   1.066   0.053  0.00  0.00    -0.480 NA
ATOM     26  C   LIG    1       -8.875  -0.093   0.043  0.00  0.00    +0.360 A 
ATOM     27  C   LIG    1       -7.485  -0.105   0.032  0.00  0.00    -0.100 A 
ATOM     28 CL   LIG    1       -6.606  -1.601   0.012  0.00  0.00    +0.010 Cl
ENDBRANCH  20  22
ENDBRANCH   9  18
TORSDOF 4
