REMARK  Name = ZINCpk00000KfLA2.0
REMARK                            x       y       z     vdW  Elec       q    Type
REMARK                         _______ _______ _______ _____ _____    ______ ____
ROOT
ATOM      1  N   LIG    1        2.627   4.014  -0.002  0.00  0.00    -0.370 N 
ATOM      2  N   LIG    1        3.420   4.257   1.127  0.00  0.00    -0.240 NA
ATOM      3  C   LIG    1        4.613   4.625   0.755  0.00  0.00    +0.310 A 
ATOM      4  C   LIG    1        4.654   4.649  -0.656  0.00  0.00    -0.330 A 
ATOM      5  C   LIG    1        5.637   4.963  -1.613  0.00  0.00    +0.530 A 
ATOM      6  N   LIG    1        5.317   4.874  -2.900  0.00  0.00    -0.600 NA
ATOM      7  C   LIG    1        4.108   4.501  -3.280  0.00  0.00    +0.600 A 
ATOM      8  N   LIG    1        3.157   4.198  -2.424  0.00  0.00    -0.570 NA
ATOM      9  C   LIG    1        3.380   4.256  -1.112  0.00  0.00    +0.380 A 
ENDROOT
BRANCH   5  10
ATOM     10  N   LIG    1        6.904   5.354  -1.224  0.00  0.00    -0.700 N 
ATOM     11  H   LIG    1        7.124   5.415  -0.282  0.00  0.00    +0.420 HD
BRANCH  10  12
ATOM     12  C   LIG    1        7.913   5.676  -2.236  0.00  0.00    +0.400 C 
BRANCH  12  13
ATOM     13  C   LIG    1        9.289   5.471  -1.655  0.00  0.00    +0.170 A 
ATOM     14  N   LIG    1       10.298   4.866  -2.234  0.00  0.00    -0.460 NA
ATOM     15  C   LIG    1       11.310   4.922  -1.349  0.00  0.00    +0.170 A 
ATOM     16  N   LIG    1       10.871   5.546  -0.297  0.00  0.00    -0.380 NA
ATOM     17  C   LIG    1       12.696   4.364  -1.543  0.00  0.00    +0.200 C 
ATOM     18  O   LIG    1        9.714   5.874  -0.455  0.00  0.00    +0.080 OA
ENDBRANCH  12  13
BRANCH  12  19
ATOM     19  C   LIG    1        7.755   7.135  -2.667  0.00  0.00    -0.020 C 
ATOM     20  C   LIG    1        6.358   7.344  -3.257  0.00  0.00    +0.060 C 
ATOM     21  C   LIG    1        8.809   7.472  -3.724  0.00  0.00    +0.040 C 
ENDBRANCH  12  19
ENDBRANCH  10  12
ENDBRANCH   5  10
BRANCH   1  22
ATOM     22  C   LIG    1        1.228   3.579   0.010  0.00  0.00    +0.430 C 
BRANCH  22  23
ATOM     23  C   LIG    1        1.170   2.073   0.002  0.00  0.00    +0.440 C 
ATOM     24  O   LIG    1        2.192   1.429  -0.011  0.00  0.00    -0.490 OA
BRANCH  23  26
ATOM     25  C   LIG    1        0.002  -0.004   0.002  0.00  0.00    +0.270 C 
ATOM     26  O   LIG    1       -0.018   1.448   0.010  0.00  0.00    -0.360 OA
ENDBRANCH  23  26
ENDBRANCH  22  23
ENDBRANCH   1  22
TORSDOF 7
