REMARK  Name = ZINCpk00000jRlQ4.0
REMARK                            x       y       z     vdW  Elec       q    Type
REMARK                         _______ _______ _______ _____ _____    ______ ____
ROOT
ATOM      1  C   LIG    1       -0.017   1.375   0.010  0.00  0.00    -0.070 A 
ATOM      2  C   LIG    1        0.002  -0.004   0.002  0.00  0.00    +0.080 A 
ATOM      3  C   LIG    1        1.222  -0.682  -0.013  0.00  0.00    -0.120 A 
ATOM      4  C   LIG    1        2.416   0.042  -0.021  0.00  0.00    +0.080 A 
ATOM      5  C   LIG    1        2.383   1.421  -0.013  0.00  0.00    -0.080 A 
ATOM      6  C   LIG    1        1.170   2.086   0.002  0.00  0.00    -0.030 A 
ENDROOT
BRANCH   1   8
ATOM      7  C   LIG    1       -1.724   2.475  -1.413  0.00  0.00    +0.030 C 
ATOM      8  C   LIG    1       -1.333   2.109   0.020  0.00  0.00    +0.060 C 
ENDBRANCH   1   8
BRANCH   5   9
ATOM      9  C   LIG    1        3.671   2.204  -0.021  0.00  0.00    +0.060 C 
ATOM     10  C   LIG    1        4.055   2.568   1.414  0.00  0.00    +0.020 C 
ENDBRANCH   5   9
BRANCH   3  11
ATOM     11  C   LIG    1        1.250  -2.159  -0.021  0.00  0.00    +0.510 C 
ATOM     12  O   LIG    1        0.210  -2.787  -0.014  0.00  0.00    -0.500 OA
BRANCH  11  13
ATOM     13  O   LIG    1        2.429  -2.811  -0.036  0.00  0.00    -0.360 OA
ATOM     14  C   LIG    1        2.381  -4.262  -0.043  0.00  0.00    +0.260 C 
ENDBRANCH  11  13
ENDBRANCH   3  11
BRANCH   6  15
ATOM     15  C   LIG    1        1.142   3.593   0.010  0.00  0.00    +0.100 C 
BRANCH  15  16
ATOM     16  C   LIG    1        1.146   4.088   1.434  0.00  0.00    +0.500 C 
ATOM     17  N   LIG    1        1.123   5.411   1.688  0.00  0.00    -0.720 N 
ATOM     18  H   LIG    1        1.105   6.045   0.954  0.00  0.00    +0.400 HD
ATOM     19  O   LIG    1        1.170   3.295   2.351  0.00  0.00    -0.470 OA
BRANCH  17  20
ATOM     20  C   LIG    1        1.127   5.892   3.071  0.00  0.00    +0.110 C 
ATOM     21  C   LIG    1        2.160   5.188   3.971  0.00  0.00    +0.210 C 
ATOM     22  O   LIG    1        1.094   4.271   4.285  0.00  0.00    -0.330 OA
ATOM     23  C   LIG    1        0.063   5.226   3.964  0.00  0.00    +0.210 C 
BRANCH  20  24
ATOM     24  C   LIG    1        1.153   7.418   3.174  0.00  0.00    +0.050 C 
BRANCH  24  25
ATOM     25  C   LIG    1        2.191   7.978   2.199  0.00  0.00    +0.170 C 
BRANCH  25  26
ATOM     26  O   LIG    1        2.214   9.403   2.295  0.00  0.00    -0.570 OA
ATOM     27  H   LIG    1        2.852   9.827   1.703  0.00  0.00    +0.380 HD
ENDBRANCH  25  26
ENDBRANCH  24  25
ENDBRANCH  20  24
ENDBRANCH  17  20
ENDBRANCH  15  16
ENDBRANCH   6  15
TORSDOF 10
