REMARK  Name = ZINCkj000005hUC7.2
REMARK                            x       y       z     vdW  Elec       q    Type
REMARK                         _______ _______ _______ _____ _____    ______ ____
ROOT
ATOM      1  C   LIG    1       -0.123   3.544   5.648  0.00  0.00    -0.070 A 
ATOM      2  C   LIG    1       -0.354   4.877   5.979  0.00  0.00    +0.130 A 
ATOM      3  C   LIG    1        0.023   5.880   5.107  0.00  0.00    +0.070 A 
ATOM      4  C   LIG    1        0.629   5.570   3.902  0.00  0.00    +0.090 A 
ATOM      5  C   LIG    1        0.866   4.254   3.556  0.00  0.00    -0.120 A 
ATOM      6  C   LIG    1        0.489   3.228   4.420  0.00  0.00    +0.060 A 
ENDROOT
BRANCH   1   7
ATOM      7  C   LIG    1       -0.524   2.468   6.577  0.00  0.00    +0.500 C 
ATOM      8  O   LIG    1       -0.321   1.306   6.285  0.00  0.00    -0.490 OA
BRANCH   7  10
ATOM      9  C   LIG    1       -1.480   1.666   8.612  0.00  0.00    +0.290 C 
ATOM     10  O   LIG    1       -1.114   2.774   7.749  0.00  0.00    -0.350 OA
ENDBRANCH   7  10
ENDBRANCH   1   7
BRANCH   6  11
ATOM     11  C   LIG    1        0.728   1.862   4.064  0.00  0.00    +0.210 C 
ATOM     12  N   LIG    1        0.918   0.778   3.781  0.00  0.00    -0.340 NA
ENDBRANCH   6  11
BRANCH   5  13
ATOM     13  C   LIG    1        1.526   3.928   2.241  0.00  0.00    +0.330 C 
BRANCH  13  14
ATOM     14  N   LIG    1        0.504   3.524   1.266  0.00  0.00    -0.400 N 
ATOM     15  C   LIG    1       -0.346   4.687   0.904  0.00  0.00    +0.260 C 
ATOM     16  C   LIG    1       -0.944   4.276  -0.465  0.00  0.00    +0.080 C 
ATOM     17  C   LIG    1        0.229   3.534  -1.146  0.00  0.00    +0.080 C 
ATOM     18  C   LIG    1        1.145   3.085   0.008  0.00  0.00    +0.180 C 
ATOM     19  H   LIG    1       -0.065   2.781   1.645  0.00  0.00    +0.430 HD
BRANCH  18  20
ATOM     20  C   LIG    1        1.286   1.562  -0.002  0.00  0.00    +0.220 C 
BRANCH  20  21
ATOM     21  O   LIG    1       -0.011   0.963   0.007  0.00  0.00    -0.570 OA
ATOM     22  H   LIG    1        0.002  -0.004   0.002  0.00  0.00    +0.410 HD
ENDBRANCH  20  21
ENDBRANCH  18  20
ENDBRANCH  13  14
ENDBRANCH   5  13
TORSDOF 7
