REMARK  Name = ZINCkj000005hUC7.1
REMARK                            x       y       z     vdW  Elec       q    Type
REMARK                         _______ _______ _______ _____ _____    ______ ____
ROOT
ATOM      1  C   LIG    1       -0.997   1.523   3.628  0.00  0.00    -0.080 A 
ATOM      2  C   LIG    1       -2.005   2.484   3.666  0.00  0.00    +0.130 A 
ATOM      3  C   LIG    1       -2.415   3.007   4.877  0.00  0.00    +0.070 A 
ATOM      4  C   LIG    1       -1.829   2.584   6.058  0.00  0.00    +0.090 A 
ATOM      5  C   LIG    1       -0.828   1.632   6.041  0.00  0.00    -0.120 A 
ATOM      6  C   LIG    1       -0.405   1.088   4.830  0.00  0.00    +0.060 A 
ENDROOT
BRANCH   1   7
ATOM      7  C   LIG    1       -0.556   0.960   2.336  0.00  0.00    +0.500 C 
ATOM      8  O   LIG    1        0.324   0.122   2.307  0.00  0.00    -0.480 OA
BRANCH   7  10
ATOM      9  C   LIG    1       -0.645   0.778  -0.043  0.00  0.00    +0.290 C 
ATOM     10  O   LIG    1       -1.128   1.375   1.190  0.00  0.00    -0.350 OA
ENDBRANCH   7  10
ENDBRANCH   1   7
BRANCH   6  11
ATOM     11  C   LIG    1        0.628   0.097   4.808  0.00  0.00    +0.220 C 
ATOM     12  N   LIG    1        1.447  -0.690   4.790  0.00  0.00    -0.340 NA
ENDBRANCH   6  11
BRANCH   5  13
ATOM     13  C   LIG    1       -0.198   1.178   7.332  0.00  0.00    +0.330 C 
BRANCH  13  14
ATOM     14  N   LIG    1        0.973   2.015   7.626  0.00  0.00    -0.380 N 
ATOM     15  C   LIG    1        2.038   1.745   6.637  0.00  0.00    +0.230 C 
ATOM     16  C   LIG    1        3.359   1.848   7.439  0.00  0.00    +0.080 C 
ATOM     17  C   LIG    1        2.949   1.226   8.800  0.00  0.00    +0.090 C 
ATOM     18  C   LIG    1        1.488   1.694   8.970  0.00  0.00    +0.180 C 
ATOM     19  H   LIG    1        0.715   2.989   7.586  0.00  0.00    +0.420 HD
BRANCH  18  20
ATOM     20  C   LIG    1        0.653   0.574   9.593  0.00  0.00    +0.230 C 
BRANCH  20  21
ATOM     21  O   LIG    1        0.841  -0.632   8.850  0.00  0.00    -0.570 OA
ATOM     22  H   LIG    1        0.340  -1.386   9.190  0.00  0.00    +0.410 HD
ENDBRANCH  20  21
ENDBRANCH  18  20
ENDBRANCH  13  14
ENDBRANCH   5  13
TORSDOF 7
