REMARK  Name = ZINCqH0000038OU8.0
REMARK                            x       y       z     vdW  Elec       q    Type
REMARK                         _______ _______ _______ _____ _____    ______ ____
ROOT
ATOM      1  C   LIG    1       -2.989   5.782   2.141  0.00  0.00    +0.520 C 
ATOM      2  N   LIG    1       -3.465   7.041   2.193  0.00  0.00    -0.610 N 
ATOM      3  C   LIG    1       -3.770   7.651   3.483  0.00  0.00    +0.250 C 
ATOM      4  C   LIG    1       -5.252   7.984   3.613  0.00  0.00    +0.220 C 
ATOM      5  N   LIG    1       -5.643   8.981   2.606  0.00  0.00    -0.500 N 
ATOM      6  C   LIG    1       -6.062   8.353   1.431  0.00  0.00    +0.100 A 
ATOM      7  C   LIG    1       -7.410   8.348   1.091  0.00  0.00    +0.030 A 
ATOM      8  C   LIG    1       -7.826   7.710  -0.061  0.00  0.00    +0.020 A 
ATOM      9  C   LIG    1       -6.908   7.074  -0.876  0.00  0.00    +0.010 A 
ATOM     10  C   LIG    1       -5.564   7.083  -0.545  0.00  0.00    +0.020 A 
ATOM     11  C   LIG    1       -5.146   7.729   0.598  0.00  0.00    -0.140 A 
ATOM     12  C   LIG    1       -4.543   9.918   2.340  0.00  0.00    +0.200 C 
ATOM     13  C   LIG    1       -3.670   7.797   0.950  0.00  0.00    +0.330 C 
ATOM     14  O   LIG    1       -2.814   5.157   3.166  0.00  0.00    -0.520 OA
ENDROOT
BRANCH   1  15
ATOM     15  C   LIG    1       -2.673   5.149   0.810  0.00  0.00    +0.160 C 
BRANCH  15  18
ATOM     16  C   LIG    1       -4.404   2.551   0.939  0.00  0.00    +0.190 C 
ATOM     17  C   LIG    1       -2.906   2.632   1.084  0.00  0.00    -0.020 A 
ATOM     18  C   LIG    1       -2.159   3.749   1.029  0.00  0.00    +0.010 A 
ATOM     19  N   LIG    1       -0.877   3.397   1.208  0.00  0.00    -0.460 NA
ATOM     20  C   LIG    1       -0.817   2.092   1.363  0.00  0.00    +0.260 A 
ATOM     21  O   LIG    1       -2.066   1.597   1.293  0.00  0.00    -0.190 OA
BRANCH  20  22
ATOM     22  C   LIG    1        0.407   1.308   1.583  0.00  0.00    -0.140 A 
ATOM     23  C   LIG    1        0.458  -0.042   1.748  0.00  0.00    +0.060 A 
ATOM     24  C   LIG    1        1.727  -0.546   1.933  0.00  0.00    +0.010 A 
ATOM     25  C   LIG    1        2.707   0.363   1.922  0.00  0.00    -0.040 A 
ATOM     26  S   LIG    1        2.036   1.967   1.666  0.00  0.00    +0.210 S 
ENDBRANCH  20  22
ENDBRANCH  15  18
ENDBRANCH   1  15
TORSDOF 3
