REMARK  Name = ZINCpk000000oml6.0
REMARK                            x       y       z     vdW  Elec       q    Type
REMARK                         _______ _______ _______ _____ _____    ______ ____
ROOT
ATOM      1  N   LIG    1        2.069   1.688   1.244  0.00  0.00    -0.520 NA
ATOM      2  C   LIG    1        1.387   2.282   0.085  0.00  0.00    +0.190 C 
ATOM      3  C   LIG    1       -0.112   1.985   0.172  0.00  0.00    +0.180 C 
ATOM      4  N   LIG    1       -0.319   0.530   0.212  0.00  0.00    -0.540 NA
ATOM      5  C   LIG    1        0.363  -0.064   1.370  0.00  0.00    +0.180 C 
ATOM      6  C   LIG    1        1.862   0.234   1.284  0.00  0.00    +0.190 C 
ENDROOT
BRANCH   1   7
ATOM      7  C   LIG    1        3.501   2.017   1.237  0.00  0.00    +0.170 C 
ATOM      8  C   LIG    1        4.216   1.157   0.193  0.00  0.00    +0.030 C 
BRANCH   7  11
ATOM      9  N   LIG    1        5.294   2.241   2.925  0.00  0.00    -0.730 N 
ATOM     10  H   LIG    1        5.788   2.776   2.284  0.00  0.00    +0.400 HD
ATOM     11  C   LIG    1        4.085   1.743   2.599  0.00  0.00    +0.520 C 
ATOM     12  O   LIG    1        3.468   1.075   3.401  0.00  0.00    -0.520 OA
BRANCH   9  13
ATOM     13  C   LIG    1        5.862   1.976   4.249  0.00  0.00    +0.260 C 
BRANCH  13  15
ATOM     14  C   LIG    1        7.825   2.373   5.744  0.00  0.00    +0.030 C 
ATOM     15  C   LIG    1        7.231   2.650   4.361  0.00  0.00    +0.000 C 
ENDBRANCH  13  15
ENDBRANCH   9  13
ENDBRANCH   7  11
ENDBRANCH   1   7
BRANCH   4  16
ATOM     16  C   LIG    1       -1.751   0.202   0.219  0.00  0.00    +0.240 C 
BRANCH  16  17
ATOM     17  C   LIG    1       -1.927  -1.280   0.013  0.00  0.00    -0.070 A 
ATOM     18  C   LIG    1       -1.963  -2.129   1.104  0.00  0.00    +0.020 A 
ATOM     19  C   LIG    1       -2.124  -3.489   0.919  0.00  0.00    +0.020 A 
ATOM     20  C   LIG    1       -2.249  -4.007  -0.361  0.00  0.00    +0.050 A 
ATOM     21  O   LIG    1       -2.399  -5.349  -0.528  0.00  0.00    -0.310 OA
ATOM     22  C   LIG    1       -2.892  -5.789  -1.798  0.00  0.00    +0.220 C 
ATOM     23  C   LIG    1       -2.123  -5.043  -2.897  0.00  0.00    +0.220 C 
ATOM     24  O   LIG    1       -2.341  -3.639  -2.723  0.00  0.00    -0.310 OA
ATOM     25  C   LIG    1       -2.215  -3.153  -1.458  0.00  0.00    +0.050 A 
ATOM     26  C   LIG    1       -2.058  -1.789  -1.266  0.00  0.00    +0.040 A 
ENDBRANCH  16  17
ENDBRANCH   4  16
TORSDOF 6
