REMARK  Name = ZINCtV00000L6kjt.0
REMARK                            x       y       z     vdW  Elec       q    Type
REMARK                         _______ _______ _______ _____ _____    ______ ____
ROOT
ATOM      1  C   LIG    1       -5.705   2.156   2.568  0.00  0.00    +0.460 A 
ATOM      2  N   LIG    1       -4.607   2.822   2.793  0.00  0.00    -0.570 NA
ATOM      3  C   LIG    1       -3.504   2.623   2.052  0.00  0.00    +0.540 A 
ATOM      4  C   LIG    1       -3.549   1.627   0.965  0.00  0.00    -0.220 A 
ATOM      5  C   LIG    1       -4.740   0.951   0.771  0.00  0.00    +0.060 A 
ATOM      6  S   LIG    1       -4.581  -0.180  -0.563  0.00  0.00    +0.200 S 
ATOM      7  C   LIG    1       -2.912   0.278  -0.846  0.00  0.00    -0.020 A 
ATOM      8  C   LIG    1       -2.519   1.214   0.020  0.00  0.00    +0.040 A 
ATOM      9  O   LIG    1       -2.483   3.254   2.276  0.00  0.00    -0.460 OA
ATOM     10  N   LIG    1       -5.808   1.239   1.594  0.00  0.00    -0.580 N 
ATOM     11  H   LIG    1       -6.648   0.770   1.467  0.00  0.00    +0.430 HD
ENDROOT
BRANCH   8  12
ATOM     12  C   LIG    1       -1.157   1.788   0.017  0.00  0.00    -0.150 A 
ATOM     13  C   LIG    1       -0.013   1.076   0.008  0.00  0.00    +0.020 A 
ATOM     14  C   LIG    1        1.140   1.837   0.001  0.00  0.00    +0.000 A 
ATOM     15  C   LIG    1        0.945   3.158   0.010  0.00  0.00    -0.060 A 
ATOM     16  S   LIG    1       -0.778   3.506   0.028  0.00  0.00    +0.180 S 
ENDBRANCH   8  12
BRANCH   1  17
ATOM     17  C   LIG    1       -6.907   2.428   3.437  0.00  0.00    +0.180 C 
BRANCH  17  18
ATOM     18  S   LIG    1       -6.494   3.698   4.658  0.00  0.00    +0.130 S 
BRANCH  18  24
ATOM     19  C   LIG    1      -12.271   3.999   7.715  0.00  0.00    +0.150 A 
ATOM     20  C   LIG    1      -12.465   3.035   6.731  0.00  0.00    -0.050 A 
ATOM     21  C   LIG    1      -11.447   2.697   5.875  0.00  0.00    +0.120 A 
ATOM     22  C   LIG    1      -10.187   3.323   5.979  0.00  0.00    +0.050 A 
ATOM     23  N   LIG    1       -9.083   3.124   5.229  0.00  0.00    -0.460 NA
ATOM     24  C   LIG    1       -8.031   3.814   5.511  0.00  0.00    +0.050 A 
ATOM     25  S   LIG    1       -8.350   4.892   6.862  0.00  0.00    +0.130 S 
ATOM     26  C   LIG    1      -10.003   4.291   6.971  0.00  0.00    -0.140 A 
ATOM     27  C   LIG    1      -11.044   4.624   7.833  0.00  0.00    +0.030 A 
BRANCH  19  28
ATOM     28  O   LIG    1      -13.286   4.326   8.558  0.00  0.00    -0.310 OA
BRANCH  28  30
ATOM     29  C   LIG    1      -15.540   4.136   9.410  0.00  0.00    +0.070 C 
ATOM     30  C   LIG    1      -14.526   3.639   8.377  0.00  0.00    +0.190 C 
ENDBRANCH  28  30
ENDBRANCH  19  28
ENDBRANCH  18  24
ENDBRANCH  17  18
ENDBRANCH   1  17
TORSDOF 6
