REMARK  Name = ZINCrH000004jkky.0
REMARK                            x       y       z     vdW  Elec       q    Type
REMARK                         _______ _______ _______ _____ _____    ______ ____
ROOT
ATOM      1  N   LIG    1       -2.563   1.192   0.960  0.00  0.00    -0.520 NA
ATOM      2  C   LIG    1       -3.532   1.478   2.030  0.00  0.00    +0.250 C 
ATOM      3  C   LIG    1       -3.018   0.859   3.327  0.00  0.00    -0.050 C 
ATOM      4  C   LIG    1       -1.583   1.244   3.565  0.00  0.00    -0.060 A 
ATOM      5  C   LIG    1       -1.050   1.072   4.833  0.00  0.00    +0.030 A 
ATOM      6  C   LIG    1        0.270   1.403   5.092  0.00  0.00    +0.060 A 
ATOM      7  C   LIG    1        1.066   1.907   4.069  0.00  0.00    +0.060 A 
ATOM      8  O   LIG    1        2.365   2.221   4.295  0.00  0.00    -0.310 OA
ATOM      9  C   LIG    1        2.832   2.325   5.631  0.00  0.00    +0.220 C 
ATOM     10  C   LIG    1        2.175   1.297   6.539  0.00  0.00    +0.220 C 
ATOM     11  C   LIG    1        0.526   2.082   2.805  0.00  0.00    +0.040 A 
ATOM     12  O   LIG    1        0.771   1.242   6.342  0.00  0.00    -0.310 OA
ATOM     13  C   LIG    1       -0.797   1.754   2.552  0.00  0.00    -0.100 A 
ATOM     14  C   LIG    1       -3.885   1.330   4.509  0.00  0.00    +0.040 C 
ATOM     15  C   LIG    1       -4.921   0.194   4.695  0.00  0.00    +0.020 C 
ATOM     16  C   LIG    1       -4.087  -1.081   4.415  0.00  0.00    +0.020 C 
ATOM     17  C   LIG    1       -3.145  -0.671   3.264  0.00  0.00    +0.020 C 
ATOM     18  C   LIG    1       -1.336   1.969   1.162  0.00  0.00    +0.230 C 
ATOM     19  C   LIG    1       -0.286   1.528   0.140  0.00  0.00    +0.050 C 
ENDROOT
BRANCH   1  20
ATOM     20  C   LIG    1       -2.270  -0.245   0.883  0.00  0.00    +0.350 C 
BRANCH  20  24
ATOM     21  C   LIG    1       -1.020  -0.768  -2.473  0.00  0.00    +0.160 A 
ATOM     22  N   LIG    1       -0.004  -1.119  -1.737  0.00  0.00    -0.280 NA
ATOM     23  N   LIG    1       -0.307  -0.978  -0.495  0.00  0.00    -0.290 NA
ATOM     24  C   LIG    1       -1.530  -0.540  -0.396  0.00  0.00    +0.180 A 
ATOM     25  O   LIG    1       -2.007  -0.393  -1.643  0.00  0.00    -0.210 OA
BRANCH  21  27
ATOM     26  C   LIG    1       -1.586  -2.139  -4.460  0.00  0.00    +0.060 C 
ATOM     27  C   LIG    1       -1.077  -0.779  -3.979  0.00  0.00    +0.180 C 
ENDBRANCH  21  27
ENDBRANCH  20  24
ENDBRANCH   1  20
TORSDOF 3
