REMARK  Name = ZINCvU000000091Y.0
REMARK                            x       y       z     vdW  Elec       q    Type
REMARK                         _______ _______ _______ _____ _____    ______ ____
ROOT
ATOM      1  N   LIG    1       -3.488  12.240  -2.955  0.00  0.00    -0.450 N 
ATOM      2  C   LIG    1       -3.749  13.442  -2.358  0.00  0.00    +0.180 A 
ATOM      3  N   LIG    1       -3.736  13.246  -1.070  0.00  0.00    -0.250 NA
ATOM      4  N   LIG    1       -3.491  12.011  -0.814  0.00  0.00    -0.290 NA
ATOM      5  C   LIG    1       -3.334  11.346  -1.935  0.00  0.00    +0.160 A 
ENDROOT
BRANCH   1   6
ATOM      6  C   LIG    1       -3.396  11.967  -4.391  0.00  0.00    +0.350 C 
BRANCH   6   8
ATOM      7  C   LIG    1       -5.272  12.254  -5.927  0.00  0.00    +0.060 C 
ATOM      8  C   LIG    1       -4.757  11.593  -4.920  0.00  0.00    -0.070 C 
ENDBRANCH   6   8
ENDBRANCH   1   6
BRANCH   2   9
ATOM      9  C   LIG    1       -4.000  14.752  -3.059  0.00  0.00    +0.330 C 
BRANCH   9  10
ATOM     10  O   LIG    1       -2.759  15.433  -3.254  0.00  0.00    -0.310 OA
BRANCH  10  11
ATOM     11  C   LIG    1       -2.809  16.640  -3.877  0.00  0.00    +0.130 A 
ATOM     12  C   LIG    1       -4.026  17.154  -4.299  0.00  0.00    -0.090 A 
ATOM     13  C   LIG    1       -4.074  18.384  -4.928  0.00  0.00    +0.060 A 
ATOM     14  C   LIG    1       -2.910  19.095  -5.147  0.00  0.00    -0.030 A 
ATOM     15  C   LIG    1       -1.694  18.582  -4.733  0.00  0.00    -0.040 A 
ATOM     16  C   LIG    1       -0.427  19.360  -4.974  0.00  0.00    +0.090 C 
ATOM     17  C   LIG    1       -1.641  17.356  -4.099  0.00  0.00    -0.020 A 
ENDBRANCH  10  11
ENDBRANCH   9  10
ENDBRANCH   2   9
BRANCH   5  18
ATOM     18  S   LIG    1       -2.983   9.626  -2.092  0.00  0.00    +0.030 S 
BRANCH  18  19
ATOM     19  C   LIG    1       -2.924   9.156  -0.345  0.00  0.00    +0.210 C 
BRANCH  19  20
ATOM     20  C   LIG    1       -2.629   7.683  -0.231  0.00  0.00    +0.110 A 
ATOM     21  C   LIG    1       -3.587   6.756  -0.199  0.00  0.00    -0.100 A 
ATOM     22  S   LIG    1       -2.817   5.177  -0.069  0.00  0.00    +0.150 S 
ATOM     23  C   LIG    1       -1.276   5.918  -0.060  0.00  0.00    +0.300 A 
ATOM     24  N   LIG    1       -1.400   7.205  -0.155  0.00  0.00    -0.520 NA
BRANCH  23  25
ATOM     25  N   LIG    1       -0.069   5.240   0.029  0.00  0.00    -0.630 N 
ATOM     26  H   LIG    1        0.760   5.736   0.117  0.00  0.00    +0.420 HD
BRANCH  25  27
ATOM     27  C   LIG    1       -0.048   3.843  -0.006  0.00  0.00    +0.160 A 
ATOM     28  C   LIG    1       -0.936   3.154  -0.823  0.00  0.00    -0.030 A 
ATOM     29  C   LIG    1       -0.912   1.774  -0.855  0.00  0.00    +0.050 A 
ATOM     30  C   LIG    1       -0.006   1.077  -0.076  0.00  0.00    -0.010 A 
ATOM     31  C   LIG    1        0.875   1.760   0.742  0.00  0.00    +0.040 A 
ATOM     32  C   LIG    1        0.862   3.140   0.774  0.00  0.00    -0.010 A 
ENDBRANCH  25  27
ENDBRANCH  23  25
ENDBRANCH  19  20
ENDBRANCH  18  19
ENDBRANCH   5  18
TORSDOF 10
