REMARK  Name = ZINCrD000000AtzH.0
REMARK                            x       y       z     vdW  Elec       q    Type
REMARK                         _______ _______ _______ _____ _____    ______ ____
ROOT
ATOM      1  O   LIG    1        6.273   2.251  -0.046  0.00  0.00    -0.490 OA
ATOM      2  C   LIG    1        5.420   3.113  -0.033  0.00  0.00    +0.540 C 
ATOM      3  N   LIG    1        5.776   4.413  -0.029  0.00  0.00    -0.640 N 
ATOM      4  H   LIG    1        5.094   5.102  -0.019  0.00  0.00    +0.410 HD
ENDROOT
BRANCH   3   5
ATOM      5  C   LIG    1        7.125   4.766  -0.040  0.00  0.00    +0.300 A 
ATOM      6  C   LIG    1        8.181   3.908  -0.049  0.00  0.00    -0.100 A 
ATOM      7  C   LIG    1        9.352   4.671  -0.062  0.00  0.00    +0.250 A 
ATOM      8  N   LIG    1        9.019   5.936  -0.052  0.00  0.00    -0.280 NA
ATOM      9  N   LIG    1        7.621   6.025  -0.038  0.00  0.00    -0.380 N 
BRANCH   9  10
ATOM     10  C   LIG    1        6.836   7.261  -0.024  0.00  0.00    +0.250 C 
ATOM     11  C   LIG    1        7.190   8.127  -1.250  0.00  0.00    +0.030 C 
ATOM     12  C   LIG    1        7.147   9.580  -0.714  0.00  0.00    +0.020 C 
ATOM     13  C   LIG    1        7.746   9.439   0.708  0.00  0.00    +0.020 C 
ATOM     14  C   LIG    1        7.189   8.095   1.221  0.00  0.00    +0.030 C 
ENDBRANCH   9  10
ENDBRANCH   3   5
BRANCH   2  15
ATOM     15  C   LIG    1        3.962   2.731  -0.021  0.00  0.00    +0.120 C 
BRANCH  15  16
ATOM     16  S   LIG    1        3.812   0.927  -0.029  0.00  0.00    +0.140 S 
BRANCH  16  17
ATOM     17  C   LIG    1        2.057   0.767  -0.013  0.00  0.00    +0.200 A 
ATOM     18  N   LIG    1        1.182   1.749   0.000  0.00  0.00    -0.330 NA
ATOM     19  N   LIG    1       -0.015   1.285   0.009  0.00  0.00    -0.020 NA
ATOM     20  N   LIG    1        0.002  -0.004   0.002  0.00  0.00    -0.060 NA
ATOM     21  N   LIG    1        1.353  -0.393  -0.013  0.00  0.00    -0.310 N 
BRANCH  21  22
ATOM     22  C   LIG    1        1.863  -1.700  -0.025  0.00  0.00    +0.120 A 
ATOM     23  C   LIG    1        3.023  -1.987  -0.731  0.00  0.00    +0.050 A 
ATOM     24  C   LIG    1        3.526  -3.273  -0.737  0.00  0.00    +0.070 A 
ATOM     25  C   LIG    1        2.869  -4.277  -0.048  0.00  0.00    -0.020 A 
ATOM     26  C   LIG    1        1.710  -3.995   0.652  0.00  0.00    +0.060 A 
ATOM     27 CL   LIG    1        3.501  -5.894  -0.062  0.00  0.00    -0.050 Cl
ATOM     28  C   LIG    1        1.206  -2.709   0.666  0.00  0.00    +0.070 A 
ENDBRANCH  21  22
ENDBRANCH  16  17
ENDBRANCH  15  16
ENDBRANCH   2  15
TORSDOF 6
