REMARK  Name = ZINCnE000001JUL8.0
REMARK                            x       y       z     vdW  Elec       q    Type
REMARK                         _______ _______ _______ _____ _____    ______ ____
ROOT
ATOM      1  C   LIG    1        4.864   1.056  -0.252  0.00  0.00    +0.020 C 
ATOM      2  C   LIG    1        5.107   0.702  -1.720  0.00  0.00    +0.080 C 
ENDROOT
BRANCH   1   3
ATOM      3  C   LIG    1        3.556   1.794  -0.123  0.00  0.00    +0.540 C 
ATOM      4  N   LIG    1        2.403   1.106  -0.014  0.00  0.00    -0.670 N 
ATOM      5  H   LIG    1        2.419   0.138   0.049  0.00  0.00    +0.420 HD
ATOM      6  O   LIG    1        3.542   3.007  -0.117  0.00  0.00    -0.500 OA
BRANCH   4   7
ATOM      7  C   LIG    1        1.181   1.788   0.008  0.00  0.00    +0.170 A 
ATOM      8  C   LIG    1        0.059   1.225  -0.586  0.00  0.00    +0.000 A 
ATOM      9  C   LIG    1       -1.145   1.902  -0.567  0.00  0.00    +0.070 A 
ATOM     10  C   LIG    1       -1.236   3.135   0.053  0.00  0.00    -0.110 A 
ATOM     11  C   LIG    1       -0.120   3.699   0.646  0.00  0.00    +0.070 A 
ATOM     12 BR   LIG    1       -2.887   4.057   0.082  0.00  0.00    -0.060 Br
ATOM     13  C   LIG    1        1.087   3.028   0.625  0.00  0.00    +0.030 A 
ENDBRANCH   4   7
ENDBRANCH   1   3
BRANCH   1  14
ATOM     14  S   LIG    1        6.214   2.110   0.347  0.00  0.00    +0.030 S 
BRANCH  14  19
ATOM     15  N   LIG    1       11.161  -0.581   0.391  0.00  0.00    -0.620 NA
ATOM     16  C   LIG    1        9.922  -0.162   0.296  0.00  0.00    +0.330 A 
ATOM     17  N   LIG    1        8.835  -0.862  -0.138  0.00  0.00    -0.510 NA
ATOM     18  N   LIG    1        7.636  -0.186  -0.140  0.00  0.00    -0.250 NA
ATOM     19  C   LIG    1        7.615   1.046   0.261  0.00  0.00    -0.080 A 
ATOM     20  S   LIG    1        9.286   1.445   0.698  0.00  0.00    -0.100 S 
BRANCH  15  21
ATOM     21  C   LIG    1       11.502  -1.952   0.004  0.00  0.00    +0.210 C 
BRANCH  21  22
ATOM     22  C   LIG    1       12.433  -1.923  -1.210  0.00  0.00    +0.150 C 
BRANCH  22  24
ATOM     23  C   LIG    1       14.619  -1.237  -1.913  0.00  0.00    +0.170 C 
ATOM     24  O   LIG    1       13.673  -1.314  -0.845  0.00  0.00    -0.370 OA
ENDBRANCH  22  24
ENDBRANCH  21  22
ENDBRANCH  15  21
ENDBRANCH  14  19
ENDBRANCH   1  14
TORSDOF 7
