REMARK  Name = ZINCrH00000No548.0
REMARK                            x       y       z     vdW  Elec       q    Type
REMARK                         _______ _______ _______ _____ _____    ______ ____
ROOT
ATOM      1  C   LIG    1        7.235   4.029  -0.045  0.00  0.00    -0.070 A 
ATOM      2  C   LIG    1        7.789   4.429  -1.248  0.00  0.00    +0.030 A 
ATOM      3  C   LIG    1        8.912   5.231  -1.262  0.00  0.00    +0.040 A 
ATOM      4  C   LIG    1        9.496   5.629  -0.058  0.00  0.00    -0.120 A 
ATOM      5  C   LIG    1        8.935   5.218   1.152  0.00  0.00    +0.080 A 
ATOM      6  C   LIG    1        7.809   4.421   1.152  0.00  0.00    +0.040 A 
ENDROOT
BRANCH   4   7
ATOM      7  C   LIG    1       10.703   6.482  -0.065  0.00  0.00    +0.580 C 
ATOM      8  N   LIG    1       11.242   6.877  -1.236  0.00  0.00    -0.580 N 
ATOM      9  H   LIG    1       10.837   6.602  -2.073  0.00  0.00    +0.390 HD
ATOM     10  O   LIG    1       11.209   6.827   0.985  0.00  0.00    -0.500 OA
BRANCH   8  11
ATOM     11  N   LIG    1       12.386   7.686  -1.242  0.00  0.00    -0.250 NA
ATOM     12  C   LIG    1       12.906   8.068  -2.372  0.00  0.00    +0.290 C 
BRANCH  12  13
ATOM     13  C   LIG    1       14.104   8.914  -2.379  0.00  0.00    +0.030 A 
ATOM     14  C   LIG    1       14.757   9.390  -3.494  0.00  0.00    +0.000 A 
ATOM     15  C   LIG    1       15.844  10.153  -3.042  0.00  0.00    -0.060 A 
ATOM     16  C   LIG    1       15.833  10.129  -1.691  0.00  0.00    +0.180 A 
ATOM     17  N   LIG    1       14.774   9.381  -1.274  0.00  0.00    -0.540 N 
ATOM     18  H   LIG    1       14.534   9.206  -0.350  0.00  0.00    +0.420 HD
ENDBRANCH  12  13
ENDBRANCH   8  11
ENDBRANCH   4   7
BRANCH   1  19
ATOM     19  C   LIG    1        6.005   3.158  -0.038  0.00  0.00    +0.250 C 
BRANCH  19  20
ATOM     20  O   LIG    1        4.838   3.982  -0.022  0.00  0.00    -0.310 OA
BRANCH  20  24
ATOM     21  C   LIG    1        1.186   2.059   0.002  0.00  0.00    +0.100 A 
ATOM     22  C   LIG    1        2.359   1.319  -0.008  0.00  0.00    -0.040 A 
ATOM     23  C   LIG    1        3.581   1.963  -0.021  0.00  0.00    -0.040 A 
ATOM     24  C   LIG    1        3.635   3.349  -0.014  0.00  0.00    +0.090 A 
ATOM     25  C   LIG    1        2.462   4.088   0.001  0.00  0.00    +0.030 A 
ATOM     26  C   LIG    1        1.240   3.445   0.009  0.00  0.00    +0.030 A 
BRANCH  21  27
ATOM     27  O   LIG    1       -0.017   1.425   0.010  0.00  0.00    -0.320 OA
BRANCH  27  29
ATOM     28  C   LIG    1       -1.433  -0.534   0.013  0.00  0.00    +0.070 C 
ATOM     29  C   LIG    1        0.002  -0.004   0.002  0.00  0.00    +0.170 C 
ENDBRANCH  27  29
ENDBRANCH  21  27
ENDBRANCH  20  24
ENDBRANCH  19  20
ENDBRANCH   1  19
TORSDOF 8
