REMARK  Name = ZINCrg000000sr3i.0
REMARK                            x       y       z     vdW  Elec       q    Type
REMARK                         _______ _______ _______ _____ _____    ______ ____
ROOT
ATOM      1  C   LIG    1       -4.024   7.423  -2.531  0.00  0.00    +0.520 C 
ATOM      2  N   LIG    1       -3.778   6.785  -1.369  0.00  0.00    -0.730 N 
ATOM      3  H   LIG    1       -3.940   7.235  -0.525  0.00  0.00    +0.400 HD
ATOM      4  O   LIG    1       -3.822   6.861  -3.586  0.00  0.00    -0.530 OA
ENDROOT
BRANCH   1   5
ATOM      5  C   LIG    1       -4.551   8.835  -2.518  0.00  0.00    +0.060 C 
BRANCH   5   6
ATOM      6  C   LIG    1       -4.742   9.321  -3.957  0.00  0.00    +0.140 C 
BRANCH   6  17
ATOM      7  C   LIG    1       -7.602   9.818  -3.720  0.00  0.00    +0.160 C 
ATOM      8  C   LIG    1       -6.643  10.975  -3.831  0.00  0.00    +0.240 A 
ATOM      9  N   LIG    1       -7.100  12.206  -3.816  0.00  0.00    -0.460 NA
ATOM     10  C   LIG    1       -6.268  13.249  -3.917  0.00  0.00    +0.450 A 
ATOM     11  N   LIG    1       -6.471  14.561  -3.932  0.00  0.00    -0.530 NA
ATOM     12  C   LIG    1       -5.311  15.193  -4.054  0.00  0.00    +0.490 A 
ATOM     13  N   LIG    1       -4.337  14.317  -4.120  0.00  0.00    -0.340 NA
ATOM     14  N   LIG    1       -4.921  13.047  -4.035  0.00  0.00    -0.330 N 
ATOM     15  C   LIG    1       -4.416  11.784  -4.048  0.00  0.00    +0.210 A 
ATOM     16  C   LIG    1       -2.932  11.556  -4.177  0.00  0.00    +0.160 C 
ATOM     17  C   LIG    1       -5.269  10.733  -3.944  0.00  0.00    -0.190 A 
ENDBRANCH   6  17
ENDBRANCH   5   6
ENDBRANCH   1   5
BRANCH   2  18
ATOM     18  C   LIG    1       -3.266   5.413  -1.381  0.00  0.00    +0.270 C 
BRANCH  18  19
ATOM     19  C   LIG    1       -3.075   4.927   0.057  0.00  0.00    +0.160 C 
BRANCH  19  20
ATOM     20  C   LIG    1       -2.548   3.515   0.044  0.00  0.00    +0.140 A 
ATOM     21  N   LIG    1       -3.266   2.422   0.045  0.00  0.00    -0.240 NA
ATOM     22  N   LIG    1       -2.502   1.386   0.033  0.00  0.00    -0.280 NA
ATOM     23  C   LIG    1       -1.237   1.772   0.018  0.00  0.00    +0.200 A 
ATOM     24  C   LIG    1       -0.013   1.076   0.008  0.00  0.00    +0.080 A 
ATOM     25  C   LIG    1        1.151   1.780   0.001  0.00  0.00    +0.060 A 
ATOM     26  C   LIG    1        1.117   3.185   0.009  0.00  0.00    +0.030 A 
ATOM     27  C   LIG    1       -0.064   3.838   0.023  0.00  0.00    +0.230 A 
ATOM     28  N   LIG    1       -1.239   3.145   0.030  0.00  0.00    -0.390 N 
ENDBRANCH  19  20
ENDBRANCH  18  19
ENDBRANCH   2  18
TORSDOF 6
