REMARK  Name = ZINCrH000004jowH.0
REMARK                            x       y       z     vdW  Elec       q    Type
REMARK                         _______ _______ _______ _____ _____    ______ ____
ROOT
ATOM      1  C   LIG    1        1.199  -2.169  -0.021  0.00  0.00    +0.130 C 
ENDROOT
BRANCH   1   2
ATOM      2  C   LIG    1        1.178  -0.662  -0.012  0.00  0.00    +0.530 C 
ATOM      3  N   LIG    1        0.002  -0.004   0.002  0.00  0.00    -0.620 N 
ATOM      4  H   LIG    1       -0.831  -0.500   0.007  0.00  0.00    +0.420 HD
ATOM      5  O   LIG    1        2.220  -0.041  -0.018  0.00  0.00    -0.480 OA
BRANCH   3   6
ATOM      6  C   LIG    1       -0.017   1.384   0.010  0.00  0.00    +0.050 A 
ATOM      7  C   LIG    1       -1.149   2.143   0.019  0.00  0.00    -0.090 A 
ATOM      8  C   LIG    1       -0.883   3.578   0.030  0.00  0.00    -0.070 A 
ATOM      9  C   LIG    1        0.418   3.853   0.019  0.00  0.00    -0.270 A 
ATOM     10  C   LIG    1        0.644   5.360   0.025  0.00  0.00    +0.120 C 
ATOM     11  C   LIG    1       -0.708   5.965  -0.406  0.00  0.00    +0.040 C 
ATOM     12  C   LIG    1       -1.696   4.870   0.045  0.00  0.00    +0.110 C 
ATOM     13  S   LIG    1        1.370   2.369   0.002  0.00  0.00    +0.350 S 
BRANCH   7  14
ATOM     14  C   LIG    1       -2.469   1.587   0.021  0.00  0.00    +0.270 C 
ATOM     15  N   LIG    1       -3.516   1.145   0.023  0.00  0.00    -0.420 NA
ENDBRANCH   7  14
ENDBRANCH   3   6
ENDBRANCH   1   2
BRANCH   1  16
ATOM     16  S   LIG    1        2.913  -2.749  -0.039  0.00  0.00    +0.100 S 
BRANCH  16  18
ATOM     17  N   LIG    1        3.612  -5.458  -0.060  0.00  0.00    -0.450 N 
ATOM     18  C   LIG    1        2.647  -4.491  -0.046  0.00  0.00    +0.140 A 
ATOM     19  N   LIG    1        1.483  -5.101  -0.033  0.00  0.00    -0.280 NA
ATOM     20  N   LIG    1        1.651  -6.375  -0.047  0.00  0.00    -0.250 NA
ATOM     21  C   LIG    1        2.935  -6.658  -0.060  0.00  0.00    +0.260 A 
BRANCH  21  22
ATOM     22  C   LIG    1        3.535  -8.001  -0.073  0.00  0.00    +0.030 A 
ATOM     23  C   LIG    1        2.893  -9.167   0.218  0.00  0.00    +0.030 A 
ATOM     24  C   LIG    1        3.842 -10.198   0.079  0.00  0.00    -0.050 A 
ATOM     25  C   LIG    1        5.006  -9.619  -0.277  0.00  0.00    +0.200 A 
ATOM     26  O   LIG    1        4.818  -8.292  -0.367  0.00  0.00    -0.170 OA
ENDBRANCH  21  22
BRANCH  17  28
ATOM     27  C   LIG    1        5.582  -5.199   1.366  0.00  0.00    +0.050 C 
ATOM     28  C   LIG    1        5.064  -5.260  -0.072  0.00  0.00    +0.310 C 
ENDBRANCH  17  28
ENDBRANCH  16  18
ENDBRANCH   1  16
TORSDOF 7
