REMARK  Name = ZINCrD00000723TI.0
REMARK                            x       y       z     vdW  Elec       q    Type
REMARK                         _______ _______ _______ _____ _____    ______ ____
ROOT
ATOM      1  C   LIG    1        0.259   4.114   0.023  0.00  0.00    +0.210 A 
ATOM      2  C   LIG    1       -1.001   3.556   0.032  0.00  0.00    -0.110 A 
ATOM      3  C   LIG    1       -1.134   2.167   0.019  0.00  0.00    +0.530 A 
ATOM      4  N   LIG    1       -0.017   1.381   0.010  0.00  0.00    -0.460 N 
ATOM      5  C   LIG    1        1.191   2.002   0.001  0.00  0.00    +0.320 A 
ATOM      6  S   LIG    1        2.399   0.706  -0.018  0.00  0.00    +0.190 S 
ATOM      7  C   LIG    1        1.198  -0.589  -0.014  0.00  0.00    -0.180 A 
ATOM      8  C   LIG    1        1.474  -2.068  -0.026  0.00  0.00    +0.140 C 
ATOM      9  C   LIG    1        0.189  -2.808   0.369  0.00  0.00    +0.030 C 
ATOM     10  C   LIG    1       -0.974  -2.244  -0.453  0.00  0.00    +0.030 C 
ATOM     11  C   LIG    1       -1.287  -0.821   0.012  0.00  0.00    +0.140 C 
ATOM     12  C   LIG    1        0.002  -0.004   0.002  0.00  0.00    +0.080 A 
ATOM     13  O   LIG    1       -2.243   1.656   0.021  0.00  0.00    -0.510 OA
ATOM     14  N   LIG    1        1.320   3.316   0.008  0.00  0.00    -0.490 NA
ENDROOT
BRANCH   1  15
ATOM     15  C   LIG    1        0.431   5.612   0.030  0.00  0.00    +0.320 C 
BRANCH  15  16
ATOM     16  O   LIG    1        1.073   6.019   1.267  0.00  0.00    -0.340 OA
BRANCH  16  17
ATOM     17  C   LIG    1        1.301   7.337   1.433  0.00  0.00    +0.520 C 
ATOM     18  O   LIG    1        0.972   8.124   0.567  0.00  0.00    -0.500 OA
BRANCH  17  22
ATOM     19  C   LIG    1        3.168   8.740   4.978  0.00  0.00    +0.170 A 
ATOM     20  C   LIG    1        2.793   9.642   3.989  0.00  0.00    -0.030 A 
ATOM     21  C   LIG    1        2.187   9.191   2.838  0.00  0.00    +0.140 A 
ATOM     22  C   LIG    1        1.950   7.824   2.664  0.00  0.00    -0.170 A 
ATOM     23  C   LIG    1        2.323   6.921   3.664  0.00  0.00    +0.120 A 
ATOM     24  C   LIG    1        2.933   7.380   4.810  0.00  0.00    -0.090 A 
BRANCH  19  25
ATOM     25  O   LIG    1        3.764   9.188   6.112  0.00  0.00    -0.310 OA
BRANCH  25  27
ATOM     26  C   LIG    1        4.778   8.897   8.286  0.00  0.00    +0.070 C 
ATOM     27  C   LIG    1        4.123   8.207   7.087  0.00  0.00    +0.190 C 
ENDBRANCH  25  27
ENDBRANCH  19  25
ENDBRANCH  17  22
ENDBRANCH  16  17
ENDBRANCH  15  16
ENDBRANCH   1  15
TORSDOF 6
