REMARK  Name = ZINCtV00000L6jg3.0
REMARK                            x       y       z     vdW  Elec       q    Type
REMARK                         _______ _______ _______ _____ _____    ______ ____
ROOT
ATOM      1  C   LIG    1       -1.208   3.480   3.258  0.00  0.00    +0.140 A 
ATOM      2  C   LIG    1       -0.578   3.173   2.059  0.00  0.00    +0.160 A 
ATOM      3  C   LIG    1       -0.736   1.921   1.498  0.00  0.00    -0.660 A 
ATOM      4  C   LIG    1       -1.511   0.969   2.133  0.00  0.00    +0.140 A 
ATOM      5  C   LIG    1       -2.136   1.268   3.330  0.00  0.00    +0.040 A 
ATOM      6  C   LIG    1       -1.987   2.521   3.895  0.00  0.00    -0.010 A 
ATOM      7 CL   LIG    1       -2.771   2.896   5.398  0.00  0.00    -0.050 Cl
ENDROOT
BRANCH   1  10
ATOM      8  O   LIG    1        1.003   4.941   3.010  0.00  0.00    -0.480 OA
ATOM      9  C   LIG    1        0.112   5.412   3.690  0.00  0.00    +0.560 C 
ATOM     10  N   LIG    1       -1.054   4.749   3.826  0.00  0.00    -0.670 N 
ATOM     11  H   LIG    1       -1.786   5.152   4.319  0.00  0.00    +0.410 HD
BRANCH   9  12
ATOM     12  C   LIG    1        0.306   6.710   4.367  0.00  0.00    -0.130 A 
ATOM     13  C   LIG    1       -0.717   7.256   5.144  0.00  0.00    +0.080 A 
ATOM     14  C   LIG    1       -0.527   8.465   5.778  0.00  0.00    +0.040 A 
ATOM     15  C   LIG    1        0.672   9.145   5.636  0.00  0.00    +0.000 A 
ATOM     16  C   LIG    1        1.689   8.613   4.862  0.00  0.00    +0.050 A 
ATOM     17 CL   LIG    1        0.899  10.671   6.433  0.00  0.00    -0.040 Cl
ATOM     18  C   LIG    1        1.514   7.400   4.227  0.00  0.00    +0.030 A 
ATOM     19 CL   LIG    1        2.790   6.733   3.257  0.00  0.00    -0.010 Cl
ENDBRANCH   9  12
ENDBRANCH   1  10
BRANCH   3  20
ATOM     20  S   LIG    1        0.059   1.534  -0.026  0.00  0.00    +2.690 S 
ATOM     21  O   LIG    1        1.226   2.343  -0.087  0.00  0.00    -0.930 OA
ATOM     22  O   LIG    1        0.091   0.116  -0.113  0.00  0.00    -0.940 OA
BRANCH  20  23
ATOM     23  N   LIG    1       -0.936   2.054  -1.244  0.00  0.00    -1.060 N 
ATOM     24  H   LIG    1       -1.321   1.414  -1.862  0.00  0.00    +0.430 HD
BRANCH  23  25
ATOM     25  C   LIG    1       -1.219   3.415  -1.380  0.00  0.00    +0.130 A 
ATOM     26  C   LIG    1       -2.462   3.908  -1.004  0.00  0.00    +0.030 A 
ATOM     27  C   LIG    1       -2.738   5.255  -1.136  0.00  0.00    +0.040 A 
ATOM     28  C   LIG    1       -1.782   6.111  -1.652  0.00  0.00    +0.040 A 
ATOM     29  C   LIG    1       -0.545   5.622  -2.033  0.00  0.00    -0.030 A 
ATOM     30 CL   LIG    1        0.652   6.701  -2.679  0.00  0.00    -0.060 Cl
ATOM     31  C   LIG    1       -0.261   4.277  -1.898  0.00  0.00    +0.050 A 
ENDBRANCH  23  25
ENDBRANCH  20  23
ENDBRANCH   3  20
TORSDOF 5
