REMARK  Name = ZINCtV000002O7Jy.0
REMARK                            x       y       z     vdW  Elec       q    Type
REMARK                         _______ _______ _______ _____ _____    ______ ____
ROOT
ATOM      1  O   LIG    1       -0.327  -6.970   1.021  0.00  0.00    -0.510 OA
ATOM      2  C   LIG    1       -0.432  -6.364  -0.028  0.00  0.00    +0.560 C 
ATOM      3  N   LIG    1       -0.348  -7.025  -1.200  0.00  0.00    -0.670 N 
ATOM      4  H   LIG    1       -0.499  -6.554  -2.034  0.00  0.00    +0.420 HD
ENDROOT
BRANCH   3   5
ATOM      5  C   LIG    1       -0.043  -8.390  -1.212  0.00  0.00    +0.150 A 
ATOM      6  C   LIG    1       -0.512  -9.217  -0.200  0.00  0.00    +0.080 A 
ATOM      7  C   LIG    1       -0.210 -10.565  -0.214  0.00  0.00    +0.060 A 
ATOM      8  C   LIG    1        0.560 -11.091  -1.237  0.00  0.00    -0.010 A 
ATOM      9  C   LIG    1        1.029 -10.269  -2.247  0.00  0.00    -0.160 A 
ATOM     10 CL   LIG    1        0.938 -12.785  -1.252  0.00  0.00    -0.040 Cl
ATOM     11  C   LIG    1        0.724  -8.923  -2.240  0.00  0.00    +0.060 A 
BRANCH   9  12
ATOM     12  C   LIG    1        1.867 -10.846  -3.358  0.00  0.00    +0.510 C 
ATOM     13  F   LIG    1        1.135 -11.828  -4.034  0.00  0.00    -0.170 F 
ATOM     14  F   LIG    1        3.026 -11.416  -2.820  0.00  0.00    -0.170 F 
ATOM     15  F   LIG    1        2.220  -9.830  -4.252  0.00  0.00    -0.170 F 
ENDBRANCH   9  12
ENDBRANCH   3   5
BRANCH   2  16
ATOM     16  C   LIG    1       -0.652  -4.902  -0.018  0.00  0.00    -0.130 A 
ATOM     17  C   LIG    1       -0.739  -4.215   1.193  0.00  0.00    +0.080 A 
ATOM     18  C   LIG    1       -0.945  -2.851   1.195  0.00  0.00    +0.040 A 
ATOM     19  C   LIG    1       -1.066  -2.164   0.000  0.00  0.00    -0.070 A 
ATOM     20  C   LIG    1       -0.985  -2.841  -1.204  0.00  0.00    +0.040 A 
ATOM     21  C   LIG    1       -0.774  -4.204  -1.221  0.00  0.00    +0.040 A 
BRANCH  19  22
ATOM     22  C   LIG    1       -1.292  -0.674   0.010  0.00  0.00    +0.250 C 
BRANCH  22  23
ATOM     23  O   LIG    1       -0.031  -0.001  -0.005  0.00  0.00    -0.300 OA
BRANCH  23  24
ATOM     24  C   LIG    1       -0.057   1.358   0.002  0.00  0.00    +0.130 A 
ATOM     25  C   LIG    1       -1.271   2.029   0.016  0.00  0.00    -0.060 A 
ATOM     26  C   LIG    1       -1.295   3.410   0.027  0.00  0.00    +0.070 A 
ATOM     27  C   LIG    1       -0.110   4.124   0.014  0.00  0.00    -0.070 A 
ATOM     28  C   LIG    1        1.102   3.456  -0.006  0.00  0.00    +0.070 A 
ATOM     29 CL   LIG    1       -0.143   5.860   0.022  0.00  0.00    -0.070 Cl
ATOM     30  C   LIG    1        1.130   2.075  -0.012  0.00  0.00    +0.000 A 
ENDBRANCH  23  24
ENDBRANCH  22  23
ENDBRANCH  19  22
ENDBRANCH   2  16
TORSDOF 6
