REMARK  Name = ZINCnE000001SBF2.0
REMARK                            x       y       z     vdW  Elec       q    Type
REMARK                         _______ _______ _______ _____ _____    ______ ____
ROOT
ATOM      1  O   LIG    1       -4.714   5.471   0.075  0.00  0.00    -0.580 OA
ATOM      2  C   LIG    1       -3.631   6.032   0.069  0.00  0.00    +0.500 C 
ENDROOT
BRANCH   2   3
ATOM      3  C   LIG    1       -2.383   5.234   0.053  0.00  0.00    -0.120 A 
ATOM      4  C   LIG    1       -2.441   3.846   0.046  0.00  0.00    +0.130 A 
ATOM      5  C   LIG    1       -1.228   3.136   0.031  0.00  0.00    -0.090 A 
ATOM      6  C   LIG    1       -1.206   1.732   0.017  0.00  0.00    +0.050 A 
ATOM      7  C   LIG    1       -0.013   1.076   0.008  0.00  0.00    +0.020 A 
ATOM      8  C   LIG    1        1.189   1.779   0.000  0.00  0.00    +0.000 A 
ATOM      9  C   LIG    1        1.206   3.143   0.007  0.00  0.00    +0.120 A 
ATOM     10  F   LIG    1        2.383   3.806  -0.001  0.00  0.00    -0.130 F 
ATOM     11  C   LIG    1       -0.006   3.857   0.023  0.00  0.00    +0.100 A 
ATOM     12  N   LIG    1       -0.015   5.194   0.030  0.00  0.00    -0.480 NA
ATOM     13  C   LIG    1       -1.133   5.874   0.044  0.00  0.00    +0.370 A 
ENDBRANCH   2   3
BRANCH   2  14
ATOM     14  N   LIG    1       -3.570   7.363   0.075  0.00  0.00    -0.630 NA
ATOM     15  C   LIG    1       -4.698   8.085   0.089  0.00  0.00    +0.370 A 
ATOM     16  N   LIG    1       -4.809   9.416   0.097  0.00  0.00    -0.580 NA
ATOM     17  C   LIG    1       -6.002   9.904   0.110  0.00  0.00    +0.290 A 
ATOM     18  N   LIG    1       -7.023   9.043   0.114  0.00  0.00    -0.590 NA
ATOM     19  S   LIG    1       -6.317   7.497   0.093  0.00  0.00    +0.100 S 
BRANCH  17  20
ATOM     20  C   LIG    1       -6.237  11.393   0.120  0.00  0.00    +0.170 C 
BRANCH  20  21
ATOM     21  C   LIG    1       -4.891  12.121   0.112  0.00  0.00    -0.010 C 
ATOM     22  C   LIG    1       -4.546  12.982   1.329  0.00  0.00    +0.000 C 
ATOM     23  C   LIG    1       -4.914  13.647   0.001  0.00  0.00    -0.010 C 
ENDBRANCH  20  21
ENDBRANCH  17  20
ENDBRANCH   2  14
TORSDOF 4
