REMARK  Name = ZINCAx00000008jE.0
REMARK                            x       y       z     vdW  Elec       q    Type
REMARK                         _______ _______ _______ _____ _____    ______ ____
ROOT
ATOM      1  C   LIG    1       -0.306   3.627  -9.552  0.00  0.00    +0.190 C 
ATOM      2  C   LIG    1       -0.426   2.671  -8.393  0.00  0.00    +0.400 A 
ATOM      3  N   LIG    1        0.539   1.828  -8.188  0.00  0.00    -0.500 NA
ATOM      4  C   LIG    1        0.500   0.939  -7.163  0.00  0.00    +0.170 A 
ATOM      5  C   LIG    1        1.537   0.032  -6.942  0.00  0.00    +0.010 A 
ATOM      6  C   LIG    1        1.460  -0.855  -5.889  0.00  0.00    +0.100 A 
ATOM      7  C   LIG    1        0.364  -0.862  -5.042  0.00  0.00    +0.010 A 
ATOM      8  C   LIG    1       -0.682   0.028  -5.238  0.00  0.00    +0.230 A 
ATOM      9  C   LIG    1       -0.623   0.931  -6.306  0.00  0.00    -0.230 A 
ATOM     10  C   LIG    1       -1.693   1.901  -6.562  0.00  0.00    +0.560 A 
ATOM     11  O   LIG    1       -2.685   1.949  -5.857  0.00  0.00    -0.520 OA
ATOM     12  N   LIG    1       -1.538   2.737  -7.615  0.00  0.00    -0.530 N 
ENDROOT
BRANCH  12  13
ATOM     13  C   LIG    1       -2.580   3.721  -7.920  0.00  0.00    +0.250 C 
ATOM     14  C   LIG    1       -3.669   3.066  -8.776  0.00  0.00    +0.070 C 
ATOM     15  C   LIG    1       -4.344   1.966  -7.949  0.00  0.00    +0.080 C 
ATOM     16  C   LIG    1       -4.860   2.560  -6.665  0.00  0.00    +0.550 C 
ATOM     17  N   LIG    1       -4.264   3.621  -6.099  0.00  0.00    -0.650 N 
ATOM     18  H   LIG    1       -4.623   3.968  -5.268  0.00  0.00    +0.410 HD
ATOM     19  O   LIG    1       -5.833   2.071  -6.132  0.00  0.00    -0.500 OA
ATOM     20  C   LIG    1       -3.192   4.220  -6.638  0.00  0.00    +0.540 C 
ATOM     21  O   LIG    1       -2.706   5.181  -6.082  0.00  0.00    -0.490 OA
ENDBRANCH  12  13
BRANCH   8  22
ATOM     22  N   LIG    1       -1.783   0.018  -4.384  0.00  0.00    -0.660 N 
ATOM     23  H   LIG    1       -2.318   0.820  -4.274  0.00  0.00    +0.420 HD
ATOM     24  C   LIG    1       -2.106  -1.105  -3.713  0.00  0.00    +0.520 C 
ATOM     25  O   LIG    1       -1.505  -2.136  -3.931  0.00  0.00    -0.510 OA
BRANCH  24  26
ATOM     26  C   LIG    1       -3.212  -1.080  -2.690  0.00  0.00    +0.080 C 
BRANCH  26  27
ATOM     27  C   LIG    1       -3.373  -2.473  -2.079  0.00  0.00    +0.060 C 
BRANCH  27  28
ATOM     28  C   LIG    1       -4.497  -2.448  -1.041  0.00  0.00    +0.200 C 
BRANCH  28  29
ATOM     29  C   LIG    1       -4.656  -3.820  -0.439  0.00  0.00    +0.190 A 
ATOM     30  N   LIG    1       -4.035  -4.282   0.618  0.00  0.00    -0.470 NA
ATOM     31  C   LIG    1       -4.492  -5.545   0.784  0.00  0.00    +0.240 A 
ATOM     32  N   LIG    1       -5.349  -5.776  -0.180  0.00  0.00    -0.370 NA
ATOM     33  O   LIG    1       -5.452  -4.796  -0.887  0.00  0.00    +0.090 OA
BRANCH  31  34
ATOM     34  C   LIG    1       -4.094  -6.489   1.849  0.00  0.00    -0.140 A 
ATOM     35  C   LIG    1       -4.565  -7.745   1.992  0.00  0.00    +0.060 A 
ATOM     36  C   LIG    1       -4.040  -8.438   3.062  0.00  0.00    +0.010 A 
ATOM     37  C   LIG    1       -3.155  -7.759   3.799  0.00  0.00    -0.030 A 
ATOM     38  S   LIG    1       -2.939  -6.147   3.130  0.00  0.00    +0.190 S 
ENDBRANCH  31  34
ENDBRANCH  28  29
ENDBRANCH  27  28
ENDBRANCH  26  27
ENDBRANCH  24  26
ENDBRANCH   8  22
TORSDOF 7
