REMARK  Name = ZINCpe000000XCgd.0
REMARK                            x       y       z     vdW  Elec       q    Type
REMARK                         _______ _______ _______ _____ _____    ______ ____
ROOT
ATOM      1  C   LIG    1       -0.268   1.258  -2.409  0.00  0.00    +0.590 C 
ATOM      2  N   LIG    1       -0.728   1.559  -1.178  0.00  0.00    -0.710 N 
ATOM      3  H   LIG    1       -1.528   2.098  -1.078  0.00  0.00    +0.420 HD
ATOM      4  O   LIG    1        0.784   0.662  -2.536  0.00  0.00    -0.560 OA
ENDROOT
BRANCH   1   9
ATOM      5  C   LIG    1       -3.218   2.747  -7.111  0.00  0.00    +0.150 C 
ATOM      6  C   LIG    1       -2.476   2.381  -5.851  0.00  0.00    +0.160 A 
ATOM      7  C   LIG    1       -2.939   2.826  -4.665  0.00  0.00    -0.110 A 
ATOM      8  C   LIG    1       -2.246   2.485  -3.477  0.00  0.00    +0.410 A 
ATOM      9  C   LIG    1       -1.040   1.652  -3.600  0.00  0.00    -0.320 A 
ATOM     10  C   LIG    1       -0.647   1.254  -4.862  0.00  0.00    +0.390 A 
ATOM     11  O   LIG    1       -2.636   2.871  -2.387  0.00  0.00    -0.520 OA
ATOM     12  N   LIG    1       -1.362   1.615  -5.941  0.00  0.00    -0.470 N 
ATOM     13  C   LIG    1       -0.918   1.168  -7.263  0.00  0.00    +0.340 C 
ENDBRANCH   1   9
BRANCH   2  14
ATOM     14  C   LIG    1       -0.020   1.072   0.008  0.00  0.00    +0.340 C 
BRANCH  14  15
ATOM     15  C   LIG    1       -0.733   1.544   1.248  0.00  0.00    +0.140 A 
ATOM     16  C   LIG    1       -1.653   0.717   1.861  0.00  0.00    -0.040 A 
ATOM     17  C   LIG    1       -2.308   1.157   3.004  0.00  0.00    +0.090 A 
ATOM     18  C   LIG    1       -2.011   2.417   3.491  0.00  0.00    -0.040 A 
ATOM     19  C   LIG    1       -1.073   3.197   2.823  0.00  0.00    +0.310 A 
ATOM     20  N   LIG    1       -0.467   2.740   1.738  0.00  0.00    -0.500 NA
BRANCH  19  21
ATOM     21  N   LIG    1       -0.765   4.465   3.301  0.00  0.00    -0.480 N 
ATOM     22  C   LIG    1       -1.973   5.296   3.406  0.00  0.00    +0.180 C 
ATOM     23  C   LIG    1       -1.598   6.660   3.992  0.00  0.00    +0.230 C 
ATOM     24  O   LIG    1       -0.594   7.265   3.173  0.00  0.00    -0.380 OA
ATOM     25  C   LIG    1        0.597   6.483   3.050  0.00  0.00    +0.220 C 
ATOM     26  C   LIG    1        0.244   5.117   2.454  0.00  0.00    +0.190 C 
ENDBRANCH  19  21
ENDBRANCH  14  15
ENDBRANCH   2  14
TORSDOF 4
