REMARK  Name = ZINCrH000004p1Px.2
REMARK                            x       y       z     vdW  Elec       q    Type
REMARK                         _______ _______ _______ _____ _____    ______ ____
ROOT
ATOM      1  C   LIG    1        0.148  -0.014  -0.079  0.00  0.00    +0.490 C 
ATOM      2  N   LIG    1        0.604  -0.675   1.004  0.00  0.00    -0.670 N 
ATOM      3  H   LIG    1        0.982  -0.183   1.749  0.00  0.00    +0.410 HD
ATOM      4  O   LIG    1       -0.236  -0.632  -1.049  0.00  0.00    -0.510 OA
ENDROOT
BRANCH   2   5
ATOM      5  C   LIG    1        0.533  -2.074   1.052  0.00  0.00    +0.120 A 
ATOM      6  C   LIG    1       -0.524  -2.737   0.443  0.00  0.00    +0.040 A 
ATOM      7  C   LIG    1       -0.591  -4.115   0.486  0.00  0.00    -0.020 A 
ATOM      8  C   LIG    1        0.393  -4.838   1.147  0.00  0.00    +0.100 A 
ATOM      9  C   LIG    1        1.448  -4.175   1.760  0.00  0.00    +0.010 A 
ATOM     10  C   LIG    1        1.518  -2.797   1.712  0.00  0.00    +0.010 A 
BRANCH   8  11
ATOM     11  N   LIG    1        0.323  -6.235   1.194  0.00  0.00    -0.490 N 
ATOM     12  C   LIG    1        1.544  -6.843   0.646  0.00  0.00    +0.160 C 
ATOM     13  C   LIG    1        1.450  -8.366   0.772  0.00  0.00    +0.220 C 
ATOM     14  O   LIG    1        0.270  -8.822   0.104  0.00  0.00    -0.380 OA
ATOM     15  C   LIG    1       -0.938  -8.251   0.613  0.00  0.00    +0.220 C 
ATOM     16  C   LIG    1       -0.868  -6.726   0.485  0.00  0.00    +0.160 C 
ENDBRANCH   8  11
ENDBRANCH   2   5
BRANCH   1  18
ATOM     17  C   LIG    1        1.532   2.035   0.111  0.00  0.00    +0.050 C 
ATOM     18  C   LIG    1        0.114   1.492  -0.082  0.00  0.00    +0.180 C 
BRANCH  18  19
ATOM     19  N   LIG    1       -0.421   1.967  -1.365  0.00  0.00    -0.480 NA
ATOM     20  C   LIG    1       -1.792   1.459  -1.589  0.00  0.00    +0.170 C 
ATOM     21  C   LIG    1       -1.944   1.218  -3.102  0.00  0.00    +0.020 C 
ATOM     22  C   LIG    1       -0.571   1.589  -3.709  0.00  0.00    +0.030 C 
ATOM     23  C   LIG    1        0.390   1.458  -2.501  0.00  0.00    +0.230 C 
BRANCH  23  24
ATOM     24  C   LIG    1        1.617   2.308  -2.703  0.00  0.00    -0.150 A 
ATOM     25  C   LIG    1        2.832   1.846  -3.001  0.00  0.00    -0.020 A 
ATOM     26  C   LIG    1        3.808   2.819  -3.141  0.00  0.00    +0.010 A 
ATOM     27  C   LIG    1        3.386   4.069  -2.949  0.00  0.00    -0.070 A 
ATOM     28  S   LIG    1        1.668   4.062  -2.573  0.00  0.00    +0.140 S 
ENDBRANCH  23  24
ENDBRANCH  18  19
ENDBRANCH   1  18
TORSDOF 5
