REMARK  Name = ZINCvU0000000BrE.0
REMARK                            x       y       z     vdW  Elec       q    Type
REMARK                         _______ _______ _______ _____ _____    ______ ____
ROOT
ATOM      1  C   LIG    1        0.546   6.438   0.030  0.00  0.00    +0.110 C 
ENDROOT
BRANCH   1   4
ATOM      2  C   LIG    1       -2.553   6.595   0.061  0.00  0.00    +0.140 C 
ATOM      3  C   LIG    1       -1.743   5.324   0.047  0.00  0.00    +0.100 A 
ATOM      4  C   LIG    1       -0.402   5.266   0.034  0.00  0.00    -0.170 A 
ATOM      5  C   LIG    1       -0.034   3.848   0.022  0.00  0.00    -0.060 A 
ATOM      6  C   LIG    1        1.183   3.163   0.007  0.00  0.00    +0.060 A 
ATOM      7  C   LIG    1        1.187   1.782   0.000  0.00  0.00    +0.080 A 
ATOM      8  C   LIG    1       -0.013   1.076   0.008  0.00  0.00    -0.030 A 
ATOM      9  C   LIG    1       -1.218   1.742   0.017  0.00  0.00    +0.050 A 
ATOM     10  C   LIG    1       -1.244   3.132   0.030  0.00  0.00    +0.080 A 
ATOM     11  N   LIG    1       -2.265   4.060   0.045  0.00  0.00    -0.590 N 
ATOM     12  H   LIG    1       -3.211   3.847   0.052  0.00  0.00    +0.420 HD
BRANCH   7  13
ATOM     13  O   LIG    1        2.369   1.109  -0.014  0.00  0.00    -0.310 OA
BRANCH  13  14
ATOM     14  C   LIG    1        2.303  -0.319  -0.020  0.00  0.00    +0.600 C 
ATOM     15  F   LIG    1        1.633  -0.759   1.127  0.00  0.00    -0.170 F 
ATOM     16  F   LIG    1        3.598  -0.846  -0.034  0.00  0.00    -0.130 F 
ATOM     17  F   LIG    1        1.612  -0.749  -1.158  0.00  0.00    -0.170 F 
ENDBRANCH  13  14
ENDBRANCH   7  13
ENDBRANCH   1   4
BRANCH   1  18
ATOM     18  C   LIG    1        0.852   6.842  -1.414  0.00  0.00    +0.270 C 
BRANCH  18  19
ATOM     19  N   LIG    1        1.774   7.981  -1.417  0.00  0.00    -1.120 NA
ATOM     20  H   LIG    1        1.918   8.490  -0.604  0.00  0.00    +0.420 HD
BRANCH  19  21
ATOM     21  S   LIG    1        2.569   8.399  -2.808  0.00  0.00    +2.690 S 
ATOM     22  O   LIG    1        3.126   7.199  -3.328  0.00  0.00    -0.950 OA
ATOM     23  O   LIG    1        3.347   9.546  -2.497  0.00  0.00    -0.960 OA
BRANCH  21  24
ATOM     24  C   LIG    1        1.350   8.924  -3.968  0.00  0.00    -0.680 A 
ATOM     25  C   LIG    1        0.770   8.007  -4.824  0.00  0.00    +0.120 A 
ATOM     26  C   LIG    1       -0.189   8.418  -5.731  0.00  0.00    +0.000 A 
ATOM     27  C   LIG    1       -0.561   9.748  -5.787  0.00  0.00    -0.010 A 
ATOM     28  C   LIG    1        0.022  10.666  -4.934  0.00  0.00    -0.010 A 
ATOM     29  C   LIG    1        0.978  10.254  -4.024  0.00  0.00    +0.120 A 
BRANCH  27  30
ATOM     30  C   LIG    1       -1.602  10.198  -6.779  0.00  0.00    -0.040 C 
ATOM     31  C   LIG    1       -2.787  10.813  -6.032  0.00  0.00    +0.040 C 
ATOM     32  C   LIG    1       -2.083   8.995  -7.595  0.00  0.00    +0.030 C 
ATOM     33  C   LIG    1       -0.995  11.241  -7.719  0.00  0.00    +0.040 C 
ENDBRANCH  27  30
ENDBRANCH  21  24
ENDBRANCH  19  21
ENDBRANCH  18  19
ENDBRANCH   1  18
TORSDOF 8
