REMARK  Name = ZINCpe000000YUAV.0
REMARK                            x       y       z     vdW  Elec       q    Type
REMARK                         _______ _______ _______ _____ _____    ______ ____
ROOT
ATOM      1  O   LIG    1        4.352   9.667   0.537  0.00  0.00    -0.530 OA
ATOM      2  C   LIG    1        3.267  10.210   0.549  0.00  0.00    +0.510 C 
ATOM      3  N   LIG    1        2.143   9.472   0.455  0.00  0.00    -0.730 N 
ATOM      4  H   LIG    1        1.276   9.906   0.465  0.00  0.00    +0.400 HD
ENDROOT
BRANCH   3   5
ATOM      5  C   LIG    1        2.231   8.015   0.337  0.00  0.00    +0.290 C 
BRANCH   5   6
ATOM      6  C   LIG    1        0.823   7.424   0.246  0.00  0.00    +0.070 C 
BRANCH   6   7
ATOM      7  C   LIG    1        0.914   5.925   0.124  0.00  0.00    +0.510 C 
ATOM      8  N   LIG    1       -0.210   5.187   0.030  0.00  0.00    -0.660 N 
ATOM      9  H   LIG    1       -1.074   5.625  -0.034  0.00  0.00    +0.420 HD
ATOM     10  O   LIG    1        1.998   5.382   0.112  0.00  0.00    -0.460 OA
BRANCH   8  11
ATOM     11  C   LIG    1       -0.132   3.795   0.025  0.00  0.00    +0.360 A 
ATOM     12  C   LIG    1       -1.299   3.040   0.034  0.00  0.00    -0.070 A 
ATOM     13  C   LIG    1       -1.207   1.659   0.029  0.00  0.00    +0.090 A 
ATOM     14  C   LIG    1        0.054   1.079   0.015  0.00  0.00    -0.060 A 
ATOM     15  C   LIG    1        1.171   1.891   0.011  0.00  0.00    +0.290 A 
ATOM     16  N   LIG    1        1.053   3.205   0.011  0.00  0.00    -0.480 NA
ENDBRANCH   8  11
ENDBRANCH   6   7
ENDBRANCH   5   6
ENDBRANCH   3   5
BRANCH   2  17
ATOM     17  C   LIG    1        3.176  11.710   0.671  0.00  0.00    +0.300 C 
BRANCH  17  18
ATOM     18  N   LIG    1        4.525  12.275   0.758  0.00  0.00    -0.720 N 
ATOM     19  H   LIG    1        5.299  11.690   0.732  0.00  0.00    +0.410 HD
ATOM     20  C   LIG    1        4.691  13.607   0.873  0.00  0.00    +0.520 C 
ATOM     21  O   LIG    1        3.724  14.338   0.905  0.00  0.00    -0.530 OA
BRANCH  20  22
ATOM     22  C   LIG    1        6.078  14.189   0.962  0.00  0.00    +0.120 C 
BRANCH  22  23
ATOM     23  C   LIG    1        5.987  15.688   1.084  0.00  0.00    -0.070 A 
ATOM     24  C   LIG    1        5.987  16.475  -0.053  0.00  0.00    +0.010 A 
ATOM     25  C   LIG    1        5.899  17.850   0.058  0.00  0.00    +0.000 A 
ATOM     26  C   LIG    1        5.822  18.439   1.306  0.00  0.00    +0.000 A 
ATOM     27  C   LIG    1        5.828  17.653   2.443  0.00  0.00    +0.000 A 
ATOM     28  C   LIG    1        5.910  16.277   2.332  0.00  0.00    +0.010 A 
ENDBRANCH  22  23
ENDBRANCH  20  22
ENDBRANCH  17  18
ENDBRANCH   2  17
TORSDOF 8
