REMARK  Name = ZINCvU0000000EKD.0
REMARK                            x       y       z     vdW  Elec       q    Type
REMARK                         _______ _______ _______ _____ _____    ______ ____
ROOT
ATOM      1  C   LIG    1       -3.640  -4.931  -0.206  0.00  0.00    +0.300 C 
ENDROOT
BRANCH   1   2
ATOM      2  C   LIG    1       -4.394  -4.477  -1.429  0.00  0.00    -0.110 A 
ATOM      3  C   LIG    1       -4.041  -4.957  -2.676  0.00  0.00    +0.030 A 
ATOM      4  C   LIG    1       -4.735  -4.544  -3.798  0.00  0.00    +0.000 A 
ATOM      5  C   LIG    1       -5.777  -3.644  -3.674  0.00  0.00    +0.010 A 
ATOM      6  C   LIG    1       -6.127  -3.159  -2.427  0.00  0.00    +0.010 A 
ATOM      7  C   LIG    1       -5.435  -3.576  -1.305  0.00  0.00    +0.010 A 
ENDBRANCH   1   2
BRANCH   1  10
ATOM      8  N   LIG    1       -2.366  -2.821   0.009  0.00  0.00    -0.660 N 
ATOM      9  H   LIG    1       -3.212  -2.353   0.087  0.00  0.00    +0.410 HD
ATOM     10  C   LIG    1       -2.347  -4.164  -0.100  0.00  0.00    +0.520 C 
ATOM     11  O   LIG    1       -1.288  -4.756  -0.113  0.00  0.00    -0.500 OA
BRANCH   8  16
ATOM     12  C   LIG    1        1.153  -1.923   0.605  0.00  0.00    +0.150 A 
ATOM     13  C   LIG    1        1.206  -0.669   0.013  0.00  0.00    -0.090 A 
ATOM     14  C   LIG    1        0.079  -0.138  -0.586  0.00  0.00    +0.070 A 
ATOM     15  C   LIG    1       -1.106  -0.848  -0.586  0.00  0.00    -0.050 A 
ATOM     16  C   LIG    1       -1.166  -2.102   0.010  0.00  0.00    +0.180 A 
ATOM     17  C   LIG    1       -0.034  -2.639   0.606  0.00  0.00    -0.010 A 
BRANCH  12  19
ATOM     18  C   LIG    1        3.451  -1.654   1.150  0.00  0.00    +0.250 C 
ATOM     19  O   LIG    1        2.263  -2.447   1.188  0.00  0.00    -0.310 OA
ENDBRANCH  12  19
ENDBRANCH   8  16
ENDBRANCH   1  10
BRANCH   1  20
ATOM     20  N   LIG    1       -3.352  -6.363  -0.313  0.00  0.00    -0.730 N 
ATOM     21  H   LIG    1       -2.498  -6.661  -0.665  0.00  0.00    +0.410 HD
BRANCH  20  22
ATOM     22  C   LIG    1       -4.306  -7.300   0.092  0.00  0.00    +0.220 A 
ATOM     23  C   LIG    1       -5.528  -6.873   0.596  0.00  0.00    -0.070 A 
ATOM     24  C   LIG    1       -6.475  -7.797   0.998  0.00  0.00    +0.060 A 
ATOM     25  C   LIG    1       -6.211  -9.149   0.900  0.00  0.00    -0.040 A 
ATOM     26  C   LIG    1       -4.987  -9.586   0.395  0.00  0.00    +0.020 A 
ATOM     27  C   LIG    1       -4.035  -8.656  -0.015  0.00  0.00    -0.020 A 
BRANCH  26  28
ATOM     28  C   LIG    1       -4.702 -11.038   0.290  0.00  0.00    +0.110 A 
ATOM     29  C   LIG    1       -5.615 -11.987   0.577  0.00  0.00    -0.070 A 
ATOM     30  S   LIG    1       -4.862 -13.558   0.316  0.00  0.00    +0.130 S 
ATOM     31  C   LIG    1       -3.401 -12.797  -0.141  0.00  0.00    +0.050 A 
ATOM     32  C   LIG    1       -2.144 -13.522  -0.548  0.00  0.00    +0.180 C 
ATOM     33  N   LIG    1       -3.525 -11.516  -0.089  0.00  0.00    -0.470 NA
ENDBRANCH  26  28
ENDBRANCH  20  22
ENDBRANCH   1  20
TORSDOF 7
