REMARK  Name = ZINCrD000000AcSD.0
REMARK                            x       y       z     vdW  Elec       q    Type
REMARK                         _______ _______ _______ _____ _____    ______ ____
ROOT
ATOM      1  O   LIG    1        0.002  -0.004  -0.000  0.00  0.00    -0.520 OA
ATOM      2  C   LIG    1       -0.015   1.209   0.013  0.00  0.00    +0.510 C 
ATOM      3  N   LIG    1        1.143   1.899   0.001  0.00  0.00    -0.660 N 
ATOM      4  H   LIG    1        1.131   2.866  -0.069  0.00  0.00    +0.420 HD
ENDROOT
BRANCH   3   5
ATOM      5  C   LIG    1        2.365   1.218   0.092  0.00  0.00    +0.190 A 
ATOM      6  C   LIG    1        2.422  -0.032   0.690  0.00  0.00    +0.040 A 
ATOM      7  C   LIG    1        3.627  -0.705   0.773  0.00  0.00    +0.050 A 
ATOM      8  C   LIG    1        4.780  -0.131   0.272  0.00  0.00    +0.020 A 
ATOM      9  C   LIG    1        4.734   1.118  -0.321  0.00  0.00    -0.050 A 
ATOM     10 CL   LIG    1        6.186   1.836  -0.948  0.00  0.00    -0.050 Cl
ATOM     11  C   LIG    1        3.528   1.798  -0.414  0.00  0.00    +0.060 A 
BRANCH  11  12
ATOM     12  N   LIG    1        3.479   3.062  -1.013  0.00  0.00    -0.490 N 
ATOM     13  C   LIG    1        3.848   2.986  -2.434  0.00  0.00    +0.170 C 
ATOM     14  C   LIG    1        3.723   4.377  -3.063  0.00  0.00    +0.230 C 
ATOM     15  O   LIG    1        4.543   5.297  -2.339  0.00  0.00    -0.380 OA
ATOM     16  C   LIG    1        4.211   5.396  -0.951  0.00  0.00    +0.230 C 
ATOM     17  C   LIG    1        4.341   4.016  -0.301  0.00  0.00    +0.160 C 
ENDBRANCH  11  12
ENDBRANCH   3   5
BRANCH   2  18
ATOM     18  C   LIG    1       -1.329   1.945   0.035  0.00  0.00    +0.060 C 
BRANCH  18  19
ATOM     19  C   LIG    1       -2.479   0.935   0.037  0.00  0.00    +0.040 C 
BRANCH  19  20
ATOM     20  C   LIG    1       -3.814   1.683   0.060  0.00  0.00    +0.260 C 
BRANCH  20  21
ATOM     21  N   LIG    1       -4.915   0.716   0.062  0.00  0.00    -0.730 N 
ATOM     22  H   LIG    1       -4.725  -0.235   0.050  0.00  0.00    +0.400 HD
ATOM     23  C   LIG    1       -6.191   1.148   0.081  0.00  0.00    +0.580 C 
ATOM     24  O   LIG    1       -6.429   2.341   0.096  0.00  0.00    -0.530 OA
BRANCH  23  25
ATOM     25  C   LIG    1       -7.297   0.177   0.083  0.00  0.00    -0.160 A 
ATOM     26  C   LIG    1       -7.112  -1.171   0.067  0.00  0.00    -0.040 A 
ATOM     27  S   LIG    1       -8.608  -1.988   0.076  0.00  0.00    +0.200 S 
ATOM     28  C   LIG    1       -9.514  -0.485   0.101  0.00  0.00    -0.060 A 
ATOM     29  C   LIG    1       -8.690   0.556   0.108  0.00  0.00    +0.070 A 
ENDBRANCH  23  25
ENDBRANCH  20  21
ENDBRANCH  19  20
ENDBRANCH  18  19
ENDBRANCH   2  18
TORSDOF 7
