REMARK  Name = ZINCrD0000074Ise.0
REMARK                            x       y       z     vdW  Elec       q    Type
REMARK                         _______ _______ _______ _____ _____    ______ ____
ROOT
ATOM      1  C   LIG    1        5.930  -1.401  -2.727  0.00  0.00    +0.290 C 
ENDROOT
BRANCH   1   2
ATOM      2  N   LIG    1        7.123  -2.249  -2.674  0.00  0.00    -0.720 N 
ATOM      3  H   LIG    1        7.494  -2.511  -1.817  0.00  0.00    +0.410 HD
ATOM      4  C   LIG    1        7.706  -2.665  -3.816  0.00  0.00    +0.520 C 
ATOM      5  O   LIG    1        7.242  -2.337  -4.887  0.00  0.00    -0.520 OA
BRANCH   4   6
ATOM      6  C   LIG    1        8.933  -3.537  -3.761  0.00  0.00    +0.120 C 
BRANCH   6   7
ATOM      7  C   LIG    1        9.383  -3.859  -5.163  0.00  0.00    -0.070 A 
ATOM      8  C   LIG    1        8.900  -4.986  -5.802  0.00  0.00    +0.020 A 
ATOM      9  C   LIG    1        9.309  -5.279  -7.090  0.00  0.00    +0.000 A 
ATOM     10  C   LIG    1       10.209  -4.451  -7.734  0.00  0.00    +0.000 A 
ATOM     11  C   LIG    1       10.696  -3.327  -7.093  0.00  0.00    +0.000 A 
ATOM     12  C   LIG    1       10.283  -3.031  -5.808  0.00  0.00    +0.020 A 
ENDBRANCH   6   7
ENDBRANCH   4   6
ENDBRANCH   1   2
BRANCH   1  13
ATOM     13  C   LIG    1        4.686  -2.280  -2.869  0.00  0.00    -0.020 C 
ATOM     14  C   LIG    1        4.785  -3.101  -4.156  0.00  0.00    +0.030 C 
ATOM     15  C   LIG    1        3.439  -1.394  -2.924  0.00  0.00    +0.040 C 
ENDBRANCH   1  13
BRANCH   1  16
ATOM     16  C   LIG    1        5.832  -0.592  -1.459  0.00  0.00    +0.460 C 
ATOM     17  O   LIG    1        6.672  -0.712  -0.599  0.00  0.00    -0.500 OA
BRANCH  16  18
ATOM     18  O   LIG    1        4.810   0.261  -1.285  0.00  0.00    -0.340 OA
BRANCH  18  19
ATOM     19  C   LIG    1        4.780   1.007  -0.039  0.00  0.00    +0.250 C 
BRANCH  19  20
ATOM     20  C   LIG    1        3.553   1.921  -0.022  0.00  0.00    +0.230 C 
BRANCH  20  21
ATOM     21  O   LIG    1        2.366   1.125  -0.015  0.00  0.00    -0.310 OA
BRANCH  21  26
ATOM     22  C   LIG    1       -2.553   3.867   0.046  0.00  0.00    +0.090 C 
ATOM     23  C   LIG    1       -1.237   3.133   0.030  0.00  0.00    -0.120 A 
ATOM     24  C   LIG    1       -1.218   1.751   0.017  0.00  0.00    +0.050 A 
ATOM     25  C   LIG    1       -0.013   1.076   0.008  0.00  0.00    -0.020 A 
ATOM     26  C   LIG    1        1.179   1.786   0.000  0.00  0.00    +0.120 A 
ATOM     27  C   LIG    1        1.157   3.174   0.008  0.00  0.00    -0.080 A 
ATOM     28  C   LIG    1       -0.051   3.844   0.023  0.00  0.00    +0.040 A 
ENDBRANCH  21  26
ENDBRANCH  20  21
ENDBRANCH  19  20
ENDBRANCH  18  19
ENDBRANCH  16  18
ENDBRANCH   1  16
TORSDOF 10
