REMARK  Name = ZINCqH0000008uQc.0
REMARK                            x       y       z     vdW  Elec       q    Type
REMARK                         _______ _______ _______ _____ _____    ______ ____
ROOT
ATOM      1  C   LIG    1        2.662   4.738   1.640  0.00  0.00    +0.520 C 
ATOM      2  N   LIG    1        2.248   3.484   1.371  0.00  0.00    -0.720 N 
ATOM      3  H   LIG    1        1.908   2.922   2.085  0.00  0.00    +0.400 HD
ATOM      4  O   LIG    1        3.087   5.441   0.747  0.00  0.00    -0.510 OA
ENDROOT
BRANCH   1   6
ATOM      5  C   LIG    1        3.553   4.467   3.938  0.00  0.00    +0.060 C 
ATOM      6  C   LIG    1        2.598   5.267   3.050  0.00  0.00    +0.170 C 
BRANCH   6   7
ATOM      7  O   LIG    1        2.979   6.644   3.059  0.00  0.00    -0.280 OA
BRANCH   7   8
ATOM      8  C   LIG    1        2.507   7.407   4.080  0.00  0.00    +0.120 A 
ATOM      9  C   LIG    1        1.784   6.821   5.109  0.00  0.00    -0.080 A 
ATOM     10  C   LIG    1        1.310   7.598   6.149  0.00  0.00    +0.050 A 
ATOM     11  C   LIG    1        1.548   8.960   6.159  0.00  0.00    -0.100 A 
ATOM     12  C   LIG    1        2.264   9.547   5.132  0.00  0.00    +0.060 A 
ATOM     13  C   LIG    1        2.745   8.774   4.093  0.00  0.00    -0.010 A 
BRANCH  11  14
ATOM     14  C   LIG    1        1.026   9.807   7.291  0.00  0.00    -0.030 C 
ATOM     15  C   LIG    1        2.197  10.490   8.000  0.00  0.00    +0.040 C 
ATOM     16  C   LIG    1        0.275   8.920   8.286  0.00  0.00    +0.030 C 
ATOM     17  C   LIG    1        0.075  10.870   6.737  0.00  0.00    +0.040 C 
ENDBRANCH  11  14
ENDBRANCH   7   8
ENDBRANCH   6   7
ENDBRANCH   1   6
BRANCH   2  18
ATOM     18  C   LIG    1        2.311   2.970   0.001  0.00  0.00    +0.430 C 
BRANCH  18  19
ATOM     19  C   LIG    1        1.793   1.555  -0.029  0.00  0.00    +0.150 A 
ATOM     20  N   LIG    1        2.496   0.475   0.134  0.00  0.00    -0.360 NA
ATOM     21  O   LIG    1        1.786  -0.505   0.054  0.00  0.00    +0.090 OA
ATOM     22  C   LIG    1        0.523  -0.132  -0.175  0.00  0.00    +0.200 A 
ATOM     23  N   LIG    1        0.517   1.178  -0.230  0.00  0.00    -0.470 NA
BRANCH  22  24
ATOM     24  C   LIG    1       -0.666  -1.043  -0.339  0.00  0.00    +0.030 C 
ATOM     25  C   LIG    1       -1.703  -0.727   0.742  0.00  0.00    +0.070 C 
ATOM     26  C   LIG    1       -0.216  -2.499  -0.203  0.00  0.00    +0.070 C 
ATOM     27  C   LIG    1       -1.288  -0.827  -1.720  0.00  0.00    +0.070 C 
ENDBRANCH  22  24
ENDBRANCH  18  19
ENDBRANCH   2  18
TORSDOF 7
