REMARK  Name = ZINCvU00000008mQ.0
REMARK                            x       y       z     vdW  Elec       q    Type
REMARK                         _______ _______ _______ _____ _____    ______ ____
ROOT
ATOM      1  C   LIG    1        1.453  -0.859   0.142  0.00  0.00    +0.550 C 
ATOM      2  N   LIG    1        1.383  -2.196  -0.005  0.00  0.00    -0.610 N 
ATOM      3  O   LIG    1        2.530  -0.296   0.089  0.00  0.00    -0.530 OA
ENDROOT
BRANCH   1   5
ATOM      4  C   LIG    1        0.305   1.224   0.624  0.00  0.00    +0.140 C 
ATOM      5  C   LIG    1        0.227  -0.078   0.368  0.00  0.00    -0.100 C 
ENDBRANCH   1   5
BRANCH   2   6
ATOM      6  C   LIG    1        0.079  -2.863  -0.031  0.00  0.00    +0.290 C 
BRANCH   6   7
ATOM      7  C   LIG    1       -0.400  -2.991  -1.478  0.00  0.00    -0.020 C 
ATOM      8  C   LIG    1       -0.836  -1.613  -2.035  0.00  0.00    +0.040 C 
ATOM      9  C   LIG    1       -1.816  -1.958  -3.175  0.00  0.00    +0.020 C 
ATOM     10  C   LIG    1       -2.370  -3.361  -2.868  0.00  0.00    +0.100 C 
ATOM     11  C   LIG    1       -1.707  -3.818  -1.553  0.00  0.00    +0.080 C 
BRANCH  10  12
ATOM     12  C   LIG    1       -3.889  -3.298  -2.696  0.00  0.00    +0.420 C 
ATOM     13  F   LIG    1       -4.373  -4.565  -2.353  0.00  0.00    -0.170 F 
ATOM     14  F   LIG    1       -4.478  -2.882  -3.894  0.00  0.00    -0.180 F 
ATOM     15  F   LIG    1       -4.206  -2.389  -1.681  0.00  0.00    -0.180 F 
ENDBRANCH  10  12
BRANCH  10  16
ATOM     16  O   LIG    1       -2.035  -4.263  -3.925  0.00  0.00    -0.530 OA
ATOM     17  H   LIG    1       -2.423  -4.029  -4.779  0.00  0.00    +0.390 HD
ENDBRANCH  10  16
ENDBRANCH   6   7
ENDBRANCH   2   6
BRANCH   2  18
ATOM     18  C   LIG    1        2.611  -2.984  -0.140  0.00  0.00    +0.340 C 
BRANCH  18  19
ATOM     19  C   LIG    1        3.055  -3.460   1.219  0.00  0.00    -0.100 A 
ATOM     20  C   LIG    1        2.273  -3.204   2.330  0.00  0.00    +0.010 A 
ATOM     21  C   LIG    1        2.680  -3.641   3.577  0.00  0.00    +0.000 A 
ATOM     22  C   LIG    1        3.869  -4.333   3.713  0.00  0.00    +0.000 A 
ATOM     23  C   LIG    1        4.650  -4.589   2.601  0.00  0.00    +0.040 A 
ATOM     24  C   LIG    1        4.241  -4.157   1.354  0.00  0.00    -0.080 A 
BRANCH  24  25
ATOM     25  C   LIG    1        5.091  -4.441   0.142  0.00  0.00    +0.220 C 
BRANCH  25  26
ATOM     26  O   LIG    1        6.196  -5.266   0.517  0.00  0.00    -0.380 OA
BRANCH  26  27
ATOM     27  C   LIG    1        7.068  -5.596  -0.565  0.00  0.00    +0.150 C 
ATOM     28  C   LIG    1        6.594  -6.892  -1.226  0.00  0.00    -0.010 C 
ATOM     29  C   LIG    1        7.528  -7.245  -2.385  0.00  0.00    +0.010 C 
ATOM     30  C   LIG    1        8.950  -7.435  -1.853  0.00  0.00    +0.000 C 
ATOM     31  C   LIG    1        9.425  -6.139  -1.192  0.00  0.00    +0.010 C 
ATOM     32  C   LIG    1        8.490  -5.786  -0.033  0.00  0.00    +0.020 C 
ENDBRANCH  26  27
ENDBRANCH  25  26
ENDBRANCH  24  25
ENDBRANCH  18  19
ENDBRANCH   2  18
TORSDOF 10
