REMARK  Name = ZINCrH000004ster.0
REMARK                            x       y       z     vdW  Elec       q    Type
REMARK                         _______ _______ _______ _____ _____    ______ ____
ROOT
ATOM      1  C   LIG    1        1.179   1.785   0.018  0.00  0.00    +0.190 A 
ATOM      2  C   LIG    1       -0.013   1.076   0.036  0.00  0.00    -0.080 A 
ATOM      3  C   LIG    1       -1.218   1.750   0.054  0.00  0.00    +0.100 A 
ATOM      4  C   LIG    1       -1.248   3.134   0.065  0.00  0.00    -0.020 A 
ATOM      5  C   LIG    1       -0.073   3.855   0.046  0.00  0.00    +0.100 A 
ATOM      6  C   LIG    1        1.154   3.186   0.023  0.00  0.00    -0.170 A 
ENDROOT
BRANCH   6   7
ATOM      7  C   LIG    1        2.415   3.951   0.003  0.00  0.00    +0.560 C 
ATOM      8  N   LIG    1        2.386   5.298   0.008  0.00  0.00    -0.650 N 
ATOM      9  H   LIG    1        1.539   5.766  -0.057  0.00  0.00    +0.420 HD
ATOM     10  O   LIG    1        3.481   3.365  -0.017  0.00  0.00    -0.490 OA
BRANCH   8  11
ATOM     11  C   LIG    1        3.576   6.021   0.107  0.00  0.00    +0.170 A 
ATOM     12  C   LIG    1        4.686   5.455   0.694  0.00  0.00    +0.030 A 
ATOM     13  C   LIG    1        5.879   6.165   0.798  0.00  0.00    +0.040 A 
ATOM     14  C   LIG    1        5.981   7.437   0.324  0.00  0.00    +0.010 A 
ATOM     15  C   LIG    1        4.872   8.050  -0.282  0.00  0.00    -0.080 A 
ATOM     16  C   LIG    1        4.945   9.364  -0.783  0.00  0.00    +0.080 A 
ATOM     17  C   LIG    1        3.832   9.890  -1.375  0.00  0.00    -0.030 A 
ATOM     18  C   LIG    1        2.664   9.136  -1.454  0.00  0.00    +0.290 A 
ATOM     19  N   LIG    1        2.599   7.915  -0.981  0.00  0.00    -0.480 NA
ATOM     20  C   LIG    1        3.653   7.338  -0.400  0.00  0.00    +0.110 A 
ENDBRANCH   8  11
ENDBRANCH   6   7
BRANCH   1  21
ATOM     21  O   LIG    1        2.364   1.124  -0.005  0.00  0.00    -0.270 OA
BRANCH  21  22
ATOM     22  C   LIG    1        2.311  -0.304  -0.009  0.00  0.00    +0.350 C 
BRANCH  22  26
ATOM     23  C   LIG    1        6.745  -2.066  -1.529  0.00  0.00    +0.260 C 
ATOM     24  C   LIG    1        5.581  -1.602  -0.691  0.00  0.00    +0.190 A 
ATOM     25  N   LIG    1        4.431  -1.153  -1.133  0.00  0.00    -0.470 NA
ATOM     26  C   LIG    1        3.712  -0.858  -0.035  0.00  0.00    +0.170 A 
ATOM     27  N   LIG    1        4.445  -1.145   0.999  0.00  0.00    -0.360 NA
ATOM     28  O   LIG    1        5.523  -1.573   0.644  0.00  0.00    +0.090 OA
ENDBRANCH  22  26
ENDBRANCH  21  22
ENDBRANCH   1  21
TORSDOF 5
