REMARK  Name = ZINCkj000005lDDa.0
REMARK                            x       y       z     vdW  Elec       q    Type
REMARK                         _______ _______ _______ _____ _____    ______ ____
ROOT
ATOM      1  O   LIG    1       -0.377  -2.499  -0.005  0.00  0.00    -0.470 OA
ATOM      2  C   LIG    1        0.812  -2.738  -0.019  0.00  0.00    +0.510 C 
ATOM      3  N   LIG    1        1.704  -1.728  -0.025  0.00  0.00    -0.640 N 
ATOM      4  H   LIG    1        2.655  -1.919  -0.036  0.00  0.00    +0.420 HD
ENDROOT
BRANCH   3   5
ATOM      5  C   LIG    1        1.257  -0.399  -0.014  0.00  0.00    +0.330 A 
ATOM      6  N   LIG    1        0.002  -0.004   0.002  0.00  0.00    -0.240 NA
ATOM      7  N   LIG    1       -0.017   1.399   0.010  0.00  0.00    -0.430 N 
ATOM      8  H   LIG    1       -0.809   1.959   0.017  0.00  0.00    +0.450 HD
ATOM      9  C   LIG    1        1.253   1.830  -0.000  0.00  0.00    +0.050 A 
ATOM     10  C   LIG    1        1.773   3.246   0.010  0.00  0.00    +0.370 C 
ATOM     11  N   LIG    1        3.189   3.219   0.412  0.00  0.00    -0.500 N 
ATOM     12  H   LIG    1        3.257   2.934   1.377  0.00  0.00    +0.430 HD
ATOM     13  H   LIG    1        3.583   4.142   0.309  0.00  0.00    +0.440 HD
ATOM     14  C   LIG    1        3.938   2.275  -0.428  0.00  0.00    +0.270 C 
ATOM     15  C   LIG    1        3.569   0.835  -0.042  0.00  0.00    +0.160 C 
ATOM     16  C   LIG    1        2.063   0.739  -0.018  0.00  0.00    -0.260 A 
ENDBRANCH   3   5
BRANCH   2  17
ATOM     17  C   LIG    1        1.293  -4.167  -0.030  0.00  0.00    +0.140 C 
BRANCH  17  18
ATOM     18  C   LIG    1        0.106  -5.096  -0.021  0.00  0.00    -0.050 A 
ATOM     19  C   LIG    1       -0.421  -5.531   1.180  0.00  0.00    +0.020 A 
ATOM     20  C   LIG    1       -1.512  -6.380   1.190  0.00  0.00    +0.050 A 
ATOM     21  C   LIG    1       -2.071  -6.802  -0.001  0.00  0.00    -0.010 A 
ATOM     22  C   LIG    1       -1.540  -6.371  -1.205  0.00  0.00    +0.100 A 
ATOM     23  F   LIG    1       -2.086  -6.783  -2.370  0.00  0.00    -0.140 F 
ATOM     24  C   LIG    1       -0.451  -5.517  -1.214  0.00  0.00    -0.010 A 
ENDBRANCH  17  18
ENDBRANCH   2  17
TORSDOF 3
