REMARK  Name = ZINCkj000005kUVP.1
REMARK                            x       y       z     vdW  Elec       q    Type
REMARK                         _______ _______ _______ _____ _____    ______ ____
ROOT
ATOM      1  C   LIG    1        1.717  -3.212  -0.030  0.00  0.00    +0.100 C 
ATOM      2  C   LIG    1        1.956  -3.695   1.402  0.00  0.00    +0.050 C 
ATOM      3  C   LIG    1        2.901  -4.900   1.380  0.00  0.00    +0.300 C 
ATOM      4  N   LIG    1        4.124  -4.529   0.657  0.00  0.00    -0.600 N 
ATOM      5  C   LIG    1        4.003  -3.968  -0.696  0.00  0.00    +0.320 C 
ATOM      6  C   LIG    1        5.335  -4.699   1.223  0.00  0.00    +0.650 C 
ATOM      7  O   LIG    1        6.340  -4.388   0.615  0.00  0.00    -0.560 OA
ATOM      8  C   LIG    1        3.046  -2.773  -0.650  0.00  0.00    +0.060 C 
ENDROOT
BRANCH   1  13
ATOM      9  C   LIG    1       -2.511  -0.435   0.036  0.00  0.00    +0.420 C 
ATOM     10  N   LIG    1       -1.102  -0.837   0.014  0.00  0.00    -0.400 NA
ATOM     11  N   LIG    1       -0.595  -2.147  -0.003  0.00  0.00    -0.460 N 
ATOM     12  H   LIG    1       -1.114  -2.967  -0.002  0.00  0.00    +0.470 HD
ATOM     13  C   LIG    1        0.761  -2.047  -0.015  0.00  0.00    +0.450 C 
ATOM     14  N   LIG    1        1.108  -0.791  -0.012  0.00  0.00    -0.520 NA
ATOM     15  C   LIG    1        0.002  -0.004   0.002  0.00  0.00    +0.630 C 
BRANCH  15  16
ATOM     16  N   LIG    1       -0.016   1.303   0.009  0.00  0.00    -0.730 NA
ATOM     17  H   LIG    1       -0.862   1.777   0.016  0.00  0.00    +0.440 HD
ATOM     18  H   LIG    1        0.818   1.800   0.004  0.00  0.00    +0.460 HD
ENDBRANCH  15  16
ENDBRANCH   1  13
BRANCH   6  19
ATOM     19  O   LIG    1        5.432  -5.213   2.464  0.00  0.00    -0.360 OA
BRANCH  19  20
ATOM     20  C   LIG    1        6.768  -5.369   3.011  0.00  0.00    +0.140 C 
ATOM     21  C   LIG    1        7.581  -6.304   2.114  0.00  0.00    +0.030 C 
ATOM     22  C   LIG    1        6.677  -5.963   4.418  0.00  0.00    +0.080 C 
ATOM     23  C   LIG    1        7.454  -4.002   3.078  0.00  0.00    +0.040 C 
ENDBRANCH  19  20
ENDBRANCH   6  19
TORSDOF 4
