REMARK  Name = ZINCrH000004rgFt.0
REMARK                            x       y       z     vdW  Elec       q    Type
REMARK                         _______ _______ _______ _____ _____    ______ ____
ROOT
ATOM      1  C   LIG    1        5.429  -6.474   3.709  0.00  0.00    +0.240 C 
ATOM      2  C   LIG    1        6.455  -7.543   3.276  0.00  0.00    +0.040 C 
ATOM      3  C   LIG    1        6.637  -7.256   1.762  0.00  0.00    +0.040 C 
ATOM      4  C   LIG    1        5.202  -6.829   1.353  0.00  0.00    +0.240 C 
ATOM      5  N   LIG    1        4.701  -6.053   2.503  0.00  0.00    -0.630 N 
ATOM      6  C   LIG    1        3.732  -5.118   2.456  0.00  0.00    +0.730 C 
ATOM      7  N   LIG    1        3.214  -4.742   1.270  0.00  0.00    -0.740 N 
ATOM      8  H   LIG    1        3.539  -5.145   0.449  0.00  0.00    +0.400 HD
ATOM      9  O   LIG    1        3.324  -4.613   3.484  0.00  0.00    -0.580 OA
ENDROOT
BRANCH   1  10
ATOM     10  C   LIG    1        4.452  -7.067   4.726  0.00  0.00    +0.070 C 
BRANCH  10  15
ATOM     11  C   LIG    1        7.255  -8.216   9.646  0.00  0.00    +0.090 C 
ATOM     12  C   LIG    1        6.524  -7.917   8.363  0.00  0.00    -0.090 A 
ATOM     13  C   LIG    1        5.893  -6.698   8.196  0.00  0.00    +0.000 A 
ATOM     14  C   LIG    1        5.223  -6.423   7.019  0.00  0.00    +0.010 A 
ATOM     15  C   LIG    1        5.183  -7.367   6.009  0.00  0.00    -0.080 A 
ATOM     16  C   LIG    1        5.809  -8.588   6.179  0.00  0.00    +0.010 A 
ATOM     17  C   LIG    1        6.483  -8.861   7.354  0.00  0.00    +0.000 A 
ENDBRANCH  10  15
ENDBRANCH   1  10
BRANCH   7  18
ATOM     18  C   LIG    1        2.161  -3.726   1.219  0.00  0.00    +0.270 C 
BRANCH  18  19
ATOM     19  C   LIG    1        1.753  -3.485  -0.236  0.00  0.00    +0.300 C 
BRANCH  19  20
ATOM     20  N   LIG    1        0.700  -2.469  -0.286  0.00  0.00    -0.490 N 
ATOM     21  C   LIG    1       -0.641  -2.697  -0.327  0.00  0.00    +0.470 A 
ATOM     22  N   LIG    1       -1.286  -1.569  -0.366  0.00  0.00    -0.490 NA
ATOM     23  C   LIG    1       -0.403  -0.537  -0.354  0.00  0.00    +0.040 A 
ATOM     24  C   LIG    1       -0.545   0.853  -0.382  0.00  0.00    +0.070 A 
ATOM     25  C   LIG    1        0.564   1.650  -0.359  0.00  0.00    +0.000 A 
ATOM     26  C   LIG    1        1.835   1.095  -0.309  0.00  0.00    +0.030 A 
ATOM     27  C   LIG    1        1.998  -0.274  -0.280  0.00  0.00    +0.010 A 
ATOM     28  C   LIG    1        0.883  -1.100  -0.303  0.00  0.00    +0.050 A 
ENDBRANCH  19  20
ENDBRANCH  18  19
ENDBRANCH   7  18
TORSDOF 5
