REMARK  Name = ZINCrD0000075bt2.0
REMARK                            x       y       z     vdW  Elec       q    Type
REMARK                         _______ _______ _______ _____ _____    ______ ____
ROOT
ATOM      1  C   LIG    1        1.181   2.112   0.002  0.00  0.00    +0.240 A 
ATOM      2  C   LIG    1        1.155   3.498   0.010  0.00  0.00    -0.080 A 
ATOM      3  C   LIG    1       -0.056   4.167   0.025  0.00  0.00    +0.050 A 
ATOM      4  C   LIG    1       -1.242   3.458   0.033  0.00  0.00    -0.050 A 
ATOM      5  C   LIG    1       -1.226   2.075   0.019  0.00  0.00    +0.020 A 
ATOM      6  C   LIG    1       -0.017   1.396   0.010  0.00  0.00    +0.010 A 
ENDROOT
BRANCH   6   7
ATOM      7  N   LIG    1        0.002  -0.004   0.002  0.00  0.00    -0.500 N 
ATOM      8  C   LIG    1       -0.599  -0.532  -1.230  0.00  0.00    +0.180 C 
ATOM      9  C   LIG    1       -0.430  -2.052  -1.270  0.00  0.00    +0.030 C 
ATOM     10  C   LIG    1       -1.109  -2.669  -0.044  0.00  0.00    -0.020 C 
ATOM     11  C   LIG    1       -0.498  -2.067   1.225  0.00  0.00    +0.030 C 
ATOM     12  C   LIG    1       -0.665  -0.546   1.193  0.00  0.00    +0.180 C 
BRANCH  10  13
ATOM     13  C   LIG    1       -0.892  -4.184  -0.047  0.00  0.00    +0.170 C 
BRANCH  13  14
ATOM     14  O   LIG    1       -1.562  -4.759  -1.170  0.00  0.00    -0.570 OA
ATOM     15  H   LIG    1       -1.467  -5.719  -1.236  0.00  0.00    +0.380 HD
ENDBRANCH  13  14
ENDBRANCH  10  13
ENDBRANCH   6   7
BRANCH   1  16
ATOM     16  N   LIG    1        2.405   1.433  -0.013  0.00  0.00    -0.730 N 
ATOM     17  H   LIG    1        2.421   0.463  -0.018  0.00  0.00    +0.410 HD
BRANCH  16  18
ATOM     18  C   LIG    1        3.661   2.186  -0.021  0.00  0.00    +0.380 C 
BRANCH  18  22
ATOM     19  C   LIG    1        6.393  -0.073  -0.940  0.00  0.00    +0.160 A 
ATOM     20  C   LIG    1        6.699  -0.323   0.348  0.00  0.00    -0.080 A 
ATOM     21  S   LIG    1        5.592   0.604   1.357  0.00  0.00    +0.150 S 
ATOM     22  C   LIG    1        4.823   1.227  -0.036  0.00  0.00    +0.030 A 
ATOM     23  N   LIG    1        5.379   0.764  -1.103  0.00  0.00    -0.450 NA
BRANCH  19  27
ATOM     24  C   LIG    1        7.850  -1.289  -5.566  0.00  0.00    +0.360 C 
ATOM     25  N   LIG    1        7.763  -1.213  -4.105  0.00  0.00    -0.370 N 
ATOM     26  C   LIG    1        6.875  -0.478  -3.402  0.00  0.00    +0.280 A 
ATOM     27  C   LIG    1        7.128  -0.683  -2.078  0.00  0.00    -0.180 A 
ATOM     28  C   LIG    1        8.215  -1.572  -1.985  0.00  0.00    +0.260 A 
ATOM     29  N   LIG    1        8.586  -1.889  -3.197  0.00  0.00    -0.290 NA
ENDBRANCH  19  27
ENDBRANCH  18  22
ENDBRANCH  16  18
ENDBRANCH   1  16
TORSDOF 7
