REMARK  Name = ZINCrH000004qTU2.0
REMARK                            x       y       z     vdW  Elec       q    Type
REMARK                         _______ _______ _______ _____ _____    ______ ____
ROOT
ATOM      1  S   LIG    1       -3.293   1.793   2.067  0.00  0.00    +2.700 S 
ATOM      2  O   LIG    1       -2.675   2.340   3.223  0.00  0.00    -0.940 OA
ATOM      3  O   LIG    1       -4.446   0.964   2.120  0.00  0.00    -0.940 OA
ENDROOT
BRANCH   1   9
ATOM      4  C   LIG    1       -5.330   3.772  -2.322  0.00  0.00    +0.120 C 
ATOM      5  C   LIG    1       -4.654   4.010  -0.996  0.00  0.00    -0.100 A 
ATOM      6  C   LIG    1       -4.361   5.298  -0.591  0.00  0.00    +0.160 A 
ATOM      7  C   LIG    1       -3.742   5.517   0.625  0.00  0.00    -0.060 A 
ATOM      8  C   LIG    1       -3.416   4.447   1.437  0.00  0.00    +0.210 A 
ATOM      9  C   LIG    1       -3.709   3.157   1.032  0.00  0.00    -0.680 A 
ATOM     10  C   LIG    1       -4.323   2.939  -0.187  0.00  0.00    +0.070 A 
ATOM     11  C   LIG    1       -4.637   1.533  -0.631  0.00  0.00    +0.130 C 
BRANCH   7  12
ATOM     12  N   LIG    1       -3.428   6.897   1.059  0.00  0.00    +0.030 N 
ATOM     13  O   LIG    1       -3.715   7.840   0.344  0.00  0.00    -0.150 OA
ATOM     14  O   LIG    1       -2.882   7.089   2.131  0.00  0.00    -0.150 OA
ENDBRANCH   7  12
ENDBRANCH   1   9
BRANCH   1  15
ATOM     15  N   LIG    1       -2.126   0.920   1.281  0.00  0.00    -1.110 NA
ATOM     16  H   LIG    1       -2.318   0.020   0.975  0.00  0.00    +0.420 HD
BRANCH  15  17
ATOM     17  C   LIG    1       -0.804   1.507   1.048  0.00  0.00    +0.240 C 
ATOM     18  C   LIG    1        0.143   1.093   2.176  0.00  0.00    +0.030 C 
BRANCH  17  19
ATOM     19  C   LIG    1       -0.253   1.009  -0.289  0.00  0.00    +0.050 C 
BRANCH  19  20
ATOM     20  C   LIG    1       -1.133   1.528  -1.428  0.00  0.00    +0.070 C 
BRANCH  20  21
ATOM     21  C   LIG    1       -0.590   1.037  -2.746  0.00  0.00    -0.060 A 
ATOM     22  C   LIG    1       -1.026  -0.167  -3.267  0.00  0.00    +0.040 A 
ATOM     23  C   LIG    1       -0.530  -0.619  -4.476  0.00  0.00    +0.030 A 
ATOM     24  C   LIG    1        0.404   0.134  -5.165  0.00  0.00    +0.060 A 
ATOM     25  C   LIG    1        0.842   1.342  -4.642  0.00  0.00    +0.070 A 
ATOM     26  F   LIG    1        1.754   2.079  -5.314  0.00  0.00    -0.130 F 
ATOM     27  F   LIG    1        0.889  -0.307  -6.346  0.00  0.00    -0.130 F 
ATOM     28  C   LIG    1        0.339   1.794  -3.435  0.00  0.00    +0.030 A 
ENDBRANCH  20  21
ENDBRANCH  19  20
ENDBRANCH  17  19
ENDBRANCH  15  17
ENDBRANCH   1  15
TORSDOF 7
