REMARK  Name = ZINCtV000002qCzB.0
REMARK                            x       y       z     vdW  Elec       q    Type
REMARK                         _______ _______ _______ _____ _____    ______ ____
ROOT
ATOM      1  C   LIG    1       -0.762   1.598  -1.227  0.00  0.00    +0.010 C 
ATOM      2  C   LIG    1       -0.013   1.086   0.008  0.00  0.00    +0.030 C 
ATOM      3  C   LIG    1       -0.736   1.582   1.258  0.00  0.00    +0.110 C 
ATOM      4  C   LIG    1       -2.209   1.245   1.183  0.00  0.00    +0.170 A 
ATOM      5  N   LIG    1       -2.889   1.281   2.312  0.00  0.00    -0.460 NA
ATOM      6  C   LIG    1       -4.191   1.010   2.378  0.00  0.00    +0.140 A 
ATOM      7  C   LIG    1       -4.886   1.059   3.601  0.00  0.00    +0.050 A 
ATOM      8  C   LIG    1       -6.217   0.778   3.633  0.00  0.00    +0.040 A 
ATOM      9  C   LIG    1       -6.909   0.440   2.472  0.00  0.00    +0.030 A 
ATOM     10  C   LIG    1       -6.269   0.382   1.270  0.00  0.00    +0.010 A 
ATOM     11  C   LIG    1       -4.900   0.665   1.200  0.00  0.00    -0.070 A 
ATOM     12  C   LIG    1       -4.192   0.616  -0.025  0.00  0.00    -0.060 A 
ATOM     13  C   LIG    1       -2.830   0.912  -0.015  0.00  0.00    -0.070 A 
ATOM     14  C   LIG    1       -2.092   0.853  -1.326  0.00  0.00    +0.080 C 
ENDROOT
BRANCH   1  16
ATOM     15  C   LIG    1        0.315  -0.171  -2.625  0.00  0.00    +0.030 C 
ATOM     16  C   LIG    1        0.071   1.333  -2.483  0.00  0.00    -0.060 C 
ATOM     17  C   LIG    1        1.413   2.059  -2.367  0.00  0.00    +0.040 C 
ATOM     18  C   LIG    1       -0.681   1.845  -3.712  0.00  0.00    +0.020 C 
ENDBRANCH   1  16
BRANCH  12  19
ATOM     19  C   LIG    1       -4.881   0.262  -1.284  0.00  0.00    +0.520 C 
ATOM     20  O   LIG    1       -4.945  -0.899  -1.636  0.00  0.00    -0.480 OA
BRANCH  19  21
ATOM     21  O   LIG    1       -5.438   1.227  -2.042  0.00  0.00    -0.340 OA
BRANCH  21  22
ATOM     22  C   LIG    1       -6.098   0.806  -3.265  0.00  0.00    +0.290 C 
BRANCH  22  23
ATOM     23  C   LIG    1       -6.656   2.012  -3.975  0.00  0.00    -0.100 A 
ATOM     24  C   LIG    1       -7.944   2.438  -3.707  0.00  0.00    +0.060 A 
ATOM     25  C   LIG    1       -8.455   3.547  -4.354  0.00  0.00    +0.030 A 
ATOM     26  C   LIG    1       -7.681   4.225  -5.279  0.00  0.00    -0.020 A 
ATOM     27  C   LIG    1       -6.394   3.796  -5.551  0.00  0.00    +0.030 A 
ATOM     28 CL   LIG    1       -8.325   5.613  -6.098  0.00  0.00    -0.060 Cl
ATOM     29  C   LIG    1       -5.882   2.690  -4.899  0.00  0.00    +0.060 A 
ENDBRANCH  22  23
ENDBRANCH  21  22
ENDBRANCH  19  21
ENDBRANCH  12  19
TORSDOF 5
