REMARK  Name = ZINCrH000004teit.2
REMARK                            x       y       z     vdW  Elec       q    Type
REMARK                         _______ _______ _______ _____ _____    ______ ____
ROOT
ATOM      1  N   LIG    1        3.466   4.045   0.850  0.00  0.00    -0.550 NA
ATOM      2  C   LIG    1        4.270   2.861   1.230  0.00  0.00    +0.160 C 
ATOM      3  C   LIG    1        3.565   1.539   0.888  0.00  0.00    +0.020 C 
ATOM      4  C   LIG    1        2.093   1.581   1.210  0.00  0.00    +0.190 C 
ATOM      5  N   LIG    1        1.360   2.011  -0.000  0.00  0.00    -0.550 NA
ATOM      6  C   LIG    1        1.383   3.394  -0.220  0.00  0.00    +0.180 C 
ATOM      7  C   LIG    1        2.815   3.923  -0.435  0.00  0.00    +0.180 C 
ENDROOT
BRANCH   1   8
ATOM      8  C   LIG    1        4.271   5.272   0.918  0.00  0.00    +0.230 C 
BRANCH   8  13
ATOM      9  F   LIG    1        5.989   6.098   6.209  0.00  0.00    -0.140 F 
ATOM     10  C   LIG    1        5.576   5.899   4.938  0.00  0.00    +0.100 A 
ATOM     11  C   LIG    1        6.355   5.160   4.064  0.00  0.00    -0.020 A 
ATOM     12  C   LIG    1        5.931   4.957   2.764  0.00  0.00    +0.050 A 
ATOM     13  C   LIG    1        4.731   5.493   2.336  0.00  0.00    -0.090 A 
ATOM     14  C   LIG    1        3.955   6.236   3.206  0.00  0.00    +0.060 A 
ATOM     15  C   LIG    1        4.373   6.435   4.508  0.00  0.00    -0.010 A 
ENDBRANCH   8  13
ENDBRANCH   1   8
BRANCH   5  16
ATOM     16  C   LIG    1       -0.018   1.503   0.010  0.00  0.00    +0.260 C 
BRANCH  16  17
ATOM     17  C   LIG    1        0.002  -0.004   0.002  0.00  0.00    -0.210 A 
ATOM     18  C   LIG    1        0.023  -0.806   1.092  0.00  0.00    +0.230 A 
ATOM     19  N   LIG    1        0.037  -2.087   0.660  0.00  0.00    -0.320 N 
ATOM     20  N   LIG    1        0.023  -2.069  -0.741  0.00  0.00    -0.290 NA
ATOM     21  C   LIG    1       -0.004  -0.821  -1.134  0.00  0.00    +0.270 A 
BRANCH  19  22
ATOM     22  C   LIG    1        0.059  -3.231   1.470  0.00  0.00    +0.160 A 
ATOM     23  C   LIG    1        0.076  -3.104   2.852  0.00  0.00    -0.010 A 
ATOM     24  C   LIG    1        0.092  -4.233   3.648  0.00  0.00    +0.040 A 
ATOM     25  C   LIG    1        0.104  -5.488   3.069  0.00  0.00    +0.000 A 
ATOM     26  C   LIG    1        0.094  -5.618   1.692  0.00  0.00    +0.040 A 
ATOM     27  C   LIG    1        0.071  -4.493   0.891  0.00  0.00    +0.020 A 
ENDBRANCH  19  22
ENDBRANCH  16  17
ENDBRANCH   5  16
TORSDOF 5
