REMARK  Name = ZINCqH0000007O82.0
REMARK                            x       y       z     vdW  Elec       q    Type
REMARK                         _______ _______ _______ _____ _____    ______ ____
ROOT
ATOM      1  C   LIG    1        3.585  -0.673  -0.060  0.00  0.00    -0.020 C 
ATOM      2  C   LIG    1        4.793   0.266  -0.132  0.00  0.00    +0.030 C 
ATOM      3  C   LIG    1        4.619   1.218  -1.318  0.00  0.00    +0.210 C 
ATOM      4  O   LIG    1        3.397   1.943  -1.170  0.00  0.00    -0.380 OA
ATOM      5  C   LIG    1        2.229   1.120  -1.144  0.00  0.00    +0.200 C 
ATOM      6  C   LIG    1        2.307   0.164   0.049  0.00  0.00    +0.000 C 
ENDROOT
BRANCH   1  12
ATOM      7  C   LIG    1        4.837  -2.354   1.317  0.00  0.00    +0.140 A 
ATOM      8  C   LIG    1        4.949  -3.173   2.432  0.00  0.00    -0.080 A 
ATOM      9  C   LIG    1        3.937  -3.198   3.372  0.00  0.00    +0.040 A 
ATOM     10  C   LIG    1        2.815  -2.409   3.204  0.00  0.00    -0.030 A 
ATOM     11  C   LIG    1        2.701  -1.592   2.094  0.00  0.00    +0.040 A 
ATOM     12  C   LIG    1        3.710  -1.563   1.150  0.00  0.00    -0.110 A 
BRANCH   7  14
ATOM     13  C   LIG    1        7.011  -3.079   0.682  0.00  0.00    +0.230 C 
ATOM     14  O   LIG    1        5.831  -2.328   0.390  0.00  0.00    -0.310 OA
ENDBRANCH   7  14
ENDBRANCH   1  12
BRANCH   1  15
ATOM     15  C   LIG    1        3.528  -1.534  -1.324  0.00  0.00    +0.300 C 
BRANCH  15  16
ATOM     16  N   LIG    1        2.312  -2.351  -1.303  0.00  0.00    -0.740 N 
ATOM     17  H   LIG    1        1.735  -2.342  -0.524  0.00  0.00    +0.390 HD
ATOM     18  C   LIG    1        1.997  -3.116  -2.367  0.00  0.00    +0.710 C 
ATOM     19  N   LIG    1        0.828  -3.788  -2.391  0.00  0.00    -0.620 N 
ATOM     20  C   LIG    1       -0.158  -3.602  -1.318  0.00  0.00    +0.260 C 
ATOM     21  C   LIG    1       -0.731  -2.188  -1.414  0.00  0.00    -0.010 C 
ATOM     22  C   LIG    1       -1.670  -2.103  -2.629  0.00  0.00    +0.010 C 
ATOM     23  C   LIG    1       -0.840  -1.981  -3.902  0.00  0.00    -0.010 C 
ATOM     24  C   LIG    1       -1.005  -3.233  -4.783  0.00  0.00    +0.000 C 
ATOM     25  C   LIG    1       -0.921  -4.489  -3.915  0.00  0.00    +0.000 C 
ATOM     26  C   LIG    1        0.532  -4.708  -3.476  0.00  0.00    +0.280 C 
ATOM     27  O   LIG    1        2.766  -3.201  -3.305  0.00  0.00    -0.590 OA
ENDBRANCH  15  16
ENDBRANCH   1  15
TORSDOF 4
