REMARK  Name = ZINCpe00000c4HRn.0
REMARK                            x       y       z     vdW  Elec       q    Type
REMARK                         _______ _______ _______ _____ _____    ______ ____
ROOT
ATOM      1  N   LIG    1       -2.352  -4.982   4.463  0.00  0.00    -0.390 N 
ATOM      2  C   LIG    1       -0.928  -4.672   4.724  0.00  0.00    +0.270 C 
ATOM      3  C   LIG    1       -0.656  -5.258   3.331  0.00  0.00    +0.100 C 
ATOM      4  C   LIG    1       -0.357  -6.755   3.346  0.00  0.00    +0.050 C 
ATOM      5  C   LIG    1       -0.233  -7.253   1.901  0.00  0.00    +0.030 C 
ATOM      6  C   LIG    1        0.818  -6.409   1.173  0.00  0.00    +0.010 C 
ATOM      7  C   LIG    1        0.401  -4.936   1.208  0.00  0.00    +0.150 C 
ATOM      8  O   LIG    1        0.285  -4.507   2.568  0.00  0.00    -0.350 OA
ATOM      9  C   LIG    1       -2.119  -4.928   3.002  0.00  0.00    +0.190 C 
ENDROOT
BRANCH   1  14
ATOM     10  C   LIG    1       -6.297  -2.199   5.415  0.00  0.00    +0.240 C 
ATOM     11  C   LIG    1       -4.885  -2.712   5.297  0.00  0.00    +0.160 A 
ATOM     12  N   LIG    1       -3.807  -2.089   5.673  0.00  0.00    -0.280 NA
ATOM     13  N   LIG    1       -2.778  -2.821   5.428  0.00  0.00    -0.300 NA
ATOM     14  C   LIG    1       -3.168  -3.943   4.873  0.00  0.00    +0.310 A 
ATOM     15  O   LIG    1       -4.510  -3.899   4.782  0.00  0.00    -0.220 OA
ENDBRANCH   1  14
BRANCH   7  16
ATOM     16  C   LIG    1        1.458  -4.090   0.495  0.00  0.00    +0.300 C 
BRANCH  16  17
ATOM     17  N   LIG    1        1.059  -2.681   0.529  0.00  0.00    -0.710 N 
ATOM     18  H   LIG    1        0.231  -2.421   0.963  0.00  0.00    +0.410 HD
ATOM     19  C   LIG    1        1.843  -1.745  -0.042  0.00  0.00    +0.560 C 
ATOM     20  O   LIG    1        2.878  -2.069  -0.584  0.00  0.00    -0.530 OA
BRANCH  19  21
ATOM     21  C   LIG    1        1.433  -0.295  -0.007  0.00  0.00    +0.040 C 
ATOM     22  C   LIG    1        2.151   0.678   0.972  0.00  0.00    +0.060 C 
ATOM     23  C   LIG    1        1.526   1.723  -0.003  0.00  0.00    -0.030 C 
ATOM     24  C   LIG    1       -0.018   1.451   0.010  0.00  0.00    +0.230 C 
ATOM     25  C   LIG    1        2.007   0.688  -1.056  0.00  0.00    +0.050 C 
ATOM     26  O   LIG    1        0.002  -0.004   0.002  0.00  0.00    -0.350 OA
ENDBRANCH  19  21
ENDBRANCH  16  17
ENDBRANCH   7  16
TORSDOF 4
