REMARK  Name = ZINCpk00000eavc6.0
REMARK                            x       y       z     vdW  Elec       q    Type
REMARK                         _______ _______ _______ _____ _____    ______ ____
ROOT
ATOM      1  N   LIG    1        5.514   2.838  -1.017  0.00  0.00    -0.490 NA
ATOM      2  C   LIG    1        6.838   3.168  -0.431  0.00  0.00    +0.170 C 
ATOM      3  C   LIG    1        6.522   3.364   1.073  0.00  0.00    +0.180 C 
ATOM      4  C   LIG    1        5.455   2.279   1.346  0.00  0.00    +0.060 C 
ATOM      5  C   LIG    1        4.846   1.959  -0.032  0.00  0.00    +0.240 C 
ENDROOT
BRANCH   5   6
ATOM      6  C   LIG    1        3.365   2.237  -0.017  0.00  0.00    +0.170 A 
ATOM      7  N   LIG    1        2.801   3.420  -0.005  0.00  0.00    -0.210 NA
ATOM      8  N   LIG    1        1.518   3.301   0.006  0.00  0.00    -0.250 NA
ATOM      9  C   LIG    1        1.199   2.019   0.002  0.00  0.00    +0.120 A 
ATOM     10  C   LIG    1       -0.016   1.307   0.009  0.00  0.00    +0.410 A 
ATOM     11  N   LIG    1        0.002  -0.004   0.002  0.00  0.00    -0.450 NA
ATOM     12  C   LIG    1        1.151  -0.685  -0.013  0.00  0.00    +0.240 A 
ATOM     13  C   LIG    1        2.343  -0.050  -0.020  0.00  0.00    +0.190 A 
ATOM     14  N   LIG    1        2.382   1.315  -0.013  0.00  0.00    -0.370 N 
ENDBRANCH   5   6
BRANCH   3  15
ATOM     15  O   LIG    1        7.688   3.137   1.868  0.00  0.00    -0.380 OA
ATOM     16  C   LIG    1        8.457   4.314   2.121  0.00  0.00    +0.210 C 
ENDBRANCH   3  15
BRANCH   1  17
ATOM     17  C   LIG    1        5.665   2.159  -2.311  0.00  0.00    +0.250 C 
BRANCH  17  22
ATOM     18  C   LIG    1        5.577   4.774  -4.898  0.00  0.00    +0.320 A 
ATOM     19  C   LIG    1        6.914   4.955  -5.230  0.00  0.00    -0.050 A 
ATOM     20  C   LIG    1        7.876   4.197  -4.586  0.00  0.00    +0.100 A 
ATOM     21  C   LIG    1        7.465   3.280  -3.628  0.00  0.00    -0.080 A 
ATOM     22  C   LIG    1        6.119   3.153  -3.349  0.00  0.00    +0.180 A 
ATOM     23  N   LIG    1        5.224   3.886  -3.983  0.00  0.00    -0.520 NA
BRANCH  18  25
ATOM     24  C   LIG    1        3.268   5.278  -5.137  0.00  0.00    +0.260 C 
ATOM     25  O   LIG    1        4.625   5.511  -5.522  0.00  0.00    -0.310 OA
ENDBRANCH  18  25
ENDBRANCH  17  22
ENDBRANCH   1  17
TORSDOF 5
