REMARK  Name = ZINCkj000005gnvV.0
REMARK                            x       y       z     vdW  Elec       q    Type
REMARK                         _______ _______ _______ _____ _____    ______ ____
ROOT
ATOM      1  N   LIG    1       -0.723   1.572  -1.182  0.00  0.00    -0.490 N 
ATOM      2  H   LIG    1       -0.206   1.317  -2.010  0.00  0.00    +0.430 HD
ATOM      3  H   LIG    1       -0.809   2.577  -1.135  0.00  0.00    +0.440 HD
ENDROOT
BRANCH   1   4
ATOM      4  C   LIG    1       -2.061   0.969  -1.234  0.00  0.00    +0.230 C 
ATOM      5  C   LIG    1       -1.932  -0.543  -1.431  0.00  0.00    +0.100 C 
BRANCH   4  10
ATOM      6  C   LIG    1       -4.886   2.401  -3.295  0.00  0.00    +0.150 A 
ATOM      7  C   LIG    1       -4.249   2.646  -4.503  0.00  0.00    -0.050 A 
ATOM      8  C   LIG    1       -2.908   2.347  -4.647  0.00  0.00    +0.080 A 
ATOM      9  C   LIG    1       -2.200   1.810  -3.588  0.00  0.00    -0.040 A 
ATOM     10  C   LIG    1       -2.834   1.560  -2.385  0.00  0.00    -0.100 A 
ATOM     11  C   LIG    1       -4.175   1.857  -2.236  0.00  0.00    +0.010 A 
BRANCH   6  12
ATOM     12  O   LIG    1       -6.206   2.694  -3.151  0.00  0.00    -0.310 OA
BRANCH  12  14
ATOM     13  C   LIG    1       -8.340   3.513  -3.933  0.00  0.00    +0.070 C 
ATOM     14  C   LIG    1       -6.874   3.252  -4.284  0.00  0.00    +0.190 C 
ENDBRANCH  12  14
ENDBRANCH   6  12
ENDBRANCH   4  10
ENDBRANCH   1   4
BRANCH   1  15
ATOM     15  C   LIG    1       -0.013   1.086   0.008  0.00  0.00    +0.180 C 
ATOM     16  C   LIG    1       -0.729   1.579   1.267  0.00  0.00    +0.120 C 
BRANCH  15  17
ATOM     17  C   LIG    1        1.401   1.607  -0.003  0.00  0.00    +0.520 C 
ATOM     18  N   LIG    1        2.245   1.288   0.998  0.00  0.00    -0.670 N 
ATOM     19  H   LIG    1        1.942   0.722   1.726  0.00  0.00    +0.420 HD
ATOM     20  C   LIG    1        3.509   1.754   0.989  0.00  0.00    +0.700 C 
ATOM     21  O   LIG    1        3.889   2.463   0.077  0.00  0.00    -0.520 OA
ATOM     22  N   LIG    1        4.353   1.435   1.990  0.00  0.00    -0.840 N 
ATOM     23  H   LIG    1        5.263   1.770   1.983  0.00  0.00    +0.430 HD
ATOM     24  H   LIG    1        4.051   0.869   2.717  0.00  0.00    +0.410 HD
ATOM     25  O   LIG    1        1.779   2.315  -0.912  0.00  0.00    -0.450 OA
ENDBRANCH  15  17
ENDBRANCH   1  15
TORSDOF 6
