REMARK  Name = ZINCrH000001l6gS.0
REMARK                            x       y       z     vdW  Elec       q    Type
REMARK                         _______ _______ _______ _____ _____    ______ ____
ROOT
ATOM      1  O   LIG    1        0.002  -0.004   0.002  0.00  0.00    -0.520 OA
ATOM      2  C   LIG    1       -0.014   1.213   0.009  0.00  0.00    +0.590 C 
ATOM      3  N   LIG    1       -1.191   1.871   0.018  0.00  0.00    -0.730 N 
ATOM      4  H   LIG    1       -1.204   2.841   0.023  0.00  0.00    +0.400 HD
ENDROOT
BRANCH   2   5
ATOM      5  C   LIG    1        1.246   1.964   0.001  0.00  0.00    -0.060 A 
ATOM      6  C   LIG    1        2.502   1.425  -0.014  0.00  0.00    +0.070 A 
ATOM      7  C   LIG    1        3.412   2.500  -0.017  0.00  0.00    -0.150 A 
ATOM      8  C   LIG    1        2.682   3.654  -0.004  0.00  0.00    +0.230 A 
ATOM      9  N   LIG    1        1.372   3.334   0.001  0.00  0.00    -0.530 N 
ATOM     10  H   LIG    1        0.637   3.968   0.006  0.00  0.00    +0.420 HD
BRANCH   7  11
ATOM     11  C   LIG    1        4.893   2.397  -0.031  0.00  0.00    +0.000 A 
ATOM     12  C   LIG    1        5.507   1.146  -0.037  0.00  0.00    +0.030 A 
ATOM     13  C   LIG    1        6.884   1.056  -0.055  0.00  0.00    +0.030 A 
ATOM     14  C   LIG    1        7.655   2.205  -0.056  0.00  0.00    -0.040 A 
ATOM     15  C   LIG    1        7.050   3.450  -0.045  0.00  0.00    +0.030 A 
ATOM     16 CL   LIG    1        9.387   2.085  -0.071  0.00  0.00    -0.070 Cl
ATOM     17  C   LIG    1        5.674   3.551  -0.032  0.00  0.00    +0.020 A 
ENDBRANCH   7  11
ENDBRANCH   2   5
BRANCH   3  18
ATOM     18  C   LIG    1       -2.449   1.121   0.020  0.00  0.00    +0.260 C 
BRANCH  18  19
ATOM     19  C   LIG    1       -3.626   2.099   0.031  0.00  0.00    +0.260 C 
BRANCH  19  20
ATOM     20  C   LIG    1       -4.916   1.332   0.156  0.00  0.00    -0.070 A 
ATOM     21  C   LIG    1       -5.476   0.733  -0.957  0.00  0.00    +0.040 A 
ATOM     22  C   LIG    1       -6.658   0.025  -0.841  0.00  0.00    +0.110 A 
ATOM     23  C   LIG    1       -7.285  -0.076   0.387  0.00  0.00    -0.040 A 
ATOM     24  C   LIG    1       -6.728   0.526   1.500  0.00  0.00    +0.110 A 
ATOM     25  C   LIG    1       -5.544   1.231   1.384  0.00  0.00    +0.050 A 
BRANCH  23  26
ATOM     26  N   LIG    1       -8.552  -0.830   0.511  0.00  0.00    +0.020 N 
ATOM     27  O   LIG    1       -9.043  -1.361  -0.470  0.00  0.00    -0.150 OA
ATOM     28  O   LIG    1       -9.105  -0.920   1.593  0.00  0.00    -0.150 OA
ENDBRANCH  23  26
ENDBRANCH  19  20
BRANCH  19  29
ATOM     29  O   LIG    1       -3.634   2.848  -1.186  0.00  0.00    -0.550 OA
ATOM     30  H   LIG    1       -3.721   2.305  -1.982  0.00  0.00    +0.380 HD
ENDBRANCH  19  29
ENDBRANCH  18  19
ENDBRANCH   3  18
TORSDOF 7
