REMARK  Name = ZINCvU0000000Ipl.0
REMARK                            x       y       z     vdW  Elec       q    Type
REMARK                         _______ _______ _______ _____ _____    ______ ____
ROOT
ATOM      1  C   LIG    1        2.380   0.648  -0.255  0.00  0.00    -0.230 A 
ATOM      2  C   LIG    1        1.724  -0.518  -0.074  0.00  0.00    +0.250 A 
ATOM      3  N   LIG    1        0.391  -0.263  -0.145  0.00  0.00    -0.310 N 
ATOM      4  N   LIG    1        0.223   1.108  -0.376  0.00  0.00    -0.260 NA
ATOM      5  C   LIG    1        1.417   1.662  -0.444  0.00  0.00    +0.170 A 
ENDROOT
BRANCH   3   6
ATOM      6  C   LIG    1       -0.635  -1.207  -0.010  0.00  0.00    +0.160 A 
ATOM      7  C   LIG    1       -0.327  -2.543   0.213  0.00  0.00    -0.010 A 
ATOM      8  C   LIG    1       -1.341  -3.470   0.351  0.00  0.00    +0.040 A 
ATOM      9  C   LIG    1       -2.662  -3.071   0.257  0.00  0.00    +0.000 A 
ATOM     10  C   LIG    1       -2.972  -1.743   0.030  0.00  0.00    +0.040 A 
ATOM     11  C   LIG    1       -1.962  -0.810  -0.104  0.00  0.00    +0.020 A 
ENDBRANCH   3   6
BRANCH   5  12
ATOM     12  C   LIG    1        1.698   3.094  -0.676  0.00  0.00    +0.030 A 
ATOM     13  C   LIG    1        0.975   3.931  -1.466  0.00  0.00    -0.010 A 
ATOM     14  C   LIG    1        1.597   5.194  -1.395  0.00  0.00    -0.070 A 
ATOM     15  C   LIG    1        2.657   5.067  -0.575  0.00  0.00    +0.020 A 
ATOM     16  C   LIG    1        3.618   6.167  -0.204  0.00  0.00    +0.180 C 
ATOM     17  O   LIG    1        2.713   3.798  -0.138  0.00  0.00    -0.150 OA
ENDBRANCH   5  12
BRANCH   1  18
ATOM     18  C   LIG    1        3.876   0.834  -0.255  0.00  0.00    +0.370 C 
BRANCH  18  19
ATOM     19  N   LIG    1        4.325   1.176   1.097  0.00  0.00    -0.670 N 
ATOM     20  C   LIG    1        4.320   2.461   1.504  0.00  0.00    +0.600 C 
ATOM     21  O   LIG    1        5.018   3.280   0.938  0.00  0.00    -0.480 OA
BRANCH  20  22
ATOM     22  C   LIG    1        3.471   2.872   2.633  0.00  0.00    -0.100 C 
ATOM     23  C   LIG    1        3.427   4.149   3.002  0.00  0.00    +0.120 C 
ENDBRANCH  20  22
BRANCH  19  24
ATOM     24  C   LIG    1        4.779   0.121   2.007  0.00  0.00    +0.280 C 
BRANCH  24  25
ATOM     25  C   LIG    1        6.056  -0.515   1.453  0.00  0.00    +0.010 C 
BRANCH  25  26
ATOM     26  C   LIG    1        7.181   0.522   1.446  0.00  0.00    -0.040 C 
ATOM     27  C   LIG    1        7.579   1.124   0.097  0.00  0.00    +0.020 C 
ATOM     28  C   LIG    1        8.506   0.124   0.792  0.00  0.00    +0.000 C 
ENDBRANCH  25  26
BRANCH  25  29
ATOM     29  C   LIG    1        6.460  -1.699   2.334  0.00  0.00    +0.170 C 
BRANCH  29  31
ATOM     30  C   LIG    1        8.540  -2.930   1.258  0.00  0.00    +0.000 C 
ATOM     31  C   LIG    1        7.617  -2.384   1.735  0.00  0.00    -0.170 C 
ENDBRANCH  29  31
ENDBRANCH  25  29
ENDBRANCH  24  25
ENDBRANCH  19  24
ENDBRANCH  18  19
ENDBRANCH   1  18
TORSDOF 10
