REMARK  Name = ZINCpk00000y6wzE.0
REMARK                            x       y       z     vdW  Elec       q    Type
REMARK                         _______ _______ _______ _____ _____    ______ ____
ROOT
ATOM      1  C   LIG    1       -3.606   2.563   3.009  0.00  0.00    +0.620 C 
ATOM      2  N   LIG    1       -4.671   2.486   2.186  0.00  0.00    -0.600 N 
ATOM      3  C   LIG    1       -4.639   2.055   0.777  0.00  0.00    +0.280 C 
ATOM      4  C   LIG    1       -5.888   2.707   0.134  0.00  0.00    +0.090 C 
ATOM      5  C   LIG    1       -6.922   2.601   1.286  0.00  0.00    +0.210 C 
ATOM      6  C   LIG    1       -6.059   2.810   2.548  0.00  0.00    +0.260 C 
ATOM      7  O   LIG    1       -3.751   2.932   4.158  0.00  0.00    -0.530 OA
ENDROOT
BRANCH   1  10
ATOM      8  C   LIG    1       -0.096   1.817   2.393  0.00  0.00    +0.020 A 
ATOM      9  C   LIG    1       -1.057   2.230   3.253  0.00  0.00    -0.010 A 
ATOM     10  C   LIG    1       -2.263   2.200   2.514  0.00  0.00    -0.010 A 
ATOM     11  N   LIG    1       -1.959   1.791   1.298  0.00  0.00    -0.260 NA
ATOM     12  N   LIG    1       -0.698   1.558   1.213  0.00  0.00    -0.280 N 
ATOM     13  C   LIG    1       -0.013   1.086   0.008  0.00  0.00    +0.370 C 
BRANCH   8  15
ATOM     14  C   LIG    1        1.802   2.773   3.671  0.00  0.00    +0.050 C 
ATOM     15  C   LIG    1        1.374   1.674   2.697  0.00  0.00    +0.060 C 
ATOM     16  C   LIG    1        1.633   0.304   3.327  0.00  0.00    +0.040 C 
ENDBRANCH   8  15
ENDBRANCH   1  10
BRANCH   5  17
ATOM     17  C   LIG    1       -7.967   3.681   1.166  0.00  0.00    -0.040 A 
ATOM     18  C   LIG    1       -9.016   3.888   1.995  0.00  0.00    +0.150 A 
ATOM     19  N   LIG    1       -9.680   4.960   1.503  0.00  0.00    -0.280 N 
ATOM     20  N   LIG    1       -9.065   5.365   0.447  0.00  0.00    -0.080 NA
ATOM     21  N   LIG    1       -8.036   4.627   0.223  0.00  0.00    -0.250 NA
BRANCH  19  22
ATOM     22  C   LIG    1      -10.890   5.556   2.073  0.00  0.00    +0.250 C 
ATOM     23  C   LIG    1      -10.836   5.459   3.599  0.00  0.00    +0.060 C 
ATOM     24  C   LIG    1      -12.120   4.806   1.558  0.00  0.00    +0.060 C 
ENDBRANCH  19  22
ENDBRANCH   5  17
BRANCH   5  25
ATOM     25  O   LIG    1       -7.533   1.309   1.300  0.00  0.00    -0.530 OA
ATOM     26  H   LIG    1       -8.187   1.191   2.002  0.00  0.00    +0.380 HD
ENDBRANCH   5  25
TORSDOF 5
