REMARK  Name = ZINCrD00000l6ci1.0
REMARK                            x       y       z     vdW  Elec       q    Type
REMARK                         _______ _______ _______ _____ _____    ______ ____
ROOT
ATOM      1  N   LIG    1        5.517  -1.640  -2.310  0.00  0.00    -0.740 N 
ATOM      2  H   LIG    1        5.405  -0.890  -2.916  0.00  0.00    +0.400 HD
ATOM      3  C   LIG    1        5.183  -1.512  -1.011  0.00  0.00    +0.710 C 
ATOM      4  N   LIG    1        4.601  -0.378  -0.573  0.00  0.00    -0.630 N 
ATOM      5  C   LIG    1        4.427   0.770  -1.473  0.00  0.00    +0.260 C 
ATOM      6  C   LIG    1        5.041   2.010  -0.814  0.00  0.00    +0.040 C 
ATOM      7  C   LIG    1        4.427   2.201   0.575  0.00  0.00    +0.060 C 
ATOM      8  C   LIG    1        4.744   0.984   1.447  0.00  0.00    +0.040 C 
ATOM      9  C   LIG    1        4.127  -0.268   0.814  0.00  0.00    +0.300 C 
ATOM     10  O   LIG    1        5.407  -2.420  -0.234  0.00  0.00    -0.590 OA
ENDROOT
BRANCH   7  11
ATOM     11  C   LIG    1        5.003   3.439   1.212  0.00  0.00    +0.090 A 
ATOM     12  C   LIG    1        6.271   3.891   1.074  0.00  0.00    -0.120 A 
ATOM     13  C   LIG    1        6.395   5.061   1.831  0.00  0.00    +0.230 A 
ATOM     14  N   LIG    1        5.241   5.306   2.397  0.00  0.00    -0.300 NA
ATOM     15  N   LIG    1        4.347   4.295   2.024  0.00  0.00    -0.370 N 
ATOM     16  C   LIG    1        2.947   4.184   2.442  0.00  0.00    +0.360 C 
ENDBRANCH   7  11
BRANCH   1  17
ATOM     17  C   LIG    1        6.049  -2.910  -2.809  0.00  0.00    +0.270 C 
ATOM     18  C   LIG    1        7.559  -2.961  -2.567  0.00  0.00    +0.030 C 
BRANCH  17  19
ATOM     19  C   LIG    1        5.768  -3.028  -4.308  0.00  0.00    +0.190 C 
BRANCH  19  20
ATOM     20  O   LIG    1        6.491  -2.014  -5.009  0.00  0.00    -0.330 OA
BRANCH  20  28
ATOM     21  C   LIG    1        8.312  -3.530  -6.548  0.00  0.00    +0.090 C 
ATOM     22  C   LIG    1        7.216  -2.703  -7.168  0.00  0.00    -0.100 A 
ATOM     23  C   LIG    1        7.067  -2.671  -8.541  0.00  0.00    +0.010 A 
ATOM     24  C   LIG    1        6.065  -1.907  -9.111  0.00  0.00    +0.020 A 
ATOM     25  C   LIG    1        5.205  -1.181  -8.309  0.00  0.00    +0.010 A 
ATOM     26  C   LIG    1        5.346  -1.215  -6.935  0.00  0.00    -0.100 A 
ATOM     27  C   LIG    1        4.408  -0.422  -6.061  0.00  0.00    +0.090 C 
ATOM     28  C   LIG    1        6.351  -1.979  -6.361  0.00  0.00    +0.090 A 
ENDBRANCH  20  28
ENDBRANCH  19  20
ENDBRANCH  17  19
ENDBRANCH   1  17
TORSDOF 5
