REMARK  Name = ZINCpe000000SHlB.0
REMARK                            x       y       z     vdW  Elec       q    Type
REMARK                         _______ _______ _______ _____ _____    ______ ____
ROOT
ATOM      1  N   LIG    1        1.069  -2.183  -0.020  0.00  0.00    -0.560 N 
ATOM      2  C   LIG    1        0.957  -2.941   1.086  0.00  0.00    +0.580 C 
ATOM      3  C   LIG    1        0.708  -4.339   0.677  0.00  0.00    -0.090 A 
ATOM      4  C   LIG    1        0.512  -5.527   1.361  0.00  0.00    +0.130 A 
ATOM      5  C   LIG    1        0.303  -6.702   0.654  0.00  0.00    +0.160 A 
ATOM      6  C   LIG    1        0.289  -6.694  -0.728  0.00  0.00    -0.020 A 
ATOM      7  C   LIG    1        0.484  -5.512  -1.426  0.00  0.00    +0.190 A 
ATOM      8  C   LIG    1        0.694  -4.331  -0.733  0.00  0.00    -0.130 A 
ATOM      9  O   LIG    1        1.042  -2.542   2.230  0.00  0.00    -0.440 OA
ATOM     10  C   LIG    1        0.930  -2.928  -1.132  0.00  0.00    +0.590 C 
ATOM     11  O   LIG    1        0.987  -2.515  -2.273  0.00  0.00    -0.440 OA
ENDROOT
BRANCH   6  12
ATOM     12  N   LIG    1        0.065  -7.956  -1.467  0.00  0.00    +0.020 N 
ATOM     13  O   LIG    1       -0.107  -8.997  -0.858  0.00  0.00    -0.140 OA
ATOM     14  O   LIG    1        0.052  -7.955  -2.685  0.00  0.00    -0.140 OA
ENDBRANCH   6  12
BRANCH   1  15
ATOM     15  C   LIG    1        1.317  -0.740  -0.015  0.00  0.00    +0.380 C 
BRANCH  15  21
ATOM     16  N   LIG    1       -1.211   3.349   0.026  0.00  0.00    -0.730 N 
ATOM     17  H   LIG    1       -0.377   3.845   0.025  0.00  0.00    +0.400 HD
ATOM     18  C   LIG    1       -1.192   2.002   0.019  0.00  0.00    +0.700 C 
ATOM     19  N   LIG    1       -0.016   1.344   0.009  0.00  0.00    -0.690 N 
ATOM     20  H   LIG    1        0.817   1.840   0.004  0.00  0.00    +0.410 HD
ATOM     21  C   LIG    1        0.002  -0.004   0.002  0.00  0.00    +0.500 C 
ATOM     22  O   LIG    1       -1.040  -0.625   0.009  0.00  0.00    -0.450 OA
ATOM     23  O   LIG    1       -2.237   1.380   0.020  0.00  0.00    -0.520 OA
BRANCH  16  25
ATOM     24  C   LIG    1       -3.280   3.677   1.287  0.00  0.00    +0.030 C 
ATOM     25  C   LIG    1       -2.489   4.064   0.036  0.00  0.00    +0.180 C 
ATOM     26  C   LIG    1       -3.292   3.691  -1.212  0.00  0.00    +0.040 C 
ATOM     27  C   LIG    1       -2.230   5.572   0.043  0.00  0.00    +0.040 C 
ENDBRANCH  16  25
ENDBRANCH  15  21
ENDBRANCH   1  15
TORSDOF 4
