REMARK  Name = ZINCrH000004rrfc.0
REMARK                            x       y       z     vdW  Elec       q    Type
REMARK                         _______ _______ _______ _____ _____    ______ ____
ROOT
ATOM      1  C   LIG    1       -4.882   5.955   0.188  0.00  0.00    -0.670 A 
ATOM      2  C   LIG    1       -3.696   6.658   0.298  0.00  0.00    +0.150 A 
ATOM      3  C   LIG    1       -2.493   5.983   0.347  0.00  0.00    +0.020 A 
ATOM      4  C   LIG    1       -2.474   4.595   0.286  0.00  0.00    +0.200 A 
ATOM      5  C   LIG    1       -3.666   3.892   0.171  0.00  0.00    +0.030 A 
ATOM      6  C   LIG    1       -4.867   4.574   0.128  0.00  0.00    +0.150 A 
ENDROOT
BRANCH   4   7
ATOM      7  N   LIG    1       -1.257   3.907   0.336  0.00  0.00    -0.370 N 
ATOM      8  N   LIG    1       -0.321   4.217   1.329  0.00  0.00    -0.190 NA
ATOM      9  C   LIG    1        0.821   3.586   1.393  0.00  0.00    +0.320 A 
ATOM     10  C   LIG    1        1.135   2.582   0.465  0.00  0.00    -0.010 A 
ATOM     11  C   LIG    1        0.239   2.261  -0.513  0.00  0.00    -0.090 A 
ATOM     12 CL   LIG    1        0.609   1.021  -1.671  0.00  0.00    +0.030 Cl
ATOM     13 CL   LIG    1        2.655   1.750   0.561  0.00  0.00    +0.010 Cl
ATOM     14  C   LIG    1       -0.987   2.952  -0.577  0.00  0.00    +0.520 A 
ATOM     15  O   LIG    1       -1.800   2.685  -1.447  0.00  0.00    -0.480 OA
ENDBRANCH   4   7
BRANCH   1  16
ATOM     16  S   LIG    1       -6.415   6.821   0.126  0.00  0.00    +2.690 S 
ATOM     17  O   LIG    1       -6.159   8.127   0.626  0.00  0.00    -0.940 OA
ATOM     18  O   LIG    1       -7.390   5.952   0.686  0.00  0.00    -0.940 OA
BRANCH  16  19
ATOM     19  N   LIG    1       -6.812   7.001  -1.471  0.00  0.00    -1.050 N 
ATOM     20  H   LIG    1       -7.626   6.603  -1.817  0.00  0.00    +0.430 HD
BRANCH  19  25
ATOM     21  C   LIG    1       -3.412   9.954  -4.920  0.00  0.00    +0.100 C 
ATOM     22  C   LIG    1       -4.315   9.169  -4.004  0.00  0.00    -0.120 A 
ATOM     23  C   LIG    1       -4.651   9.679  -2.764  0.00  0.00    +0.070 A 
ATOM     24  C   LIG    1       -5.484   8.965  -1.924  0.00  0.00    +0.000 A 
ATOM     25  C   LIG    1       -5.975   7.728  -2.321  0.00  0.00    +0.160 A 
ATOM     26  C   LIG    1       -5.636   7.216  -3.568  0.00  0.00    -0.020 A 
ATOM     27  C   LIG    1       -4.807   7.938  -4.407  0.00  0.00    +0.120 A 
ATOM     28  F   LIG    1       -4.477   7.443  -5.620  0.00  0.00    -0.130 F 
ENDBRANCH  19  25
ENDBRANCH  16  19
ENDBRANCH   1  16
TORSDOF 4
