REMARK  Name = ZINCrD0000072kC7.0
REMARK                            x       y       z     vdW  Elec       q    Type
REMARK                         _______ _______ _______ _____ _____    ______ ____
ROOT
ATOM      1  O   LIG    1       -1.203   1.892  -0.251  0.00  0.00    -0.330 OA
ENDROOT
BRANCH   1   2
ATOM      2  C   LIG    1       -0.027   1.240  -0.327  0.00  0.00    +0.510 C 
ATOM      3  O   LIG    1       -0.005   0.025  -0.341  0.00  0.00    -0.500 OA
BRANCH   2   4
ATOM      4  C   LIG    1        1.237   2.001  -0.400  0.00  0.00    -0.120 A 
ATOM      5  C   LIG    1        1.215   3.397  -0.390  0.00  0.00    +0.090 A 
ATOM      6  C   LIG    1        2.399   4.103  -0.454  0.00  0.00    +0.020 A 
ATOM      7  C   LIG    1        3.605   3.430  -0.538  0.00  0.00    -0.060 A 
ATOM      8  C   LIG    1        3.633   2.046  -0.554  0.00  0.00    +0.030 A 
ATOM      9  C   LIG    1        2.457   1.329  -0.485  0.00  0.00    +0.100 A 
BRANCH   7  10
ATOM     10  C   LIG    1        4.894   4.207  -0.615  0.00  0.00    -0.280 C 
BRANCH  10  11
ATOM     11  S   LIG    1        5.301   4.535  -2.352  0.00  0.00    +2.420 S 
ATOM     12  O   LIG    1        4.310   5.397  -2.893  0.00  0.00    -0.930 OA
ATOM     13  O   LIG    1        5.570   3.297  -2.995  0.00  0.00    -0.930 OA
ATOM     14  C   LIG    1        6.854   5.460  -2.204  0.00  0.00    -0.270 C 
ENDBRANCH  10  11
ENDBRANCH   7  10
ENDBRANCH   2   4
ENDBRANCH   1   2
BRANCH   1  15
ATOM     15  C   LIG    1       -2.405   1.079  -0.188  0.00  0.00    +0.240 C 
BRANCH  15  16
ATOM     16  C   LIG    1       -3.614   1.975  -0.107  0.00  0.00    +0.400 C 
ATOM     17  O   LIG    1       -3.476   3.179  -0.103  0.00  0.00    -0.420 OA
BRANCH  16  22
ATOM     18  C   LIG    1       -6.398  -0.538  -0.077  0.00  0.00    -0.100 A 
ATOM     19  C   LIG    1       -7.497   0.282   0.104  0.00  0.00    +0.050 A 
ATOM     20  C   LIG    1       -7.337   1.653   0.216  0.00  0.00    +0.000 A 
ATOM     21  C   LIG    1       -6.077   2.210   0.148  0.00  0.00    -0.020 A 
ATOM     22  C   LIG    1       -4.961   1.387  -0.034  0.00  0.00    -0.170 A 
ATOM     23  C   LIG    1       -5.132   0.005  -0.151  0.00  0.00    +0.060 A 
BRANCH  18  25
ATOM     24  C   LIG    1       -6.783  -2.400  -1.669  0.00  0.00    +0.030 C 
ATOM     25  C   LIG    1       -6.585  -2.029  -0.198  0.00  0.00    +0.060 C 
ENDBRANCH  18  25
BRANCH  21  26
ATOM     26  C   LIG    1       -5.904   3.702   0.270  0.00  0.00    +0.070 C 
ATOM     27  C   LIG    1       -5.421   4.047   1.680  0.00  0.00    +0.030 C 
ENDBRANCH  21  26
ENDBRANCH  16  22
ENDBRANCH  15  16
ENDBRANCH   1  15
TORSDOF 9
