REMARK  Name = ZINCrH000004qe73.0
REMARK                            x       y       z     vdW  Elec       q    Type
REMARK                         _______ _______ _______ _____ _____    ______ ____
ROOT
ATOM      1  C   LIG    1        2.838   7.781   2.821  0.00  0.00    +0.170 C 
ATOM      2  C   LIG    1        2.276   7.099   4.043  0.00  0.00    +0.180 A 
ATOM      3  C   LIG    1        2.279   5.769   4.277  0.00  0.00    -0.060 A 
ATOM      4  C   LIG    1        1.663   5.544   5.535  0.00  0.00    +0.540 A 
ATOM      5  N   LIG    1        1.297   6.742   6.032  0.00  0.00    -0.370 N 
ATOM      6  O   LIG    1        1.495   4.462   6.069  0.00  0.00    -0.510 OA
ATOM      7  N   LIG    1        1.673   7.723   5.105  0.00  0.00    -0.390 N 
ATOM      8  C   LIG    1        1.463   9.166   5.248  0.00  0.00    +0.360 C 
ENDROOT
BRANCH   5   9
ATOM      9  C   LIG    1        0.656   6.966   7.254  0.00  0.00    +0.150 A 
ATOM     10  C   LIG    1        1.144   7.927   8.131  0.00  0.00    +0.000 A 
ATOM     11  C   LIG    1        0.505   8.150   9.334  0.00  0.00    +0.030 A 
ATOM     12  C   LIG    1       -0.613   7.410   9.673  0.00  0.00    +0.010 A 
ATOM     13  C   LIG    1       -1.099   6.449   8.805  0.00  0.00    +0.030 A 
ATOM     14  C   LIG    1       -0.468   6.225   7.597  0.00  0.00    +0.030 A 
ENDBRANCH   5   9
BRANCH   3  15
ATOM     15  N   LIG    1        2.806   4.778   3.423  0.00  0.00    -0.650 N 
ATOM     16  H   LIG    1        3.725   4.839   3.119  0.00  0.00    +0.400 HD
ATOM     17  C   LIG    1        2.033   3.747   3.029  0.00  0.00    +0.710 C 
ATOM     18  N   LIG    1        2.504   2.855   2.135  0.00  0.00    -0.620 N 
ATOM     19  C   LIG    1        3.856   3.007   1.591  0.00  0.00    +0.280 C 
ATOM     20  O   LIG    1        0.911   3.620   3.481  0.00  0.00    -0.560 OA
BRANCH  18  21
ATOM     21  C   LIG    1        1.664   1.734   1.707  0.00  0.00    +0.300 C 
ATOM     22  C   LIG    1        1.550   1.735   0.181  0.00  0.00    +0.030 C 
BRANCH  21  23
ATOM     23  C   LIG    1        2.284   0.438   2.163  0.00  0.00    -0.100 A 
ATOM     24  C   LIG    1        3.003   0.394   3.343  0.00  0.00    +0.020 A 
ATOM     25  C   LIG    1        3.572  -0.794   3.762  0.00  0.00    +0.000 A 
ATOM     26  C   LIG    1        3.421  -1.938   3.001  0.00  0.00    +0.000 A 
ATOM     27  C   LIG    1        2.702  -1.895   1.821  0.00  0.00    +0.000 A 
ATOM     28  C   LIG    1        2.132  -0.706   1.403  0.00  0.00    +0.020 A 
ENDBRANCH  21  23
ENDBRANCH  18  21
ENDBRANCH   3  15
TORSDOF 4
