REMARK  Name = ZINCrD000000Az1Z.0
REMARK                            x       y       z     vdW  Elec       q    Type
REMARK                         _______ _______ _______ _____ _____    ______ ____
ROOT
ATOM      1  O   LIG    1        3.554   2.014   0.109  0.00  0.00    -0.500 OA
ATOM      2  C   LIG    1        3.537   3.227   0.104  0.00  0.00    +0.510 C 
ATOM      3  N   LIG    1        2.364   3.884   0.020  0.00  0.00    -0.670 N 
ATOM      4  H   LIG    1        2.354   4.851  -0.061  0.00  0.00    +0.420 HD
ENDROOT
BRANCH   3   5
ATOM      5  C   LIG    1        1.158   3.171   0.051  0.00  0.00    +0.170 A 
ATOM      6  C   LIG    1        1.056   2.012   0.807  0.00  0.00    +0.060 A 
ATOM      7  C   LIG    1       -0.133   1.307   0.837  0.00  0.00    +0.090 A 
ATOM      8  C   LIG    1       -1.224   1.753   0.109  0.00  0.00    +0.010 A 
ATOM      9  O   LIG    1       -2.485   1.247  -0.031  0.00  0.00    -0.280 OA
ATOM     10  C   LIG    1       -3.027   1.885  -1.202  0.00  0.00    +0.570 C 
ATOM     11  O   LIG    1       -2.326   3.145  -1.257  0.00  0.00    -0.290 OA
ATOM     12  F   LIG    1       -4.402   2.096  -1.056  0.00  0.00    -0.120 F 
ATOM     13  F   LIG    1       -2.768   1.117  -2.343  0.00  0.00    -0.150 F 
ATOM     14  C   LIG    1       -1.126   2.919  -0.646  0.00  0.00    +0.050 A 
ATOM     15  C   LIG    1        0.065   3.624  -0.676  0.00  0.00    +0.040 A 
ENDBRANCH   3   5
BRANCH   2  16
ATOM     16  C   LIG    1        4.829   3.999   0.191  0.00  0.00    +0.130 C 
BRANCH  16  17
ATOM     17  C   LIG    1        5.985   3.036   0.275  0.00  0.00    -0.100 A 
ATOM     18  C   LIG    1        6.435   2.603   1.509  0.00  0.00    +0.060 A 
ATOM     19  C   LIG    1        7.491   1.717   1.588  0.00  0.00    +0.000 A 
ATOM     20  C   LIG    1        8.108   1.269   0.428  0.00  0.00    +0.170 A 
ATOM     21  C   LIG    1        7.657   1.709  -0.810  0.00  0.00    -0.030 A 
ATOM     22  C   LIG    1        6.597   2.591  -0.883  0.00  0.00    +0.060 A 
BRANCH  20  23
ATOM     23  N   LIG    1        9.182   0.375   0.505  0.00  0.00    -0.560 N 
ATOM     24  C   LIG    1        9.979  -0.064  -0.647  0.00  0.00    +0.260 C 
ATOM     25  C   LIG    1       10.725  -1.331  -0.173  0.00  0.00    +0.060 C 
ATOM     26  C   LIG    1       10.786  -1.107   1.356  0.00  0.00    +0.070 C 
ATOM     27  C   LIG    1        9.621  -0.186   1.645  0.00  0.00    +0.520 C 
ATOM     28  O   LIG    1        9.150   0.015   2.744  0.00  0.00    -0.510 OA
ENDBRANCH  20  23
ENDBRANCH  16  17
ENDBRANCH   2  16
TORSDOF 4
