REMARK  Name = ZINCtV00000L6jUv.0
REMARK                            x       y       z     vdW  Elec       q    Type
REMARK                         _______ _______ _______ _____ _____    ______ ____
ROOT
ATOM      1  P   LIG    1       -0.861   3.523   2.421  0.00  0.00    +2.570 P 
ATOM      2  O   LIG    1        0.595   3.628   2.178  0.00  0.00    -1.040 OA
ENDROOT
BRANCH   1   3
ATOM      3  C   LIG    1       -1.162   3.250   4.189  0.00  0.00    -0.750 A 
ATOM      4  C   LIG    1       -2.376   3.606   4.746  0.00  0.00    +0.070 A 
ATOM      5  C   LIG    1       -2.606   3.393   6.093  0.00  0.00    -0.010 A 
ATOM      6  C   LIG    1       -1.619   2.835   6.883  0.00  0.00    +0.050 A 
ATOM      7  C   LIG    1       -0.404   2.484   6.327  0.00  0.00    +0.000 A 
ATOM      8  C   LIG    1       -0.175   2.692   4.979  0.00  0.00    +0.100 A 
ENDBRANCH   1   3
BRANCH   1   9
ATOM      9  N   LIG    1       -1.595   4.912   1.950  0.00  0.00    -1.100 N 
ATOM     10  H   LIG    1       -2.308   4.885   1.293  0.00  0.00    +0.420 HD
BRANCH   9  14
ATOM     11  C   LIG    1       -0.395   8.558   3.575  0.00  0.00    +0.100 A 
ATOM     12  C   LIG    1       -1.472   8.509   2.702  0.00  0.00    +0.020 A 
ATOM     13  C   LIG    1       -1.870   7.302   2.163  0.00  0.00    +0.010 A 
ATOM     14  C   LIG    1       -1.192   6.136   2.495  0.00  0.00    +0.150 A 
ATOM     15  C   LIG    1       -0.118   6.186   3.374  0.00  0.00    +0.000 A 
ATOM     16  C   LIG    1        0.282   7.395   3.908  0.00  0.00    -0.030 A 
BRANCH  11  17
ATOM     17  O   LIG    1       -0.004   9.748   4.105  0.00  0.00    -0.320 OA
BRANCH  17  19
ATOM     18  C   LIG    1        1.403  11.145   5.487  0.00  0.00    +0.070 C 
ATOM     19  C   LIG    1        1.113   9.725   4.997  0.00  0.00    +0.170 C 
ENDBRANCH  17  19
ENDBRANCH  11  17
ENDBRANCH   9  14
ENDBRANCH   1   9
BRANCH   1  20
ATOM     20  O   LIG    1       -1.458   2.288   1.578  0.00  0.00    -0.740 OA
BRANCH  20  21
ATOM     21  C   LIG    1       -0.943   0.959   1.674  0.00  0.00    +0.230 C 
ATOM     22  C   LIG    1       -0.099   0.648   0.436  0.00  0.00    +0.020 C 
ATOM     23  C   LIG    1       -0.969   0.769  -0.817  0.00  0.00    -0.010 C 
ATOM     24  C   LIG    1       -2.130  -0.223  -0.730  0.00  0.00    +0.000 C 
ATOM     25  C   LIG    1       -2.974   0.088   0.508  0.00  0.00    +0.030 C 
ATOM     26  C   LIG    1       -1.520   2.192  -0.920  0.00  0.00    +0.010 C 
ATOM     27  C   LIG    1       -2.104  -0.033   1.762  0.00  0.00    +0.000 C 
BRANCH  27  28
ATOM     28  C   LIG    1       -2.948   0.278   2.999  0.00  0.00    -0.020 C 
ATOM     29  C   LIG    1       -2.120   0.018   4.260  0.00  0.00    +0.000 C 
ATOM     30  C   LIG    1       -4.188  -0.619   3.010  0.00  0.00    +0.020 C 
ENDBRANCH  27  28
ENDBRANCH  20  21
ENDBRANCH   1  20
TORSDOF 8
