REMARK  Name = ZINC650000002FEs.0
REMARK                            x       y       z     vdW  Elec       q    Type
REMARK                         _______ _______ _______ _____ _____    ______ ____
ROOT
ATOM      1  C   LIG    1       -1.187   1.624   0.017  0.00  0.00    +0.340 C 
ATOM      2  S   LIG    1       -1.210   3.336   0.026  0.00  0.00    -0.480 S 
ENDROOT
BRANCH   1   3
ATOM      3  N   LIG    1       -0.011   0.966   0.007  0.00  0.00    -0.710 N 
ATOM      4  H   LIG    1        0.822   1.462   0.002  0.00  0.00    +0.430 HD
ATOM      5  H   LIG    1        0.002  -0.004   0.002  0.00  0.00    +0.420 HD
ENDBRANCH   1   3
BRANCH   1   6
ATOM      6  C   LIG    1       -2.458   0.867   0.018  0.00  0.00    +0.340 C 
ATOM      7  S   LIG    1       -2.435  -0.845   0.009  0.00  0.00    -0.480 S 
BRANCH   6   8
ATOM      8  N   LIG    1       -3.635   1.525   0.028  0.00  0.00    -0.710 N 
ATOM      9  H   LIG    1       -4.468   1.028   0.029  0.00  0.00    +0.430 HD
ATOM     10  H   LIG    1       -3.648   2.495   0.033  0.00  0.00    +0.420 HD
ENDBRANCH   6   8
ENDBRANCH   1   6
TORSDOF 3
