REMARK  Name = ZINCrD000000D5QZ.2
REMARK                            x       y       z     vdW  Elec       q    Type
REMARK                         _______ _______ _______ _____ _____    ______ ____
ROOT
ATOM      1  O   LIG    1       -3.269  -1.095   1.730  0.00  0.00    -0.940 OA
ATOM      2  S   LIG    1       -2.747  -2.238   1.067  0.00  0.00    +2.620 S 
ATOM      3  O   LIG    1       -3.305  -2.693  -0.158  0.00  0.00    -0.940 OA
ENDROOT
BRANCH   2   4
ATOM      4  C   LIG    1       -0.940  -2.131   0.942  0.00  0.00    -0.460 C 
ATOM      5  C   LIG    1       -0.297  -1.928   2.339  0.00  0.00    +0.050 C 
ATOM      6  C   LIG    1        1.026  -1.206   2.012  0.00  0.00    +0.200 C 
ATOM      7  N   LIG    1        0.859  -0.564   0.695  0.00  0.00    -0.510 NA
ATOM      8  C   LIG    1       -0.510  -0.836   0.209  0.00  0.00    +0.220 C 
BRANCH   7   9
ATOM      9  C   LIG    1        1.111   0.881   0.778  0.00  0.00    +0.220 C 
BRANCH   9  10
ATOM     10  C   LIG    1        2.579   1.123   1.019  0.00  0.00    -0.080 A 
ATOM     11  C   LIG    1        3.063   1.204   2.312  0.00  0.00    +0.010 A 
ATOM     12  C   LIG    1        4.410   1.420   2.533  0.00  0.00    +0.000 A 
ATOM     13  C   LIG    1        5.272   1.566   1.461  0.00  0.00    +0.000 A 
ATOM     14  C   LIG    1        4.787   1.490   0.169  0.00  0.00    +0.000 A 
ATOM     15  C   LIG    1        3.440   1.269  -0.052  0.00  0.00    +0.020 A 
ENDBRANCH   9  10
ENDBRANCH   7   9
ENDBRANCH   2   4
BRANCH   2  16
ATOM     16  N   LIG    1       -3.015  -3.483   2.125  0.00  0.00    -0.960 NA
BRANCH  16  17
ATOM     17  C   LIG    1       -3.152  -4.853   1.625  0.00  0.00    +0.210 C 
ATOM     18  C   LIG    1       -3.443  -5.953   2.647  0.00  0.00    +0.040 C 
ATOM     19  C   LIG    1       -2.059  -5.856   2.002  0.00  0.00    +0.020 C 
ENDBRANCH  16  17
BRANCH  16  20
ATOM     20  C   LIG    1       -3.115  -3.214   3.562  0.00  0.00    +0.340 C 
BRANCH  20  21
ATOM     21  C   LIG    1       -4.561  -3.021   3.937  0.00  0.00    -0.130 A 
ATOM     22  C   LIG    1       -5.153  -1.779   3.791  0.00  0.00    +0.080 A 
ATOM     23  C   LIG    1       -6.481  -1.602   4.130  0.00  0.00    -0.020 A 
ATOM     24  C   LIG    1       -7.216  -2.664   4.626  0.00  0.00    +0.100 A 
ATOM     25  C   LIG    1       -6.622  -3.906   4.777  0.00  0.00    -0.020 A 
ATOM     26  F   LIG    1       -8.513  -2.491   4.963  0.00  0.00    -0.140 F 
ATOM     27  C   LIG    1       -5.295  -4.083   4.432  0.00  0.00    +0.050 A 
ENDBRANCH  20  21
ENDBRANCH  16  20
ENDBRANCH   2  16
TORSDOF 7
