REMARK  Name = ZINCb80000004h00.0
REMARK                            x       y       z     vdW  Elec       q    Type
REMARK                         _______ _______ _______ _____ _____    ______ ____
ROOT
ATOM      1  C   LIG    1        0.002  -0.004   0.002  0.00  0.00    +0.080 C 
ATOM      2  C   LIG    1       -0.019   1.526   0.010  0.00  0.00    +0.070 C 
ENDROOT
BRANCH   1   3
ATOM      3  C   LIG    1       -1.412  -0.526   0.013  0.00  0.00    +0.100 A 
ATOM      4  N   LIG    1       -1.837  -1.603  -0.597  0.00  0.00    -0.290 NA
ATOM      5  N   LIG    1       -3.207  -1.739  -0.340  0.00  0.00    -0.470 N 
ATOM      6  H   LIG    1       -3.781  -2.449  -0.667  0.00  0.00    +0.440 HD
ATOM      7  C   LIG    1       -3.587  -0.708   0.443  0.00  0.00    +0.240 A 
ATOM      8  C   LIG    1       -2.495   0.055   0.681  0.00  0.00    -0.110 A 
ENDBRANCH   1   3
BRANCH   1  12
ATOM      9  C   LIG    1        2.727  -0.647   2.613  0.00  0.00    +0.290 C 
ATOM     10  N   LIG    1        2.019  -0.161   1.426  0.00  0.00    -0.740 N 
ATOM     11  H   LIG    1        2.476   0.406   0.786  0.00  0.00    +0.400 HD
ATOM     12  C   LIG    1        0.731  -0.503   1.223  0.00  0.00    +0.520 C 
ATOM     13  O   LIG    1        0.159  -1.213   2.023  0.00  0.00    -0.530 OA
ENDBRANCH   1  12
TORSDOF 2
