REMARK  Name = ZINCqH0000036HqM.0
REMARK                            x       y       z     vdW  Elec       q    Type
REMARK                         _______ _______ _______ _____ _____    ______ ____
ROOT
ATOM      1  N   LIG    1        5.469  -2.210  -2.824  0.00  0.00    -0.740 N 
ATOM      2  H   LIG    1        4.861  -2.006  -3.551  0.00  0.00    +0.400 HD
ATOM      3  C   LIG    1        5.176  -1.815  -1.569  0.00  0.00    +0.710 C 
ATOM      4  N   LIG    1        4.038  -1.136  -1.325  0.00  0.00    -0.740 N 
ATOM      5  H   LIG    1        3.429  -0.932  -2.052  0.00  0.00    +0.400 HD
ATOM      6  O   LIG    1        5.939  -2.071  -0.658  0.00  0.00    -0.580 OA
ENDROOT
BRANCH   1   8
ATOM      7  C   LIG    1        7.857  -1.960  -3.289  0.00  0.00    +0.040 C 
ATOM      8  C   LIG    1        6.706  -2.948  -3.090  0.00  0.00    +0.300 C 
BRANCH   8   9
ATOM      9  C   LIG    1        6.537  -3.781  -4.334  0.00  0.00    -0.090 A 
ATOM     10  C   LIG    1        5.854  -3.266  -5.421  0.00  0.00    +0.050 A 
ATOM     11  C   LIG    1        5.699  -4.022  -6.570  0.00  0.00    +0.030 A 
ATOM     12  C   LIG    1        6.216  -5.299  -6.635  0.00  0.00    +0.070 A 
ATOM     13  C   LIG    1        6.902  -5.827  -5.539  0.00  0.00    -0.020 A 
ATOM     14  C   LIG    1        7.060  -5.057  -4.385  0.00  0.00    +0.080 A 
BRANCH  13  15
ATOM     15  C   LIG    1        7.441  -7.152  -5.598  0.00  0.00    +0.250 C 
ATOM     16  N   LIG    1        7.868  -8.204  -5.646  0.00  0.00    -0.410 NA
ENDBRANCH  13  15
ENDBRANCH   8   9
ENDBRANCH   1   8
BRANCH   4  17
ATOM     17  C   LIG    1        3.719  -0.707   0.039  0.00  0.00    +0.350 C 
BRANCH  17  18
ATOM     18  C   LIG    1        2.403   0.027   0.040  0.00  0.00    -0.110 A 
ATOM     19  C   LIG    1        2.382   1.409   0.058  0.00  0.00    +0.030 A 
ATOM     20  C   LIG    1        1.175   2.085   0.060  0.00  0.00    +0.050 A 
ATOM     21  C   LIG    1       -0.013   1.380   0.044  0.00  0.00    -0.040 A 
ATOM     22  C   LIG    1        0.003  -0.006   0.025  0.00  0.00    +0.100 A 
ATOM     23  C   LIG    1        1.216  -0.684   0.024  0.00  0.00    +0.090 A 
ATOM     24  F   LIG    1        1.236  -2.034   0.007  0.00  0.00    -0.130 F 
BRANCH  22  25
ATOM     25  O   LIG    1       -1.165  -0.701   0.010  0.00  0.00    -0.280 OA
BRANCH  25  26
ATOM     26  C   LIG    1       -2.371   0.055   0.137  0.00  0.00    +0.120 C 
ATOM     27  C   LIG    1       -3.439  -0.475   1.096  0.00  0.00    +0.040 C 
ATOM     28  C   LIG    1       -3.655  -0.566  -0.417  0.00  0.00    +0.050 C 
ENDBRANCH  25  26
ENDBRANCH  22  25
ENDBRANCH  17  18
ENDBRANCH   4  17
TORSDOF 7
