REMARK  Name = ZINCrD00000l6wNj.0
REMARK                            x       y       z     vdW  Elec       q    Type
REMARK                         _______ _______ _______ _____ _____    ______ ____
ROOT
ATOM      1  C   LIG    1        1.412  -0.256   5.261  0.00  0.00    +0.020 C 
ATOM      2  C   LIG    1        2.527  -1.240   5.618  0.00  0.00    +0.180 C 
ENDROOT
BRANCH   2   3
ATOM      3  N   LIG    1        3.118  -1.779   4.386  0.00  0.00    -0.510 NA
ATOM      4  C   LIG    1        2.074  -2.231   3.456  0.00  0.00    +0.180 C 
ATOM      5  C   LIG    1        2.727  -2.948   2.269  0.00  0.00    +0.310 C 
ATOM      6  N   LIG    1        3.739  -2.055   1.683  0.00  0.00    -1.000 NA
ATOM      7  C   LIG    1        4.742  -1.458   2.578  0.00  0.00    +0.320 C 
ATOM      8  C   LIG    1        4.006  -0.795   3.753  0.00  0.00    +0.180 C 
BRANCH   6   9
ATOM      9  S   LIG    1        3.752  -1.737   0.058  0.00  0.00    +2.710 S 
ATOM     10  O   LIG    1        5.080  -1.346  -0.263  0.00  0.00    -0.950 OA
ATOM     11  O   LIG    1        3.089  -2.825  -0.569  0.00  0.00    -0.950 OA
BRANCH   9  12
ATOM     12  C   LIG    1        2.739  -0.319  -0.203  0.00  0.00    -0.800 A 
ATOM     13  C   LIG    1        3.165   0.945  -0.184  0.00  0.00    +0.160 A 
ATOM     14  C   LIG    1        2.185   1.894  -0.417  0.00  0.00    -0.010 A 
ATOM     15  C   LIG    1        0.963   1.401  -0.626  0.00  0.00    +0.000 A 
ATOM     16  S   LIG    1        1.011  -0.354  -0.531  0.00  0.00    +0.220 S 
ENDBRANCH   9  12
ENDBRANCH   6   9
ENDBRANCH   2   3
BRANCH   2  17
ATOM     17  C   LIG    1        1.957  -2.369   6.438  0.00  0.00    +0.520 C 
ATOM     18  N   LIG    1        1.616  -2.162   7.725  0.00  0.00    -0.670 N 
ATOM     19  H   LIG    1        1.680  -1.272   8.107  0.00  0.00    +0.420 HD
ATOM     20  O   LIG    1        1.806  -3.464   5.939  0.00  0.00    -0.490 OA
BRANCH  18  21
ATOM     21  C   LIG    1        1.170  -3.230   8.512  0.00  0.00    +0.170 A 
ATOM     22  C   LIG    1        0.526  -4.308   7.920  0.00  0.00    +0.060 A 
ATOM     23  C   LIG    1        0.090  -5.364   8.699  0.00  0.00    -0.010 A 
ATOM     24  C   LIG    1        0.287  -5.342  10.069  0.00  0.00    +0.030 A 
ATOM     25  C   LIG    1        0.923  -4.267  10.662  0.00  0.00    +0.070 A 
ATOM     26 CL   LIG    1       -0.710  -6.715   7.959  0.00  0.00    -0.050 Cl
ATOM     27  C   LIG    1        1.365  -3.211   9.888  0.00  0.00    -0.070 A 
ATOM     28 CL   LIG    1        2.164  -1.862  10.633  0.00  0.00    -0.060 Cl
ENDBRANCH  18  21
ENDBRANCH   2  17
TORSDOF 5
