REMARK  Name = ZINCqH0000051ahM.0
REMARK                            x       y       z     vdW  Elec       q    Type
REMARK                         _______ _______ _______ _____ _____    ______ ____
ROOT
ATOM      1  O   LIG    1        3.841  -6.426  -2.678  0.00  0.00    -0.330 OA
ENDROOT
BRANCH   1   2
ATOM      2  C   LIG    1        3.663  -5.789  -1.510  0.00  0.00    +0.470 C 
ATOM      3  O   LIG    1        3.844  -6.375  -0.469  0.00  0.00    -0.500 OA
BRANCH   2   4
ATOM      4  C   LIG    1        3.236  -4.344  -1.497  0.00  0.00    +0.120 C 
BRANCH   4   5
ATOM      5  C   LIG    1        3.106  -3.863  -0.050  0.00  0.00    +0.170 C 
BRANCH   5   6
ATOM      6  C   LIG    1        2.680  -2.418  -0.038  0.00  0.00    +0.090 A 
ATOM      7  N   LIG    1        1.462  -2.027  -0.024  0.00  0.00    -0.460 NA
ATOM      8  C   LIG    1        1.227  -0.701  -0.013  0.00  0.00    +0.080 A 
ATOM      9  C   LIG    1        0.002  -0.004   0.002  0.00  0.00    +0.080 A 
ATOM     10  C   LIG    1       -0.016   1.358   0.009  0.00  0.00    +0.030 A 
ATOM     11  C   LIG    1        1.166   2.084   0.002  0.00  0.00    +0.040 A 
ATOM     12  C   LIG    1        2.377   1.430  -0.013  0.00  0.00    +0.060 A 
ATOM     13  C   LIG    1        2.416   0.037  -0.021  0.00  0.00    -0.180 A 
ATOM     14  S   LIG    1        3.761  -1.098  -0.041  0.00  0.00    +0.110 S 
ENDBRANCH   5   6
ENDBRANCH   4   5
ENDBRANCH   2   4
ENDBRANCH   1   2
BRANCH   1  15
ATOM     15  C   LIG    1        4.252  -7.817  -2.614  0.00  0.00    +0.270 C 
BRANCH  15  17
ATOM     16  O   LIG    1        4.183  -7.647  -4.967  0.00  0.00    -0.510 OA
ATOM     17  C   LIG    1        4.401  -8.362  -4.011  0.00  0.00    +0.520 C 
ATOM     18  N   LIG    1        4.778  -9.642  -4.199  0.00  0.00    -0.720 N 
ATOM     19  H   LIG    1        4.952 -10.213  -3.435  0.00  0.00    +0.410 HD
BRANCH  18  20
ATOM     20  C   LIG    1        4.923 -10.171  -5.558  0.00  0.00    +0.320 C 
BRANCH  20  21
ATOM     21  C   LIG    1        5.349 -11.615  -5.491  0.00  0.00    -0.100 A 
ATOM     22  C   LIG    1        6.693 -11.939  -5.476  0.00  0.00    +0.040 A 
ATOM     23  C   LIG    1        7.085 -13.263  -5.410  0.00  0.00    +0.030 A 
ATOM     24  C   LIG    1        6.134 -14.264  -5.370  0.00  0.00    +0.040 A 
ATOM     25  C   LIG    1        4.788 -13.941  -5.391  0.00  0.00    -0.040 A 
ATOM     26 CL   LIG    1        3.593 -15.199  -5.340  0.00  0.00    -0.060 Cl
ATOM     27  C   LIG    1        4.397 -12.616  -5.452  0.00  0.00    +0.050 A 
ENDBRANCH  20  21
ENDBRANCH  18  20
ENDBRANCH  15  17
ENDBRANCH   1  15
TORSDOF 8
