REMARK  Name = ZINCqH0000051tP3.0
REMARK                            x       y       z     vdW  Elec       q    Type
REMARK                         _______ _______ _______ _____ _____    ______ ____
ROOT
ATOM      1  O   LIG    1       -0.679  -4.207  -1.194  0.00  0.00    -0.550 OA
ATOM      2  C   LIG    1       -1.620  -4.775  -0.672  0.00  0.00    +0.700 C 
ATOM      3  N   LIG    1       -1.736  -6.114  -0.767  0.00  0.00    -0.680 N 
ATOM      4  H   LIG    1       -2.519  -6.559  -0.407  0.00  0.00    +0.410 HD
ATOM      5  N   LIG    1       -2.546  -4.064   0.002  0.00  0.00    -0.680 N 
ATOM      6  H   LIG    1       -3.259  -4.521   0.474  0.00  0.00    +0.410 HD
ENDROOT
BRANCH   3   7
ATOM      7  C   LIG    1       -0.726  -6.863  -1.385  0.00  0.00    +0.140 A 
ATOM      8  C   LIG    1       -0.430  -8.103  -0.906  0.00  0.00    +0.050 A 
ATOM      9  C   LIG    1        0.586  -8.862  -1.525  0.00  0.00    -0.190 A 
ATOM     10  C   LIG    1        1.133 -10.114  -1.311  0.00  0.00    +0.270 A 
ATOM     11  N   LIG    1        2.089 -10.309  -2.230  0.00  0.00    -0.430 N 
ATOM     12  H   LIG    1        2.634 -11.108  -2.307  0.00  0.00    +0.440 HD
ATOM     13  N   LIG    1        2.186  -9.188  -3.062  0.00  0.00    -0.300 NA
ATOM     14  C   LIG    1        1.299  -8.288  -2.676  0.00  0.00    +0.100 A 
ATOM     15  C   LIG    1        0.940  -6.997  -3.119  0.00  0.00    +0.040 A 
ATOM     16  C   LIG    1       -0.049  -6.320  -2.486  0.00  0.00    +0.080 A 
ENDBRANCH   3   7
BRANCH   5  17
ATOM     17  C   LIG    1       -2.478  -2.666   0.021  0.00  0.00    +0.200 A 
ATOM     18  C   LIG    1       -3.645  -1.914   0.022  0.00  0.00    -0.050 A 
ATOM     19  C   LIG    1       -3.579  -0.534   0.041  0.00  0.00    +0.070 A 
ATOM     20  C   LIG    1       -2.351   0.101   0.063  0.00  0.00    -0.100 A 
ATOM     21  C   LIG    1       -1.182  -0.646   0.056  0.00  0.00    +0.150 A 
ATOM     22  C   LIG    1       -1.244  -2.031   0.037  0.00  0.00    +0.000 A 
BRANCH  21  23
ATOM     23  O   LIG    1        0.025  -0.021   0.073  0.00  0.00    -0.300 OA
BRANCH  23  24
ATOM     24  C   LIG    1        0.014   1.408   0.092  0.00  0.00    +0.220 C 
BRANCH  24  25
ATOM     25  C   LIG    1        1.453   1.928   0.109  0.00  0.00    +0.160 C 
ATOM     26  C   LIG    1        1.467   3.466   0.256  0.00  0.00    +0.010 C 
ATOM     27  C   LIG    1        2.644   3.918  -0.638  0.00  0.00    +0.000 C 
ATOM     28  C   LIG    1        3.202   2.599  -1.219  0.00  0.00    +0.190 C 
ATOM     29  O   LIG    1        2.096   1.673  -1.159  0.00  0.00    -0.360 OA
ENDBRANCH  24  25
ENDBRANCH  23  24
ENDBRANCH  21  23
ENDBRANCH   5  17
TORSDOF 5
