REMARK  Name = ZINCvU00000006d3.0
REMARK                            x       y       z     vdW  Elec       q    Type
REMARK                         _______ _______ _______ _____ _____    ______ ____
ROOT
ATOM      1  C   LIG    1       -2.959   0.097  -4.970  0.00  0.00    +0.180 C 
ATOM      2  C   LIG    1       -1.977  -0.546  -4.026  0.00  0.00    +0.130 A 
ATOM      3  C   LIG    1       -1.499  -0.016  -2.861  0.00  0.00    -0.100 A 
ATOM      4  N   LIG    1       -0.641  -0.893  -2.314  0.00  0.00    -0.190 NA
ATOM      5  N   LIG    1       -0.560  -1.940  -3.059  0.00  0.00    -0.060 NA
ATOM      6  N   LIG    1       -1.397  -1.758  -4.169  0.00  0.00    -0.310 N 
ENDROOT
BRANCH   3   7
ATOM      7  C   LIG    1       -1.861   1.300  -2.301  0.00  0.00    +0.630 C 
ATOM      8  N   LIG    1       -1.317   1.710  -1.137  0.00  0.00    -0.590 N 
ATOM      9  C   LIG    1       -0.434   0.907  -0.272  0.00  0.00    +0.260 C 
ATOM     10  C   LIG    1       -0.591   1.524   1.140  0.00  0.00    +0.040 C 
ATOM     11  C   LIG    1       -0.720   3.035   0.806  0.00  0.00    +0.040 C 
ATOM     12  C   LIG    1       -1.507   3.031  -0.521  0.00  0.00    +0.170 C 
ATOM     13  C   LIG    1       -2.993   3.268  -0.246  0.00  0.00    +0.050 C 
ATOM     14  O   LIG    1       -2.649   2.016  -2.889  0.00  0.00    -0.530 OA
BRANCH  12  15
ATOM     15  C   LIG    1       -0.967   4.121  -1.450  0.00  0.00    +0.130 C 
BRANCH  15  16
ATOM     16  C   LIG    1        0.466   3.815  -1.803  0.00  0.00    -0.160 A 
ATOM     17  C   LIG    1        0.864   3.135  -2.879  0.00  0.00    +0.020 A 
ATOM     18  C   LIG    1        2.235   2.981  -2.998  0.00  0.00    +0.030 A 
ATOM     19  C   LIG    1        2.949   3.528  -2.011  0.00  0.00    -0.150 A 
ATOM     20 CL   LIG    1        4.680   3.488  -1.888  0.00  0.00    -0.020 Cl
ATOM     21  S   LIG    1        1.868   4.293  -0.855  0.00  0.00    +0.150 S 
ENDBRANCH  15  16
ENDBRANCH  12  15
ENDBRANCH   3   7
BRANCH   6  22
ATOM     22  C   LIG    1       -1.595  -2.660  -5.226  0.00  0.00    +0.080 A 
ATOM     23  C   LIG    1       -1.714  -4.018  -4.965  0.00  0.00    +0.090 A 
ATOM     24  C   LIG    1       -1.915  -4.905  -6.005  0.00  0.00    +0.010 A 
ATOM     25  C   LIG    1       -1.984  -4.440  -7.310  0.00  0.00    +0.150 A 
ATOM     26  C   LIG    1       -1.858  -3.083  -7.571  0.00  0.00    -0.060 A 
ATOM     27  C   LIG    1       -1.664  -2.195  -6.532  0.00  0.00    +0.070 A 
BRANCH  25  28
ATOM     28  O   LIG    1       -2.175  -5.314  -8.333  0.00  0.00    -0.300 OA
BRANCH  28  29
ATOM     29  C   LIG    1       -2.120  -4.783  -9.659  0.00  0.00    +0.150 C 
ATOM     30  C   LIG    1       -3.491  -4.221 -10.041  0.00  0.00    +0.030 C 
ATOM     31  C   LIG    1       -1.734  -5.894 -10.637  0.00  0.00    +0.070 C 
ENDBRANCH  28  29
ENDBRANCH  25  28
ENDBRANCH   6  22
TORSDOF 6
