REMARK  Name = ZINCpe000000Zyw3.0
REMARK                            x       y       z     vdW  Elec       q    Type
REMARK                         _______ _______ _______ _____ _____    ______ ____
ROOT
ATOM      1  C   LIG    1       -2.830   2.998   0.104  0.00  0.00    +0.530 C 
ATOM      2  N   LIG    1       -3.704   1.974   0.034  0.00  0.00    -0.720 N 
ATOM      3  H   LIG    1       -3.380   1.065  -0.066  0.00  0.00    +0.400 HD
ATOM      4  O   LIG    1       -3.235   4.134   0.229  0.00  0.00    -0.530 OA
ENDROOT
BRANCH   1   5
ATOM      5  C   LIG    1       -1.349   2.730   0.028  0.00  0.00    -0.090 C 
ATOM      6  C   LIG    1       -0.931   1.921  -1.211  0.00  0.00    +0.040 C 
ATOM      7  C   LIG    1        0.044   1.166  -0.292  0.00  0.00    +0.020 C 
ATOM      8  C   LIG    1       -0.894   1.525   0.872  0.00  0.00    +0.040 C 
BRANCH   5  13
ATOM      9  O   LIG    1        2.144   6.952  -0.155  0.00  0.00    -0.560 OA
ATOM     10  C   LIG    1        1.398   5.997  -0.112  0.00  0.00    +0.520 C 
ATOM     11  C   LIG    1        1.767   4.845   0.778  0.00  0.00    +0.060 C 
ATOM     12  C   LIG    1        0.973   3.600   0.376  0.00  0.00    +0.040 C 
ATOM     13  C   LIG    1       -0.506   3.987   0.251  0.00  0.00    +0.030 C 
ATOM     14  C   LIG    1       -0.666   4.931  -0.941  0.00  0.00    +0.270 C 
ATOM     15  N   LIG    1        0.293   6.025  -0.859  0.00  0.00    -0.720 N 
ATOM     16  H   LIG    1        0.117   6.824  -1.379  0.00  0.00    +0.400 HD
ENDBRANCH   5  13
ENDBRANCH   1   5
BRANCH   2  17
ATOM     17  C   LIG    1       -5.144   2.234   0.107  0.00  0.00    +0.390 C 
BRANCH  17  18
ATOM     18  C   LIG    1       -5.895   0.932   0.005  0.00  0.00    +0.300 A 
ATOM     19  N   LIG    1       -6.177   0.266   1.107  0.00  0.00    -0.500 NA
ATOM     20  C   LIG    1       -6.833  -0.882   1.056  0.00  0.00    +0.340 A 
ATOM     21  C   LIG    1       -7.224  -1.379  -0.179  0.00  0.00    -0.220 A 
ATOM     22  C   LIG    1       -7.961  -2.687  -0.256  0.00  0.00    +0.310 C 
ATOM     23  O   LIG    1       -8.578  -2.829  -1.536  0.00  0.00    -0.370 OA
ATOM     24  C   LIG    1       -7.674  -2.615  -2.626  0.00  0.00    +0.230 C 
ATOM     25  C   LIG    1       -7.320  -1.127  -2.681  0.00  0.00    +0.090 C 
ATOM     26  C   LIG    1       -6.915  -0.651  -1.311  0.00  0.00    +0.190 A 
ATOM     27  N   LIG    1       -6.258   0.492  -1.183  0.00  0.00    -0.500 NA
ENDBRANCH  17  18
ENDBRANCH   2  17
TORSDOF 4
