REMARK  Name = ZINCqH0000038jsQ.0
REMARK                            x       y       z     vdW  Elec       q    Type
REMARK                         _______ _______ _______ _____ _____    ______ ____
ROOT
ATOM      1  N   LIG    1        0.845  -4.030  -1.681  0.00  0.00    -0.670 N 
ATOM      2  H   LIG    1        0.294  -4.441  -0.997  0.00  0.00    +0.410 HD
ATOM      3  C   LIG    1        1.689  -3.031  -1.358  0.00  0.00    +0.500 C 
ATOM      4  O   LIG    1        2.425  -2.562  -2.200  0.00  0.00    -0.500 OA
ENDROOT
BRANCH   1  11
ATOM      5  C   LIG    1        0.386  -2.102  -3.724  0.00  0.00    +0.080 C 
ATOM      6  C   LIG    1        0.541  -3.569  -4.033  0.00  0.00    -0.070 A 
ATOM      7  C   LIG    1        0.467  -4.011  -5.339  0.00  0.00    +0.020 A 
ATOM      8  C   LIG    1        0.604  -5.358  -5.623  0.00  0.00    +0.020 A 
ATOM      9  C   LIG    1        0.819  -6.264  -4.602  0.00  0.00    +0.020 A 
ATOM     10  C   LIG    1        0.900  -5.828  -3.294  0.00  0.00    -0.080 A 
ATOM     11  C   LIG    1        0.764  -4.476  -3.005  0.00  0.00    +0.140 A 
BRANCH  10  12
ATOM     12  C   LIG    1        1.135  -6.817  -2.181  0.00  0.00    +0.010 C 
ATOM     13  C   LIG    1        2.465  -7.537  -2.412  0.00  0.00    +0.040 C 
ATOM     14  C   LIG    1       -0.003  -7.840  -2.160  0.00  0.00    +0.040 C 
ENDBRANCH  10  12
ENDBRANCH   1  11
BRANCH   3  15
ATOM     15  C   LIG    1        1.717  -2.495   0.051  0.00  0.00    +0.340 C 
BRANCH  15  16
ATOM     16  N   LIG    1        2.710  -1.422   0.145  0.00  0.00    -0.530 N 
ATOM     17  C   LIG    1        2.338  -0.138  -0.096  0.00  0.00    +0.580 A 
ATOM     18  N   LIG    1        3.157   0.867  -0.033  0.00  0.00    -0.510 NA
ATOM     19  C   LIG    1        4.466   0.699   0.284  0.00  0.00    +0.150 A 
ATOM     20  C   LIG    1        5.348   1.779   0.351  0.00  0.00    -0.070 A 
ATOM     21  C   LIG    1        6.668   1.562   0.676  0.00  0.00    +0.060 A 
ATOM     22  C   LIG    1        7.135   0.281   0.937  0.00  0.00    +0.000 A 
ATOM     23  C   LIG    1        6.284  -0.801   0.877  0.00  0.00    +0.090 A 
ATOM     24  C   LIG    1        4.857   3.176   0.070  0.00  0.00    +0.110 C 
ATOM     25  C   LIG    1        4.944  -0.603   0.550  0.00  0.00    -0.190 A 
ATOM     26  C   LIG    1        3.990  -1.719   0.470  0.00  0.00    +0.560 A 
ATOM     27  O   LIG    1        4.337  -2.865   0.688  0.00  0.00    -0.510 OA
ENDBRANCH  15  16
ENDBRANCH   3  15
TORSDOF 4
