REMARK  Name = ZINCvU0000000B0U.0
REMARK                            x       y       z     vdW  Elec       q    Type
REMARK                         _______ _______ _______ _____ _____    ______ ____
ROOT
ATOM      1  O   LIG    1        5.250   4.792   2.659  0.00  0.00    -0.460 OA
ATOM      2  C   LIG    1        5.123   4.492   1.490  0.00  0.00    +0.530 C 
ATOM      3  N   LIG    1        3.895   4.271   0.981  0.00  0.00    -0.640 N 
ATOM      4  H   LIG    1        3.793   4.032   0.047  0.00  0.00    +0.420 HD
ENDROOT
BRANCH   3   5
ATOM      5  C   LIG    1        2.762   4.389   1.803  0.00  0.00    +0.320 A 
ATOM      6  C   LIG    1        1.525   4.082   1.386  0.00  0.00    -0.260 A 
ATOM      7  S   LIG    1        0.415   4.365   2.724  0.00  0.00    +0.250 S 
ATOM      8  C   LIG    1        1.715   4.875   3.709  0.00  0.00    +0.030 A 
ATOM      9 BR   LIG    1        1.551   5.445   5.505  0.00  0.00    +0.070 Br
ATOM     10  N   LIG    1        2.825   4.816   3.052  0.00  0.00    -0.420 NA
BRANCH   6  11
ATOM     11  C   LIG    1        1.152   3.576   0.016  0.00  0.00    +0.210 C 
BRANCH  11  12
ATOM     12  C   LIG    1        0.936   4.746  -0.909  0.00  0.00    -0.060 A 
ATOM     13  C   LIG    1        1.972   5.202  -1.700  0.00  0.00    +0.040 A 
ATOM     14  C   LIG    1        1.774   6.276  -2.550  0.00  0.00    -0.030 A 
ATOM     15  C   LIG    1        0.536   6.893  -2.607  0.00  0.00    +0.050 A 
ATOM     16  C   LIG    1       -0.501   6.436  -1.816  0.00  0.00    +0.060 A 
ATOM     17 CL   LIG    1        3.076   6.850  -3.543  0.00  0.00    -0.050 Cl
ATOM     18  C   LIG    1       -0.302   5.362  -0.967  0.00  0.00    -0.030 A 
ATOM     19 CL   LIG    1       -1.604   4.789   0.028  0.00  0.00    -0.050 Cl
ENDBRANCH  11  12
ENDBRANCH   6  11
ENDBRANCH   3   5
BRANCH   2  20
ATOM     20  C   LIG    1        6.338   4.365   0.608  0.00  0.00    +0.110 C 
BRANCH  20  21
ATOM     21  S   LIG    1        7.826   4.719   1.576  0.00  0.00    +0.140 S 
BRANCH  21  22
ATOM     22  C   LIG    1        9.057   4.504   0.334  0.00  0.00    +0.200 A 
ATOM     23  N   LIG    1        8.852   4.170  -0.922  0.00  0.00    -0.330 NA
ATOM     24  N   LIG    1        9.965   4.103  -1.558  0.00  0.00    -0.020 NA
ATOM     25  N   LIG    1       10.950   4.374  -0.770  0.00  0.00    -0.070 NA
ATOM     26  N   LIG    1       10.397   4.646   0.493  0.00  0.00    -0.310 N 
BRANCH  26  27
ATOM     27  C   LIG    1       11.084   4.990   1.667  0.00  0.00    +0.120 A 
ATOM     28  C   LIG    1       10.521   5.887   2.564  0.00  0.00    +0.030 A 
ATOM     29  C   LIG    1       11.197   6.220   3.722  0.00  0.00    +0.050 A 
ATOM     30  C   LIG    1       12.438   5.669   3.982  0.00  0.00    +0.040 A 
ATOM     31  C   LIG    1       13.004   4.779   3.087  0.00  0.00    +0.040 A 
ATOM     32  C   LIG    1       12.330   4.438   1.931  0.00  0.00    +0.050 A 
ENDBRANCH  26  27
ENDBRANCH  21  22
ENDBRANCH  20  21
ENDBRANCH   2  20
TORSDOF 7
