REMARK  Name = ZINCtV000002PFVe.0
REMARK                            x       y       z     vdW  Elec       q    Type
REMARK                         _______ _______ _______ _____ _____    ______ ____
ROOT
ATOM      1  C   LIG    1       -7.215   4.951   1.468  0.00  0.00    +0.160 A 
ATOM      2  N   LIG    1       -7.432   5.649   0.375  0.00  0.00    -0.280 NA
ATOM      3  N   LIG    1       -8.461   6.403   0.530  0.00  0.00    -0.260 NA
ATOM      4  C   LIG    1       -8.964   6.234   1.730  0.00  0.00    +0.220 A 
ATOM      5  N   LIG    1       -8.185   5.295   2.366  0.00  0.00    -0.450 N 
ENDROOT
BRANCH   4   6
ATOM      6  C   LIG    1      -10.148   6.918   2.291  0.00  0.00    -0.000 A 
ATOM      7  C   LIG    1      -11.197   7.304   1.454  0.00  0.00    +0.080 A 
ATOM      8  C   LIG    1      -12.301   7.938   1.984  0.00  0.00    +0.050 A 
ATOM      9  C   LIG    1      -12.366   8.202   3.342  0.00  0.00    -0.080 A 
ATOM     10  C   LIG    1      -11.327   7.827   4.176  0.00  0.00    +0.050 A 
ATOM     11 BR   LIG    1      -13.880   9.079   4.059  0.00  0.00    -0.040 Br
ATOM     12  C   LIG    1      -10.220   7.187   3.659  0.00  0.00    +0.030 A 
ENDBRANCH   4   6
BRANCH   5  13
ATOM     13  C   LIG    1       -8.358   4.773   3.724  0.00  0.00    +0.240 C 
ATOM     14  C   LIG    1       -7.168   5.195   4.588  0.00  0.00    +0.010 C 
ATOM     15  C   LIG    1       -7.349   4.651   6.006  0.00  0.00    +0.040 C 
ATOM     16  C   LIG    1       -7.430   3.124   5.960  0.00  0.00    +0.010 C 
ATOM     17  C   LIG    1       -8.620   2.702   5.096  0.00  0.00    +0.040 C 
ATOM     18  C   LIG    1       -8.439   3.246   3.678  0.00  0.00    +0.020 C 
ENDBRANCH   5  13
BRANCH   1  19
ATOM     19  S   LIG    1       -5.919   3.786   1.724  0.00  0.00    +0.030 S 
BRANCH  19  20
ATOM     20  C   LIG    1       -5.086   3.884   0.120  0.00  0.00    +0.150 C 
BRANCH  20  24
ATOM     21  C   LIG    1       -1.750   1.217   0.081  0.00  0.00    -0.040 A 
ATOM     22  C   LIG    1       -1.587   2.521   0.511  0.00  0.00    +0.110 A 
ATOM     23  C   LIG    1       -2.666   3.385   0.518  0.00  0.00    +0.050 A 
ATOM     24  C   LIG    1       -3.909   2.943   0.106  0.00  0.00    -0.030 A 
ATOM     25  C   LIG    1       -4.073   1.638  -0.318  0.00  0.00    +0.050 A 
ATOM     26  C   LIG    1       -2.993   0.775  -0.331  0.00  0.00    +0.110 A 
BRANCH  21  28
ATOM     27  O   LIG    1       -0.738  -0.858  -0.305  0.00  0.00    -0.150 OA
ATOM     28  N   LIG    1       -0.594   0.293   0.069  0.00  0.00    +0.020 N 
ATOM     29  O   LIG    1        0.503   0.684   0.427  0.00  0.00    -0.150 OA
ENDBRANCH  21  28
ENDBRANCH  20  24
ENDBRANCH  19  20
ENDBRANCH   1  19
TORSDOF 6
