REMARK  Name = ZINCpk00000xXC8n.0
REMARK                            x       y       z     vdW  Elec       q    Type
REMARK                         _______ _______ _______ _____ _____    ______ ____
ROOT
ATOM      1  O   LIG    1       -1.314  -0.466   0.600  0.00  0.00    -0.560 OA
ATOM      2  C   LIG    1       -0.220   0.059   0.515  0.00  0.00    +0.710 C 
ATOM      3  N   LIG    1       -0.120   1.357   0.167  0.00  0.00    -0.630 N 
ATOM      4  C   LIG    1        1.185   2.035   0.140  0.00  0.00    +0.250 C 
ATOM      5  C   LIG    1        1.335   2.743  -1.212  0.00  0.00    +0.210 C 
ATOM      6  O   LIG    1        0.188   3.564  -1.443  0.00  0.00    -0.370 OA
ATOM      7  C   LIG    1       -1.041   2.839  -1.534  0.00  0.00    +0.240 C 
ATOM      8  C   LIG    1       -1.312   2.136  -0.204  0.00  0.00    +0.340 C 
ATOM      9  N   LIG    1        0.893  -0.659   0.768  0.00  0.00    -0.750 N 
ATOM     10  H   LIG    1        1.760  -0.224   0.774  0.00  0.00    +0.390 HD
ENDROOT
BRANCH   8  11
ATOM     11  C   LIG    1       -2.495   1.214  -0.350  0.00  0.00    +0.240 A 
ATOM     12  N   LIG    1       -2.562   0.186  -1.156  0.00  0.00    -0.280 NA
ATOM     13  N   LIG    1       -3.829  -0.390  -0.973  0.00  0.00    -0.470 N 
ATOM     14  H   LIG    1       -4.183  -1.172  -1.426  0.00  0.00    +0.440 HD
ATOM     15  C   LIG    1       -4.457   0.359  -0.050  0.00  0.00    +0.480 A 
ATOM     16  N   LIG    1       -3.645   1.317   0.315  0.00  0.00    -0.540 NA
ENDBRANCH   8  11
BRANCH   9  17
ATOM     17  C   LIG    1        0.793  -2.096   1.034  0.00  0.00    +0.290 C 
BRANCH  17  18
ATOM     18  C   LIG    1        2.171  -2.641   1.414  0.00  0.00    +0.040 C 
ATOM     19  C   LIG    1        2.634  -1.991   2.720  0.00  0.00    +0.000 C 
ATOM     20  C   LIG    1        3.861  -2.756   3.232  0.00  0.00    +0.240 C 
ATOM     21  O   LIG    1        3.457  -4.085   3.560  0.00  0.00    -0.310 OA
ATOM     22  C   LIG    1        2.729  -4.773   2.642  0.00  0.00    +0.140 A 
ATOM     23  C   LIG    1        2.632  -6.155   2.771  0.00  0.00    -0.020 A 
ATOM     24  C   LIG    1        1.896  -6.888   1.863  0.00  0.00    +0.050 A 
ATOM     25  C   LIG    1        1.252  -6.248   0.820  0.00  0.00    -0.020 A 
ATOM     26  C   LIG    1        1.348  -4.876   0.687  0.00  0.00    +0.050 A 
ATOM     27  C   LIG    1        2.087  -4.136   1.595  0.00  0.00    -0.160 A 
ENDBRANCH  17  18
ENDBRANCH   9  17
TORSDOF 3
