REMARK  Name = ZINCpk00000xXC8n.1
REMARK                            x       y       z     vdW  Elec       q    Type
REMARK                         _______ _______ _______ _____ _____    ______ ____
ROOT
ATOM      1  O   LIG    1        6.131   1.777  -1.803  0.00  0.00    -0.540 OA
ATOM      2  C   LIG    1        5.551   1.424  -0.794  0.00  0.00    +0.710 C 
ATOM      3  N   LIG    1        5.500   0.117  -0.469  0.00  0.00    -0.630 N 
ATOM      4  C   LIG    1        4.939  -0.321   0.819  0.00  0.00    +0.250 C 
ATOM      5  C   LIG    1        3.907  -1.422   0.548  0.00  0.00    +0.210 C 
ATOM      6  O   LIG    1        4.503  -2.437  -0.263  0.00  0.00    -0.370 OA
ATOM      7  C   LIG    1        4.917  -1.985  -1.555  0.00  0.00    +0.240 C 
ATOM      8  C   LIG    1        5.996  -0.914  -1.394  0.00  0.00    +0.330 C 
ATOM      9  N   LIG    1        4.961   2.340  -0.001  0.00  0.00    -0.750 N 
ATOM     10  H   LIG    1        4.567   2.068   0.843  0.00  0.00    +0.390 HD
ENDROOT
BRANCH   8  11
ATOM     11  C   LIG    1        6.295  -0.292  -2.734  0.00  0.00    +0.160 A 
ATOM     12  N   LIG    1        5.578   0.611  -3.345  0.00  0.00    -0.210 NA
ATOM     13  N   LIG    1        6.131   0.917  -4.465  0.00  0.00    -0.290 NA
ATOM     14  C   LIG    1        7.220   0.216  -4.624  0.00  0.00    +0.370 A 
ATOM     15  N   LIG    1        7.356  -0.571  -3.529  0.00  0.00    -0.580 N 
ATOM     16  H   LIG    1        8.068  -1.206  -3.352  0.00  0.00    +0.420 HD
ENDBRANCH   8  11
BRANCH   9  17
ATOM     17  C   LIG    1        4.914   3.745  -0.413  0.00  0.00    +0.290 C 
BRANCH  17  18
ATOM     18  C   LIG    1        4.309   4.586   0.712  0.00  0.00    +0.040 C 
ATOM     19  C   LIG    1        5.205   4.503   1.950  0.00  0.00    +0.010 C 
ATOM     20  C   LIG    1        4.747   5.572   2.950  0.00  0.00    +0.240 C 
ATOM     21  O   LIG    1        4.972   6.857   2.369  0.00  0.00    -0.320 OA
ATOM     22  C   LIG    1        4.525   7.069   1.104  0.00  0.00    +0.140 A 
ATOM     23  C   LIG    1        4.398   8.380   0.655  0.00  0.00    -0.020 A 
ATOM     24  C   LIG    1        3.957   8.635  -0.628  0.00  0.00    +0.050 A 
ATOM     25  C   LIG    1        3.629   7.586  -1.466  0.00  0.00    -0.020 A 
ATOM     26  C   LIG    1        3.753   6.283  -1.024  0.00  0.00    +0.050 A 
ATOM     27  C   LIG    1        4.198   6.021   0.261  0.00  0.00    -0.160 A 
ENDBRANCH  17  18
ENDBRANCH   9  17
TORSDOF 3
