REMARK  Name = ZINCrg000000rtv7.0
REMARK                            x       y       z     vdW  Elec       q    Type
REMARK                         _______ _______ _______ _____ _____    ______ ____
ROOT
ATOM      1  C   LIG    1       -0.529  -0.522   0.831  0.00  0.00    +0.050 C 
ATOM      2  C   LIG    1        0.083   0.006  -0.468  0.00  0.00    +0.280 C 
ATOM      3  N   LIG    1        1.480  -0.440  -0.576  0.00  0.00    -0.740 N 
ATOM      4  H   LIG    1        1.724  -1.180  -1.153  0.00  0.00    +0.420 HD
ATOM      5  C   LIG    1        2.447   0.233   0.177  0.00  0.00    +0.330 C 
ATOM      6  N   LIG    1        2.277   1.496   0.456  0.00  0.00    -0.270 NA
ATOM      7  N   LIG    1        1.147   2.184   0.003  0.00  0.00    -0.390 N 
ATOM      8  C   LIG    1        0.071   1.516  -0.460  0.00  0.00    +0.490 C 
ATOM      9  O   LIG    1       -0.896   2.123  -0.871  0.00  0.00    -0.500 OA
ENDROOT
BRANCH   7  10
ATOM     10  C   LIG    1        1.133   3.583   0.030  0.00  0.00    +0.150 A 
ATOM     11  C   LIG    1        0.043   4.258   0.565  0.00  0.00    +0.030 A 
ATOM     12  C   LIG    1        0.034   5.639   0.595  0.00  0.00    +0.030 A 
ATOM     13  C   LIG    1        1.105   6.350   0.083  0.00  0.00    +0.010 A 
ATOM     14  C   LIG    1        2.189   5.681  -0.455  0.00  0.00    +0.020 A 
ATOM     15  C   LIG    1        2.206   4.301  -0.483  0.00  0.00    +0.020 A 
ENDBRANCH   7  10
BRANCH   5  16
ATOM     16  C   LIG    1        3.648  -0.478   0.651  0.00  0.00    +0.590 C 
ATOM     17  N   LIG    1        4.577   0.177   1.377  0.00  0.00    -0.690 N 
ATOM     18  H   LIG    1        4.455   1.116   1.587  0.00  0.00    +0.410 HD
ATOM     19  O   LIG    1        3.802  -1.655   0.388  0.00  0.00    -0.510 OA
BRANCH  17  20
ATOM     20  C   LIG    1        5.771  -0.529   1.848  0.00  0.00    +0.300 C 
ATOM     21  C   LIG    1        6.862  -0.474   0.800  0.00  0.00    -0.110 A 
ATOM     22  C   LIG    1        7.025  -1.203  -0.365  0.00  0.00    +0.050 A 
ATOM     23  C   LIG    1        8.117  -0.977  -1.180  0.00  0.00    +0.010 A 
ATOM     24  C   LIG    1        9.050  -0.018  -0.832  0.00  0.00    +0.020 A 
ATOM     25  C   LIG    1        8.889   0.711   0.331  0.00  0.00    +0.010 A 
ATOM     26  C   LIG    1        7.795   0.485   1.149  0.00  0.00    -0.080 A 
ATOM     27  C   LIG    1        7.395   1.139   2.454  0.00  0.00    +0.060 C 
ATOM     28  C   LIG    1        6.359   0.180   3.086  0.00  0.00    +0.180 C 
BRANCH  28  29
ATOM     29  O   LIG    1        6.998  -0.758   3.954  0.00  0.00    -0.550 OA
ATOM     30  H   LIG    1        7.384  -0.361   4.746  0.00  0.00    +0.390 HD
ENDBRANCH  28  29
ENDBRANCH  17  20
ENDBRANCH   5  16
TORSDOF 4
