REMARK  Name = ZINCpk00000xIbud.0
REMARK                            x       y       z     vdW  Elec       q    Type
REMARK                         _______ _______ _______ _____ _____    ______ ____
ROOT
ATOM      1  C   LIG    1       -1.503  -5.638   1.154  0.00  0.00    +0.150 C 
ATOM      2  N   LIG    1       -1.840  -5.574  -0.089  0.00  0.00    -0.180 NA
ATOM      3  N   LIG    1       -0.978  -4.811  -0.874  0.00  0.00    -0.850 N 
ATOM      4  C   LIG    1        0.100  -4.285  -0.023  0.00  0.00    +0.270 C 
ATOM      5  C   LIG    1       -0.238  -4.839   1.375  0.00  0.00    +0.100 C 
ENDROOT
BRANCH   4   6
ATOM      6  C   LIG    1        0.082  -2.778  -0.015  0.00  0.00    -0.080 A 
ATOM      7  C   LIG    1        1.257  -2.093  -0.022  0.00  0.00    +0.080 A 
ATOM      8  C   LIG    1        1.245  -0.687  -0.013  0.00  0.00    +0.080 A 
ATOM      9  N   LIG    1        2.383   0.014  -0.021  0.00  0.00    -0.420 NA
ATOM     10  C   LIG    1        2.340   1.327  -0.013  0.00  0.00    +0.260 A 
ATOM     11  C   LIG    1        1.116   1.999   0.002  0.00  0.00    +0.260 A 
ATOM     12  N   LIG    1       -0.016   1.333   0.009  0.00  0.00    -0.420 NA
ATOM     13  C   LIG    1        0.002  -0.004   0.002  0.00  0.00    +0.080 A 
ATOM     14  C   LIG    1       -1.192  -0.747   0.009  0.00  0.00    +0.070 A 
ATOM     15  C   LIG    1       -1.140  -2.106   0.001  0.00  0.00    +0.040 A 
ENDBRANCH   4   6
BRANCH   1  21
ATOM     16  C   LIG    1       -0.743  -5.827   4.156  0.00  0.00    +0.360 C 
ATOM     17  N   LIG    1       -1.901  -6.457   3.516  0.00  0.00    -0.360 N 
ATOM     18  N   LIG    1       -2.864  -7.252   4.150  0.00  0.00    -0.270 NA
ATOM     19  C   LIG    1       -3.745  -7.637   3.262  0.00  0.00    +0.230 A 
ATOM     20  C   LIG    1       -3.393  -7.105   2.022  0.00  0.00    -0.050 A 
ATOM     21  C   LIG    1       -2.235  -6.373   2.195  0.00  0.00    +0.120 A 
ENDBRANCH   1  21
BRANCH   3  22
ATOM     22  S   LIG    1       -1.141  -4.542  -2.500  0.00  0.00    +2.620 S 
ATOM     23  O   LIG    1       -0.379  -3.366  -2.738  0.00  0.00    -0.930 OA
ATOM     24  O   LIG    1       -2.544  -4.561  -2.720  0.00  0.00    -0.920 OA
ATOM     25  C   LIG    1       -0.354  -5.979  -3.278  0.00  0.00    -0.260 C 
ENDBRANCH   3  22
TORSDOF 3
