REMARK  Name = ZINCvU0000000Di3.0
REMARK                            x       y       z     vdW  Elec       q    Type
REMARK                         _______ _______ _______ _____ _____    ______ ____
ROOT
ATOM      1  C   LIG    1        7.186  -1.138   1.520  0.00  0.00    +0.280 A 
ATOM      2  N   LIG    1        6.104  -1.264   0.821  0.00  0.00    -0.420 NA
ATOM      3  C   LIG    1        6.121  -2.224  -0.109  0.00  0.00    +0.110 A 
ATOM      4  C   LIG    1        7.285  -2.932  -0.174  0.00  0.00    -0.100 A 
ATOM      5  S   LIG    1        8.375  -2.322   0.994  0.00  0.00    +0.150 S 
ENDROOT
BRANCH   3   6
ATOM      6  C   LIG    1        4.979  -2.498  -0.985  0.00  0.00    +0.170 C 
ATOM      7  C   LIG    1        4.498  -1.525  -1.796  0.00  0.00    -0.170 C 
ATOM      8  C   LIG    1        3.231  -1.741  -2.584  0.00  0.00    +0.060 C 
ATOM      9  C   LIG    1        2.087  -0.936  -1.983  0.00  0.00    +0.250 C 
ATOM     10  O   LIG    1        2.484   0.391  -1.667  0.00  0.00    -0.320 OA
ATOM     11  C   LIG    1        3.211   1.072  -2.587  0.00  0.00    +0.130 A 
ATOM     12  C   LIG    1        2.626   2.057  -3.365  0.00  0.00    +0.040 A 
ATOM     13  C   LIG    1        3.383   2.740  -4.298  0.00  0.00    +0.030 A 
ATOM     14  C   LIG    1        4.728   2.447  -4.465  0.00  0.00    +0.090 A 
ATOM     15  C   LIG    1        5.327   1.467  -3.697  0.00  0.00    +0.040 A 
ATOM     16  F   LIG    1        5.456   3.122  -5.381  0.00  0.00    -0.130 F 
ATOM     17  C   LIG    1        4.572   0.773  -2.754  0.00  0.00    -0.150 A 
ATOM     18  C   LIG    1        5.181  -0.283  -1.918  0.00  0.00    +0.440 C 
ATOM     19  O   LIG    1        6.242  -0.094  -1.347  0.00  0.00    -0.420 OA
ENDBRANCH   3   6
BRANCH   1  22
ATOM     20  C   LIG    1        6.534   1.512   4.100  0.00  0.00    +0.120 C 
ATOM     21  C   LIG    1        6.359   0.583   2.926  0.00  0.00    +0.510 C 
ATOM     22  N   LIG    1        7.378  -0.207   2.534  0.00  0.00    -0.480 N 
ATOM     23  O   LIG    1        5.301   0.547   2.334  0.00  0.00    -0.460 OA
BRANCH  22  24
ATOM     24  C   LIG    1        8.634  -0.090   3.149  0.00  0.00    +0.060 A 
ATOM     25  C   LIG    1        9.580   0.785   2.636  0.00  0.00    +0.110 A 
ATOM     26  C   LIG    1       10.814   0.903   3.246  0.00  0.00    +0.010 A 
ATOM     27  C   LIG    1       11.111   0.141   4.364  0.00  0.00    +0.150 A 
ATOM     28  C   LIG    1       10.171  -0.737   4.876  0.00  0.00    -0.020 A 
ATOM     29  F   LIG    1       12.321   0.255   4.955  0.00  0.00    -0.120 F 
ATOM     30  C   LIG    1        8.933  -0.855   4.272  0.00  0.00    +0.150 A 
ATOM     31  F   LIG    1        8.015  -1.711   4.771  0.00  0.00    -0.110 F 
ENDBRANCH  22  24
ENDBRANCH   1  22
TORSDOF 3
