REMARK  Name = ZINCpk00000y6xZ1.0
REMARK                            x       y       z     vdW  Elec       q    Type
REMARK                         _______ _______ _______ _____ _____    ______ ____
ROOT
ATOM      1  C   LIG    1       -3.165  -2.488  -0.906  0.00  0.00    +0.140 C 
ATOM      2  C   LIG    1       -1.755  -2.645  -0.279  0.00  0.00    +0.050 C 
ATOM      3  C   LIG    1       -1.284  -1.184  -0.119  0.00  0.00    +0.270 C 
ATOM      4  N   LIG    1       -2.487  -0.339  -0.090  0.00  0.00    -0.610 N 
ATOM      5  C   LIG    1       -2.501   1.004   0.019  0.00  0.00    +0.580 C 
ATOM      6  O   LIG    1       -3.558   1.595   0.124  0.00  0.00    -0.530 OA
ATOM      7  C   LIG    1       -3.675  -1.204  -0.206  0.00  0.00    +0.280 C 
ENDROOT
BRANCH   5   8
ATOM      8  C   LIG    1       -1.232   1.758   0.012  0.00  0.00    -0.130 A 
ATOM      9  C   LIG    1       -0.013   1.078   0.061  0.00  0.00    +0.060 A 
ATOM     10  C   LIG    1        1.171   1.783   0.048  0.00  0.00    +0.030 A 
ATOM     11  C   LIG    1        1.157   3.170  -0.007  0.00  0.00    +0.060 A 
ATOM     12  O   LIG    1        2.172   4.081  -0.029  0.00  0.00    -0.300 OA
ATOM     13  C   LIG    1        1.580   5.306  -0.499  0.00  0.00    +0.440 C 
ATOM     14  O   LIG    1        0.201   5.196  -0.101  0.00  0.00    -0.300 OA
ATOM     15  C   LIG    1       -0.058   3.856  -0.051  0.00  0.00    +0.020 A 
ATOM     16  C   LIG    1       -1.247   3.155  -0.040  0.00  0.00    +0.110 A 
ENDBRANCH   5   8
BRANCH   1  17
ATOM     17  N   LIG    1       -4.017  -3.639  -0.582  0.00  0.00    -0.530 NA
ATOM     18  C   LIG    1       -3.462  -4.879  -1.141  0.00  0.00    +0.190 C 
BRANCH  17  19
ATOM     19  C   LIG    1       -5.394  -3.423  -1.046  0.00  0.00    +0.320 C 
BRANCH  19  23
ATOM     20  C   LIG    1       -7.980  -7.665  -0.423  0.00  0.00    +0.240 C 
ATOM     21  C   LIG    1       -7.376  -6.297  -0.237  0.00  0.00    +0.180 A 
ATOM     22  N   LIG    1       -6.568  -5.681  -1.066  0.00  0.00    -0.480 NA
ATOM     23  C   LIG    1       -6.288  -4.499  -0.488  0.00  0.00    +0.180 A 
ATOM     24  N   LIG    1       -6.935  -4.454   0.638  0.00  0.00    -0.370 NA
ATOM     25  O   LIG    1       -7.566  -5.477   0.801  0.00  0.00    +0.080 OA
ENDBRANCH  19  23
ENDBRANCH  17  19
ENDBRANCH   1  17
TORSDOF 4
