REMARK  Name = ZINCqH0000031G5f.0
REMARK                            x       y       z     vdW  Elec       q    Type
REMARK                         _______ _______ _______ _____ _____    ______ ____
ROOT
ATOM      1  C   LIG    1       -2.354   1.582   0.367  0.00  0.00    +0.160 A 
ATOM      2  C   LIG    1       -2.180   0.210   0.497  0.00  0.00    +0.050 A 
ATOM      3  C   LIG    1       -3.272  -0.643   0.412  0.00  0.00    +0.160 A 
ATOM      4  C   LIG    1       -4.540  -0.128   0.186  0.00  0.00    +0.000 A 
ATOM      5  C   LIG    1       -4.718   1.248   0.050  0.00  0.00    -0.100 A 
ATOM      6  C   LIG    1       -3.619   2.103   0.141  0.00  0.00    +0.040 A 
ENDROOT
BRANCH   1   9
ATOM      7  C   LIG    1        1.034   2.969   1.243  0.00  0.00    +0.110 C 
ATOM      8  C   LIG    1       -0.198   2.100   1.228  0.00  0.00    +0.500 C 
ATOM      9  N   LIG    1       -1.251   2.438   0.459  0.00  0.00    -0.680 N 
ATOM     10  H   LIG    1       -1.246   3.275  -0.031  0.00  0.00    +0.410 HD
ATOM     11  O   LIG    1       -0.238   1.093   1.904  0.00  0.00    -0.500 OA
ENDBRANCH   1   9
BRANCH   3  12
ATOM     12  N   LIG    1       -3.092  -2.024   0.549  0.00  0.00    -0.680 N 
ATOM     13  H   LIG    1       -3.632  -2.638   0.026  0.00  0.00    +0.410 HD
ATOM     14  C   LIG    1       -2.169  -2.502   1.407  0.00  0.00    +0.500 C 
ATOM     15  O   LIG    1       -1.428  -1.738   1.988  0.00  0.00    -0.500 OA
ATOM     16  C   LIG    1       -2.058  -3.986   1.644  0.00  0.00    +0.110 C 
ENDBRANCH   3  12
BRANCH   5  17
ATOM     17  C   LIG    1       -6.069   1.801  -0.190  0.00  0.00    +0.570 C 
ATOM     18  N   LIG    1       -7.129   0.974  -0.278  0.00  0.00    -0.720 N 
ATOM     19  H   LIG    1       -7.006   0.016  -0.184  0.00  0.00    +0.400 HD
ATOM     20  O   LIG    1       -6.222   3.001  -0.308  0.00  0.00    -0.530 OA
BRANCH  18  21
ATOM     21  C   LIG    1       -8.467   1.521  -0.516  0.00  0.00    +0.290 C 
ATOM     22  C   LIG    1       -8.725   1.599  -2.022  0.00  0.00    +0.040 C 
BRANCH  21  23
ATOM     23  C   LIG    1       -9.497   0.626   0.124  0.00  0.00    -0.080 A 
ATOM     24  C   LIG    1       -9.197  -0.697   0.384  0.00  0.00    +0.020 A 
ATOM     25  C   LIG    1      -10.140  -1.517   0.976  0.00  0.00    +0.020 A 
ATOM     26  C   LIG    1      -11.387  -1.015   1.299  0.00  0.00    +0.030 A 
ATOM     27  C   LIG    1      -11.690   0.307   1.035  0.00  0.00    +0.040 A 
ATOM     28  C   LIG    1      -10.745   1.129   0.447  0.00  0.00    -0.030 A 
ATOM     29 CL   LIG    1      -11.125   2.790   0.115  0.00  0.00    -0.060 Cl
ENDBRANCH  21  23
ENDBRANCH  18  21
ENDBRANCH   5  17
TORSDOF 5
