REMARK  Name = ZINCqH0000008Jfc.0
REMARK                            x       y       z     vdW  Elec       q    Type
REMARK                         _______ _______ _______ _____ _____    ______ ____
ROOT
ATOM      1  N   LIG    1       -1.150  -0.694   0.111  0.00  0.00    -0.740 N 
ATOM      2  H   LIG    1       -1.998  -0.224   0.122  0.00  0.00    +0.390 HD
ATOM      3  C   LIG    1        0.002  -0.004   0.002  0.00  0.00    +0.710 C 
ATOM      4  N   LIG    1       -0.016   1.343   0.011  0.00  0.00    -0.630 N 
ATOM      5  C   LIG    1       -1.290   2.075   0.021  0.00  0.00    +0.250 C 
ATOM      6  C   LIG    1       -1.279   3.060   1.200  0.00  0.00    +0.020 C 
ATOM      7  C   LIG    1       -0.042   3.955   1.098  0.00  0.00    -0.010 C 
ATOM      8  C   LIG    1        1.221   3.094   1.178  0.00  0.00    +0.020 C 
ATOM      9  C   LIG    1        1.238   2.109   0.004  0.00  0.00    +0.290 C 
ATOM     10  O   LIG    1        1.058  -0.597  -0.104  0.00  0.00    -0.590 OA
ENDROOT
BRANCH   1  17
ATOM     11  C   LIG    1       -2.425  -2.103   2.347  0.00  0.00    +0.030 C 
ATOM     12  C   LIG    1       -2.392  -2.644   0.916  0.00  0.00    -0.050 C 
ATOM     13  C   LIG    1       -2.391  -4.175   0.949  0.00  0.00    +0.220 C 
ATOM     14  O   LIG    1       -2.302  -4.678  -0.386  0.00  0.00    -0.380 OA
ATOM     15  C   LIG    1       -1.112  -4.292  -1.077  0.00  0.00    +0.210 C 
ATOM     16  C   LIG    1       -1.062  -2.766  -1.190  0.00  0.00    -0.020 C 
ATOM     17  C   LIG    1       -1.122  -2.155   0.213  0.00  0.00    +0.260 C 
ENDBRANCH   1  17
BRANCH   7  18
ATOM     18  C   LIG    1       -0.045   4.962   2.249  0.00  0.00    +0.030 C 
BRANCH  18  19
ATOM     19  C   LIG    1       -1.241   5.904   2.099  0.00  0.00    +0.080 C 
BRANCH  19  20
ATOM     20  C   LIG    1       -1.245   6.896   3.233  0.00  0.00    -0.130 A 
ATOM     21  C   LIG    1       -2.005   6.653   4.361  0.00  0.00    +0.080 A 
ATOM     22  C   LIG    1       -2.005   7.561   5.404  0.00  0.00    -0.020 A 
ATOM     23  C   LIG    1       -1.252   8.719   5.315  0.00  0.00    +0.130 A 
ATOM     24  C   LIG    1       -0.494   8.966   4.183  0.00  0.00    -0.040 A 
ATOM     25  F   LIG    1       -1.256   9.607   6.333  0.00  0.00    -0.130 F 
ATOM     26  C   LIG    1       -0.491   8.055   3.142  0.00  0.00    +0.130 A 
ATOM     27  F   LIG    1        0.249   8.294   2.037  0.00  0.00    -0.130 F 
ENDBRANCH  19  20
ENDBRANCH  18  19
ENDBRANCH   7  18
TORSDOF 4
