REMARK  Name = ZINCrD0000074QYj.0
REMARK                            x       y       z     vdW  Elec       q    Type
REMARK                         _______ _______ _______ _____ _____    ______ ____
ROOT
ATOM      1  O   LIG    1       -3.605   1.171  -3.505  0.00  0.00    -0.330 OA
ENDROOT
BRANCH   1   2
ATOM      2  C   LIG    1       -4.504   1.236  -4.508  0.00  0.00    +0.510 C 
ATOM      3  O   LIG    1       -5.621   1.666  -4.296  0.00  0.00    -0.480 OA
BRANCH   2   4
ATOM      4  C   LIG    1       -4.133   0.785  -5.860  0.00  0.00    +0.100 A 
ATOM      5  C   LIG    1       -5.054   0.860  -6.854  0.00  0.00    +0.080 A 
ATOM      6  C   LIG    1       -4.695   0.415  -8.200  0.00  0.00    -0.020 A 
ATOM      7  C   LIG    1       -5.603   0.470  -9.259  0.00  0.00    +0.030 A 
ATOM      8  C   LIG    1       -5.215   0.039 -10.510  0.00  0.00    +0.040 A 
ATOM      9  C   LIG    1       -3.934  -0.448 -10.726  0.00  0.00    +0.020 A 
ATOM     10  C   LIG    1       -3.021  -0.512  -9.694  0.00  0.00    +0.090 A 
ATOM     11  C   LIG    1       -3.389  -0.082  -8.422  0.00  0.00    -0.130 A 
ATOM     12  C   LIG    1       -2.454  -0.127  -7.288  0.00  0.00    +0.550 A 
ATOM     13  O   LIG    1       -1.322  -0.549  -7.443  0.00  0.00    -0.520 OA
ATOM     14  N   LIG    1       -2.858   0.306  -6.078  0.00  0.00    -0.620 N 
ATOM     15  H   LIG    1       -2.235   0.277  -5.336  0.00  0.00    +0.430 HD
ENDBRANCH   2   4
ENDBRANCH   1   2
BRANCH   1  16
ATOM     16  C   LIG    1       -4.040   1.633  -2.199  0.00  0.00    +0.240 C 
BRANCH  16  17
ATOM     17  C   LIG    1       -2.911   1.485  -1.212  0.00  0.00    +0.420 C 
ATOM     18  O   LIG    1       -1.843   1.036  -1.575  0.00  0.00    -0.430 OA
BRANCH  17  28
ATOM     19  C   LIG    1        0.007   1.171  -0.014  0.00  0.00    +0.100 C 
ATOM     20  C   LIG    1       -0.702   1.642   1.230  0.00  0.00    -0.030 A 
ATOM     21  C   LIG    1       -2.064   1.924   1.194  0.00  0.00    -0.060 A 
ATOM     22  C   LIG    1       -2.725   2.358   2.354  0.00  0.00    +0.080 A 
ATOM     23  N   LIG    1       -4.053   2.552   2.031  0.00  0.00    -0.560 N 
ATOM     24  H   LIG    1       -4.733   2.856   2.652  0.00  0.00    +0.420 HD
ATOM     25  C   LIG    1       -4.272   2.276   0.731  0.00  0.00    +0.330 A 
ATOM     26  C   LIG    1       -2.003   2.513   3.532  0.00  0.00    -0.010 A 
ATOM     27  C   LIG    1       -0.653   2.236   3.553  0.00  0.00    +0.040 A 
ATOM     28  C   LIG    1       -3.095   1.872   0.139  0.00  0.00    -0.270 A 
ATOM     29  C   LIG    1       -0.003   1.802   2.407  0.00  0.00    -0.010 A 
ENDBRANCH  17  28
ENDBRANCH  16  17
ENDBRANCH   1  16
TORSDOF 5
