REMARK  Name = ZINCb80000002vFp.0
REMARK                            x       y       z     vdW  Elec       q    Type
REMARK                         _______ _______ _______ _____ _____    ______ ____
ROOT
ATOM      1  C   LIG    1        0.808   6.255   0.026  0.00  0.00    +0.350 C 
ATOM      2  N   LIG    1       -0.208   5.200   0.030  0.00  0.00    -0.380 N 
ATOM      3  N   LIG    1       -1.594   5.399   0.044  0.00  0.00    -0.280 NA
ATOM      4  C   LIG    1       -2.196   4.242   0.044  0.00  0.00    +0.330 A 
ATOM      5  C   LIG    1       -1.209   3.235   0.030  0.00  0.00    -0.330 A 
ATOM      6  C   LIG    1       -1.247   1.770   0.018  0.00  0.00    +0.440 A 
ATOM      7  O   LIG    1       -2.309   1.167   0.020  0.00  0.00    -0.500 OA
ATOM      8  C   LIG    1       -0.013   1.076   0.008  0.00  0.00    -0.130 A 
ATOM      9  C   LIG    1        1.145   1.768   0.001  0.00  0.00    +0.350 A 
ATOM     10  N   LIG    1        1.177   3.123   0.007  0.00  0.00    -0.590 N 
ATOM     11  H   LIG    1        2.036   3.575   0.001  0.00  0.00    +0.420 HD
ATOM     12  C   LIG    1        0.033   3.872   0.022  0.00  0.00    +0.340 A 
ENDROOT
TORSDOF 0
