REMARK  Name = ZINCrH00000No55C.0
REMARK                            x       y       z     vdW  Elec       q    Type
REMARK                         _______ _______ _______ _____ _____    ______ ____
ROOT
ATOM      1  C   LIG    1        6.081   9.115  -0.009  0.00  0.00    +0.020 C 
ENDROOT
BRANCH   1   2
ATOM      2  C   LIG    1        7.532   9.602  -0.020  0.00  0.00    +0.260 C 
BRANCH   2   4
ATOM      3  C   LIG    1        8.733  11.721  -0.021  0.00  0.00    +0.510 C 
ATOM      4  N   LIG    1        7.555  11.066  -0.013  0.00  0.00    -0.740 N 
ATOM      5  H   LIG    1        6.723  11.565  -0.002  0.00  0.00    +0.400 HD
ATOM      6  O   LIG    1        9.774  11.098  -0.034  0.00  0.00    -0.530 OA
BRANCH   3   7
ATOM      7  C   LIG    1        8.758  13.228  -0.013  0.00  0.00    +0.040 C 
BRANCH   7  11
ATOM      8  C   LIG    1       12.420  15.110  -1.345  0.00  0.00    +0.010 C 
ATOM      9  C   LIG    1       11.684  15.726  -0.154  0.00  0.00    -0.010 C 
ATOM     10  C   LIG    1       10.234  15.240  -0.143  0.00  0.00    +0.010 C 
ATOM     11  C   LIG    1       10.208  13.715  -0.024  0.00  0.00    +0.010 C 
ATOM     12  C   LIG    1       10.898  13.292   1.274  0.00  0.00    +0.010 C 
ATOM     13  C   LIG    1       12.348  13.779   1.263  0.00  0.00    +0.020 C 
ATOM     14  C   LIG    1       12.374  15.304   1.145  0.00  0.00    -0.020 C 
ATOM     15  C   LIG    1       13.825  15.791   1.134  0.00  0.00    +0.010 C 
ENDBRANCH   7  11
ENDBRANCH   3   7
ENDBRANCH   2   4
ENDBRANCH   1   2
BRANCH   1  16
ATOM     16  C   LIG    1        6.056   7.585  -0.016  0.00  0.00    +0.260 C 
BRANCH  16  17
ATOM     17  N   LIG    1        4.667   7.120  -0.005  0.00  0.00    -0.730 N 
ATOM     18  H   LIG    1        3.940   7.762   0.005  0.00  0.00    +0.400 HD
ATOM     19  C   LIG    1        4.399   5.799  -0.010  0.00  0.00    +0.510 C 
ATOM     20  O   LIG    1        5.308   4.996  -0.022  0.00  0.00    -0.540 OA
BRANCH  19  21
ATOM     21  C   LIG    1        2.971   5.319   0.001  0.00  0.00    +0.070 C 
BRANCH  21  22
ATOM     22  C   LIG    1        2.946   3.790  -0.006  0.00  0.00    +0.060 C 
BRANCH  22  23
ATOM     23  C   LIG    1        1.517   3.310   0.005  0.00  0.00    +0.430 C 
ATOM     24  O   LIG    1        0.607   4.114   0.018  0.00  0.00    -0.450 OA
BRANCH  23  25
ATOM     25  C   LIG    1        1.236   1.926   0.001  0.00  0.00    -0.310 A 
ATOM     26  C   LIG    1       -0.017   1.368   0.010  0.00  0.00    +0.110 A 
ATOM     27  C   LIG    1        0.002  -0.004   0.002  0.00  0.00    -0.010 A 
ATOM     28  C   LIG    1        1.223  -0.557  -0.013  0.00  0.00    -0.050 A 
ATOM     29  S   LIG    1        2.437   0.642  -0.018  0.00  0.00    +0.240 S 
ENDBRANCH  23  25
ENDBRANCH  22  23
ENDBRANCH  21  22
ENDBRANCH  19  21
ENDBRANCH  16  17
ENDBRANCH   1  16
TORSDOF 10
