REMARK  Name = ZINCpk000000pQSg.0
REMARK                            x       y       z     vdW  Elec       q    Type
REMARK                         _______ _______ _______ _____ _____    ______ ____
ROOT
ATOM      1  N   LIG    1       -5.679   3.683  -0.673  0.00  0.00    -0.530 NA
ATOM      2  C   LIG    1       -5.972   2.248  -0.557  0.00  0.00    +0.180 C 
ATOM      3  C   LIG    1       -5.248   1.679   0.668  0.00  0.00    +0.290 C 
ATOM      4  N   LIG    1       -3.820   2.016   0.564  0.00  0.00    -0.600 N 
ATOM      5  C   LIG    1       -3.452   3.418   0.316  0.00  0.00    +0.280 C 
ATOM      6  C   LIG    1       -2.873   1.066   0.698  0.00  0.00    +0.590 C 
ATOM      7  O   LIG    1       -3.196  -0.090   0.901  0.00  0.00    -0.550 OA
ATOM      8  C   LIG    1       -4.247   3.917  -0.901  0.00  0.00    +0.180 C 
ENDROOT
BRANCH   6   9
ATOM      9  C   LIG    1       -1.454   1.425   0.599  0.00  0.00    -0.050 A 
ATOM     10  C   LIG    1       -0.907   2.663   0.859  0.00  0.00    +0.010 A 
ATOM     11  C   LIG    1        0.471   2.556   0.646  0.00  0.00    -0.050 A 
ATOM     12  C   LIG    1        0.735   1.284   0.263  0.00  0.00    +0.190 A 
ATOM     13  N   LIG    1       -0.427   0.587   0.227  0.00  0.00    -0.400 N 
BRANCH  13  14
ATOM     14  C   LIG    1       -0.566  -0.825  -0.139  0.00  0.00    +0.360 C 
BRANCH  14  15
ATOM     15  C   LIG    1       -0.876  -0.933  -1.610  0.00  0.00    -0.070 A 
ATOM     16  C   LIG    1       -2.185  -0.876  -2.066  0.00  0.00    -0.010 A 
ATOM     17  C   LIG    1       -2.430  -0.975  -3.422  0.00  0.00    +0.260 A 
ATOM     18  N   LIG    1       -1.439  -1.132  -4.277  0.00  0.00    -0.480 NA
ATOM     19  C   LIG    1       -0.183  -1.195  -3.880  0.00  0.00    +0.260 A 
ATOM     20  C   LIG    1        0.139  -1.099  -2.539  0.00  0.00    -0.020 A 
ENDBRANCH  14  15
ENDBRANCH  13  14
ENDBRANCH   6   9
BRANCH   1  21
ATOM     21  C   LIG    1       -6.489   4.301  -1.731  0.00  0.00    +0.190 C 
BRANCH  21  22
ATOM     22  C   LIG    1       -6.033   3.778  -3.094  0.00  0.00    +0.170 C 
BRANCH  22  24
ATOM     23  C   LIG    1       -6.230   4.094  -5.565  0.00  0.00    +0.010 C 
ATOM     24  C   LIG    1       -6.775   4.528  -4.202  0.00  0.00    -0.010 C 
ENDBRANCH  22  24
BRANCH  22  25
ATOM     25  O   LIG    1       -6.322   2.382  -3.189  0.00  0.00    -0.560 OA
ATOM     26  H   LIG    1       -7.261   2.167  -3.100  0.00  0.00    +0.370 HD
ENDBRANCH  22  25
ENDBRANCH  21  22
ENDBRANCH   1  21
TORSDOF 7
