REMARK  Name = ZINCpk00000y6vz6.0
REMARK                            x       y       z     vdW  Elec       q    Type
REMARK                         _______ _______ _______ _____ _____    ______ ____
ROOT
ATOM      1  C   LIG    1        3.289   0.961   1.495  0.00  0.00    +0.620 C 
ATOM      2  N   LIG    1        2.115   0.844   0.844  0.00  0.00    -0.610 N 
ATOM      3  C   LIG    1        1.239  -0.338   0.862  0.00  0.00    +0.260 C 
ATOM      4  C   LIG    1        0.002  -0.004   0.002  0.00  0.00    +0.090 C 
ATOM      5  C   LIG    1       -0.019   1.547   0.011  0.00  0.00    +0.210 C 
ATOM      6  C   LIG    1        1.494   1.879  -0.002  0.00  0.00    +0.270 C 
ATOM      7  O   LIG    1        3.932   1.989   1.409  0.00  0.00    -0.550 OA
ENDROOT
BRANCH   1  10
ATOM      8  N   LIG    1        5.055  -1.381   3.628  0.00  0.00    -0.350 N 
ATOM      9  C   LIG    1        4.976  -0.184   3.025  0.00  0.00    +0.320 A 
ATOM     10  C   LIG    1        3.794  -0.158   2.311  0.00  0.00    -0.290 A 
ATOM     11  C   LIG    1        3.163  -1.407   2.505  0.00  0.00    +0.270 A 
ATOM     12  N   LIG    1        3.920  -2.125   3.288  0.00  0.00    -0.290 NA
BRANCH   8  13
ATOM     13  C   LIG    1        6.149  -1.833   4.491  0.00  0.00    +0.320 C 
BRANCH  13  15
ATOM     14  C   LIG    1        4.693  -3.513   5.633  0.00  0.00    +0.030 C 
ATOM     15  C   LIG    1        5.581  -2.284   5.839  0.00  0.00    -0.030 C 
ATOM     16  C   LIG    1        6.731  -2.639   6.783  0.00  0.00    +0.030 C 
ENDBRANCH  13  15
ENDBRANCH   8  13
ENDBRANCH   1  10
BRANCH   5  17
ATOM     17  C   LIG    1       -0.700   2.085  -1.222  0.00  0.00    -0.040 A 
ATOM     18  C   LIG    1       -0.894   3.387  -1.537  0.00  0.00    +0.150 A 
ATOM     19  N   LIG    1       -1.542   3.395  -2.724  0.00  0.00    -0.280 N 
ATOM     20  N   LIG    1       -1.723   2.175  -3.093  0.00  0.00    -0.080 NA
ATOM     21  N   LIG    1       -1.227   1.370  -2.221  0.00  0.00    -0.250 NA
BRANCH  19  22
ATOM     22  C   LIG    1       -1.966   4.587  -3.463  0.00  0.00    +0.250 C 
ATOM     23  C   LIG    1       -0.935   5.701  -3.268  0.00  0.00    +0.060 C 
ATOM     24  C   LIG    1       -3.326   5.053  -2.942  0.00  0.00    +0.060 C 
ENDBRANCH  19  22
ENDBRANCH   5  17
BRANCH   5  25
ATOM     25  O   LIG    1       -0.642   2.045   1.196  0.00  0.00    -0.530 OA
ATOM     26  H   LIG    1       -0.679   3.010   1.246  0.00  0.00    +0.380 HD
ENDBRANCH   5  25
TORSDOF 6
