REMARK  Name = ZINCpe000000WvEy.0
REMARK                            x       y       z     vdW  Elec       q    Type
REMARK                         _______ _______ _______ _____ _____    ______ ____
ROOT
ATOM      1  C   LIG    1        0.023  -0.256  -0.352  0.00  0.00    +0.210 A 
ATOM      2  C   LIG    1        1.195  -0.986  -0.181  0.00  0.00    -0.110 A 
ATOM      3  C   LIG    1        1.133  -2.332   0.106  0.00  0.00    +0.180 A 
ATOM      4  C   LIG    1       -0.110  -2.962   0.210  0.00  0.00    -0.280 A 
ATOM      5  C   LIG    1       -0.510  -4.349   0.492  0.00  0.00    +0.390 C 
ATOM      6  C   LIG    1       -2.009  -4.333   0.457  0.00  0.00    +0.490 C 
ATOM      7  N   LIG    1       -2.394  -3.074   0.186  0.00  0.00    -0.530 N 
ATOM      8  O   LIG    1       -2.741  -5.282   0.640  0.00  0.00    -0.440 OA
ATOM      9  O   LIG    1        0.214  -5.300   0.706  0.00  0.00    -0.370 OA
ATOM     10  C   LIG    1       -1.297  -2.229   0.032  0.00  0.00    +0.250 A 
ATOM     11  C   LIG    1       -1.217  -0.875  -0.249  0.00  0.00    -0.040 A 
ENDROOT
BRANCH   1  13
ATOM     12  C   LIG    1        1.396   1.647  -0.721  0.00  0.00    +0.250 C 
ATOM     13  O   LIG    1        0.092   1.071  -0.628  0.00  0.00    -0.310 OA
ENDBRANCH   1  13
BRANCH   7  14
ATOM     14  C   LIG    1       -3.790  -2.645   0.067  0.00  0.00    +0.460 C 
BRANCH  14  15
ATOM     15  N   LIG    1       -4.116  -2.424  -1.348  0.00  0.00    -0.500 NA
BRANCH  15  16
ATOM     16  C   LIG    1       -5.150  -1.391  -1.495  0.00  0.00    +0.170 C 
ATOM     17  C   LIG    1       -4.697  -0.090  -0.810  0.00  0.00    +0.080 C 
ATOM     18  C   LIG    1       -5.623   1.056  -1.263  0.00  0.00    -0.300 C 
ATOM     19  S   LIG    1       -6.206   0.568  -2.927  0.00  0.00    +2.390 S 
ATOM     20  O   LIG    1       -5.643   1.439  -3.898  0.00  0.00    -0.930 OA
ATOM     21  O   LIG    1       -7.611   0.361  -2.892  0.00  0.00    -0.930 OA
ATOM     22  C   LIG    1       -5.355  -1.054  -2.995  0.00  0.00    -0.300 C 
ENDBRANCH  15  16
BRANCH  15  23
ATOM     23  C   LIG    1       -4.527  -3.676  -1.996  0.00  0.00    +0.140 C 
ATOM     24  C   LIG    1       -4.691  -4.911  -1.106  0.00  0.00    +0.000 C 
ATOM     25  C   LIG    1       -3.500  -4.808  -2.061  0.00  0.00    +0.020 C 
ENDBRANCH  15  23
ENDBRANCH  14  15
ENDBRANCH   7  14
TORSDOF 5
