REMARK  Name = ZINCrD0000073Tf2.0
REMARK                            x       y       z     vdW  Elec       q    Type
REMARK                         _______ _______ _______ _____ _____    ______ ____
ROOT
ATOM      1  N   LIG    1        3.435  -2.188  -0.515  0.00  0.00    -0.720 N 
ATOM      2  H   LIG    1        2.537  -2.552  -0.485  0.00  0.00    +0.400 HD
ATOM      3  C   LIG    1        4.449  -2.935  -0.995  0.00  0.00    +0.520 C 
ATOM      4  O   LIG    1        5.573  -2.480  -1.033  0.00  0.00    -0.510 OA
ENDROOT
BRANCH   1   6
ATOM      5  C   LIG    1        4.108  -0.872   1.434  0.00  0.00    +0.040 C 
ATOM      6  C   LIG    1        3.690  -0.827  -0.037  0.00  0.00    +0.280 C 
BRANCH   6   7
ATOM      7  C   LIG    1        2.437  -0.002  -0.178  0.00  0.00    -0.080 A 
ATOM      8  C   LIG    1        1.216  -0.603  -0.158  0.00  0.00    +0.010 A 
ATOM      9  C   LIG    1        0.046   0.143  -0.286  0.00  0.00    +0.020 A 
ATOM     10  C   LIG    1        0.090   1.495  -0.436  0.00  0.00    +0.030 A 
ATOM     11  C   LIG    1        1.333   2.151  -0.463  0.00  0.00    -0.050 A 
ATOM     12  C   LIG    1        1.418   3.546  -0.615  0.00  0.00    +0.020 A 
ATOM     13  C   LIG    1        2.639   4.147  -0.635  0.00  0.00    +0.020 A 
ATOM     14  C   LIG    1        3.809   3.401  -0.506  0.00  0.00    +0.020 A 
ATOM     15  C   LIG    1        3.765   2.049  -0.357  0.00  0.00    +0.020 A 
ATOM     16  C   LIG    1        2.523   1.393  -0.332  0.00  0.00    -0.040 A 
ENDBRANCH   6   7
ENDBRANCH   1   6
BRANCH   3  17
ATOM     17  C   LIG    1        4.187  -4.335  -1.486  0.00  0.00    +0.270 C 
BRANCH  17  18
ATOM     18  O   LIG    1        5.429  -4.926  -1.950  0.00  0.00    -0.330 OA
BRANCH  18  19
ATOM     19  C   LIG    1        5.368  -6.185  -2.425  0.00  0.00    +0.510 C 
ATOM     20  O   LIG    1        4.305  -6.774  -2.451  0.00  0.00    -0.500 OA
BRANCH  19  21
ATOM     21  C   LIG    1        6.592  -6.851  -2.914  0.00  0.00    -0.120 A 
ATOM     22  C   LIG    1        7.814  -6.176  -2.892  0.00  0.00    +0.080 A 
ATOM     23  C   LIG    1        8.955  -6.805  -3.345  0.00  0.00    +0.020 A 
ATOM     24  C   LIG    1        8.888  -8.098  -3.832  0.00  0.00    -0.060 A 
ATOM     25  C   LIG    1        7.679  -8.771  -3.863  0.00  0.00    +0.030 A 
ATOM     26  C   LIG    1        6.532  -8.156  -3.407  0.00  0.00    +0.090 A 
BRANCH  24  27
ATOM     27  C   LIG    1       10.137  -8.777  -4.332  0.00  0.00    +0.230 C 
BRANCH  27  28
ATOM     28  O   LIG    1       10.297  -8.513  -5.728  0.00  0.00    -0.570 OA
ATOM     29  H   LIG    1       11.083  -8.920  -6.117  0.00  0.00    +0.380 HD
ENDBRANCH  27  28
ENDBRANCH  24  27
ENDBRANCH  19  21
ENDBRANCH  18  19
ENDBRANCH  17  18
ENDBRANCH   3  17
TORSDOF 8
