REMARK  Name = ZINCzw0000000gBR.1
REMARK                            x       y       z     vdW  Elec       q    Type
REMARK                         _______ _______ _______ _____ _____    ______ ____
ROOT
ATOM      1  C   LIG    1       -3.917  10.301   2.852  0.00  0.00    +0.340 C 
ENDROOT
BRANCH   1   6
ATOM      2  C   LIG    1       -3.607   7.719   0.115  0.00  0.00    -0.160 A 
ATOM      3  C   LIG    1       -3.833   8.485  -1.014  0.00  0.00    +0.040 A 
ATOM      4  C   LIG    1       -4.086   9.838  -0.891  0.00  0.00    +0.030 A 
ATOM      5  C   LIG    1       -4.113  10.426   0.359  0.00  0.00    +0.080 A 
ATOM      6  C   LIG    1       -3.887   9.660   1.488  0.00  0.00    -0.100 A 
ATOM      7  C   LIG    1       -3.638   8.306   1.366  0.00  0.00    +0.060 A 
BRANCH   2   8
ATOM      8  C   LIG    1       -3.331   6.244  -0.018  0.00  0.00    +0.320 C 
BRANCH   8  13
ATOM      9  C   LIG    1       -0.097   4.352  -0.220  0.00  0.00    -0.010 C 
ATOM     10  C   LIG    1        0.458   4.981  -1.501  0.00  0.00    +0.060 C 
ATOM     11  C   LIG    1        0.099   6.469  -1.525  0.00  0.00    +0.070 C 
ATOM     12  C   LIG    1       -1.419   6.624  -1.413  0.00  0.00    +0.240 C 
ATOM     13  N   LIG    1       -1.885   6.026  -0.156  0.00  0.00    -0.380 N 
ATOM     14  H   LIG    1       -1.405   6.459   0.619  0.00  0.00    +0.420 HD
ATOM     15  C   LIG    1       -1.608   4.585  -0.158  0.00  0.00    +0.290 C 
BRANCH   9  19
ATOM     16  N   LIG    1        1.456   2.427  -0.280  0.00  0.00    -0.840 N 
ATOM     17  H   LIG    1        2.189   3.060  -0.322  0.00  0.00    +0.410 HD
ATOM     18  H   LIG    1        1.637   1.474  -0.282  0.00  0.00    +0.420 HD
ATOM     19  C   LIG    1        0.184   2.871  -0.224  0.00  0.00    +0.530 C 
ATOM     20  O   LIG    1       -0.733   2.079  -0.176  0.00  0.00    -0.530 OA
ENDBRANCH   9  19
ENDBRANCH   8  13
ENDBRANCH   2   8
ENDBRANCH   1   6
BRANCH   1  21
ATOM     21  N   LIG    1       -5.280  10.248   3.387  0.00  0.00    -0.740 N 
ATOM     22  H   LIG    1       -5.989   9.840   2.866  0.00  0.00    +0.400 HD
ATOM     23  C   LIG    1       -5.548  10.764   4.602  0.00  0.00    +0.710 C 
ATOM     24  N   LIG    1       -6.801  10.715   5.095  0.00  0.00    -0.680 N 
ATOM     25  H   LIG    1       -7.525  10.375   4.545  0.00  0.00    +0.410 HD
ATOM     26  O   LIG    1       -4.658  11.275   5.255  0.00  0.00    -0.560 OA
BRANCH  24  27
ATOM     27  C   LIG    1       -7.059  11.153   6.396  0.00  0.00    +0.190 A 
ATOM     28  C   LIG    1       -6.055  11.099   7.357  0.00  0.00    +0.020 A 
ATOM     29  C   LIG    1       -6.305  11.535   8.640  0.00  0.00    +0.060 A 
ATOM     30  C   LIG    1       -7.569  12.020   8.978  0.00  0.00    -0.060 A 
ATOM     31  C   LIG    1       -8.576  12.067   8.012  0.00  0.00    +0.110 A 
ATOM     32  C   LIG    1       -8.319  11.635   6.729  0.00  0.00    -0.010 A 
BRANCH  30  33
ATOM     33  C   LIG    1       -7.842  12.483  10.356  0.00  0.00    +0.290 A 
ATOM     34  N   LIG    1       -8.829  13.265  10.738  0.00  0.00    -0.320 NA
ATOM     35  N   LIG    1       -8.777  13.470  12.005  0.00  0.00    -0.030 NA
ATOM     36  N   LIG    1       -7.767  12.854  12.518  0.00  0.00    -0.080 NA
ATOM     37  N   LIG    1       -7.118  12.186  11.464  0.00  0.00    -0.350 N 
BRANCH  37  38
ATOM     38  C   LIG    1       -5.918  11.350  11.546  0.00  0.00    +0.210 C 
ATOM     39  C   LIG    1       -5.301  11.133  12.930  0.00  0.00    +0.090 C 
ATOM     40  C   LIG    1       -4.602  12.038  11.914  0.00  0.00    +0.060 C 
ENDBRANCH  37  38
ENDBRANCH  30  33
ENDBRANCH  24  27
ENDBRANCH   1  21
TORSDOF 8
