REMARK  Name = ZINCzw0000000gBR.0
REMARK                            x       y       z     vdW  Elec       q    Type
REMARK                         _______ _______ _______ _____ _____    ______ ____
ROOT
ATOM      1  C   LIG    1       -6.061   1.118   0.153  0.00  0.00    +0.350 C 
ENDROOT
BRANCH   1   6
ATOM      2  C   LIG    1       -2.495   0.206   0.995  0.00  0.00    -0.160 A 
ATOM      3  C   LIG    1       -2.676  -0.901   1.802  0.00  0.00    +0.060 A 
ATOM      4  C   LIG    1       -3.953  -1.355   2.076  0.00  0.00    +0.030 A 
ATOM      5  C   LIG    1       -5.048  -0.702   1.542  0.00  0.00    +0.070 A 
ATOM      6  C   LIG    1       -4.867   0.405   0.735  0.00  0.00    -0.100 A 
ATOM      7  C   LIG    1       -3.591   0.862   0.465  0.00  0.00    +0.050 A 
BRANCH   2   8
ATOM      8  C   LIG    1       -1.103   0.701   0.697  0.00  0.00    +0.320 C 
BRANCH   8  13
ATOM      9  C   LIG    1        1.357  -0.317  -1.949  0.00  0.00    +0.010 C 
ATOM     10  C   LIG    1        0.525   0.040  -3.185  0.00  0.00    +0.070 C 
ATOM     11  C   LIG    1       -0.943  -0.301  -2.916  0.00  0.00    +0.050 C 
ATOM     12  C   LIG    1       -1.414   0.445  -1.665  0.00  0.00    +0.240 C 
ATOM     13  N   LIG    1       -0.598   0.041  -0.514  0.00  0.00    -0.380 N 
ATOM     14  H   LIG    1       -0.653  -0.960  -0.399  0.00  0.00    +0.430 HD
ATOM     15  C   LIG    1        0.801   0.430  -0.734  0.00  0.00    +0.290 C 
BRANCH   9  19
ATOM     16  N   LIG    1        1.721  -2.662  -2.645  0.00  0.00    -0.830 N 
ATOM     17  H   LIG    1        1.674  -3.618  -2.487  0.00  0.00    +0.420 HD
ATOM     18  H   LIG    1        2.083  -2.325  -3.480  0.00  0.00    +0.410 HD
ATOM     19  C   LIG    1        1.284  -1.802  -1.704  0.00  0.00    +0.520 C 
ATOM     20  O   LIG    1        0.832  -2.223  -0.660  0.00  0.00    -0.560 OA
ENDBRANCH   9  19
ENDBRANCH   8  13
ENDBRANCH   2   8
ENDBRANCH   1   6
BRANCH   1  21
ATOM     21  N   LIG    1       -6.501   2.167   1.076  0.00  0.00    -0.740 N 
ATOM     22  H   LIG    1       -6.030   2.306   1.912  0.00  0.00    +0.400 HD
ATOM     23  C   LIG    1       -7.560   2.939   0.762  0.00  0.00    +0.710 C 
ATOM     24  N   LIG    1       -7.965   3.904   1.611  0.00  0.00    -0.680 N 
ATOM     25  H   LIG    1       -7.542   3.995   2.480  0.00  0.00    +0.410 HD
ATOM     26  O   LIG    1       -8.150   2.765  -0.286  0.00  0.00    -0.560 OA
BRANCH  24  27
ATOM     27  C   LIG    1       -8.993   4.774   1.241  0.00  0.00    +0.190 A 
ATOM     28  C   LIG    1       -9.217   5.052  -0.103  0.00  0.00    +0.020 A 
ATOM     29  C   LIG    1      -10.233   5.906  -0.472  0.00  0.00    +0.060 A 
ATOM     30  C   LIG    1      -11.033   6.501   0.506  0.00  0.00    -0.060 A 
ATOM     31  C   LIG    1      -10.803   6.224   1.854  0.00  0.00    +0.110 A 
ATOM     32  C   LIG    1       -9.788   5.365   2.217  0.00  0.00    -0.010 A 
BRANCH  30  33
ATOM     33  C   LIG    1      -12.121   7.422   0.114  0.00  0.00    +0.290 A 
ATOM     34  N   LIG    1      -13.151   7.777   0.853  0.00  0.00    -0.320 NA
ATOM     35  N   LIG    1      -13.907   8.592   0.210  0.00  0.00    -0.030 NA
ATOM     36  N   LIG    1      -13.432   8.810  -0.969  0.00  0.00    -0.080 NA
ATOM     37  N   LIG    1      -12.251   8.056  -1.078  0.00  0.00    -0.350 N 
BRANCH  37  38
ATOM     38  C   LIG    1      -11.352   7.974  -2.232  0.00  0.00    +0.210 C 
ATOM     39  C   LIG    1      -11.696   8.823  -3.458  0.00  0.00    +0.090 C 
ATOM     40  C   LIG    1      -11.889   7.306  -3.499  0.00  0.00    +0.060 C 
ENDBRANCH  37  38
ENDBRANCH  30  33
ENDBRANCH  24  27
ENDBRANCH   1  21
TORSDOF 8
