REMARK  Name = ZINCrH00000tj0mK.0
REMARK                            x       y       z     vdW  Elec       q    Type
REMARK                         _______ _______ _______ _____ _____    ______ ____
ROOT
ATOM      1  C   LIG    1        1.620   3.184   0.003  0.00  0.00    +0.360 C 
ENDROOT
BRANCH   1   2
ATOM      2  N   LIG    1        1.768   3.648   1.389  0.00  0.00    -0.520 NA
ATOM      3  C   LIG    1        2.885   2.965   2.057  0.00  0.00    +0.130 C 
ATOM      4  C   LIG    1        2.965   3.433   3.513  0.00  0.00    +0.230 C 
ATOM      5  O   LIG    1        3.104   4.856   3.544  0.00  0.00    -0.380 OA
ATOM      6  C   LIG    1        2.033   5.553   2.902  0.00  0.00    +0.240 C 
ATOM      7  C   LIG    1        4.193   3.303   1.339  0.00  0.00    +0.020 C 
ATOM      8  C   LIG    1        1.943   5.107   1.441  0.00  0.00    +0.160 C 
BRANCH   8   9
ATOM      9  C   LIG    1        0.767   5.779   0.781  0.00  0.00    -0.100 A 
ATOM     10  C   LIG    1       -0.509   5.284   0.973  0.00  0.00    +0.040 A 
ATOM     11  C   LIG    1       -1.589   5.903   0.370  0.00  0.00    +0.000 A 
ATOM     12  C   LIG    1       -1.391   7.011  -0.431  0.00  0.00    +0.010 A 
ATOM     13  C   LIG    1       -0.114   7.504  -0.627  0.00  0.00    +0.000 A 
ATOM     14  C   LIG    1        0.965   6.887  -0.021  0.00  0.00    +0.010 A 
ENDBRANCH   8   9
ENDBRANCH   1   2
BRANCH   1  18
ATOM     15  C   LIG    1        1.247  -0.420  -0.012  0.00  0.00    +0.210 A 
ATOM     16  N   LIG    1        0.002  -0.004   0.002  0.00  0.00    -0.270 NA
ATOM     17  N   LIG    1       -0.015   1.282   0.009  0.00  0.00    -0.260 NA
ATOM     18  C   LIG    1        1.207   1.735  -0.000  0.00  0.00    +0.170 A 
ATOM     19  O   LIG    1        2.034   0.675  -0.014  0.00  0.00    -0.220 OA
BRANCH  15  24
ATOM     20  C   LIG    1        1.202  -4.179  -0.033  0.00  0.00    +0.130 A 
ATOM     21  C   LIG    1        2.561  -4.463  -0.048  0.00  0.00    -0.040 A 
ATOM     22  C   LIG    1        3.486  -3.436  -0.051  0.00  0.00    +0.060 A 
ATOM     23  C   LIG    1        3.066  -2.122  -0.040  0.00  0.00    +0.010 A 
ATOM     24  C   LIG    1        1.701  -1.827  -0.024  0.00  0.00    +0.010 A 
ATOM     25  C   LIG    1        0.769  -2.864  -0.015  0.00  0.00    +0.050 A 
BRANCH  20  27
ATOM     26  C   LIG    1        0.813  -6.524  -0.041  0.00  0.00    +0.240 C 
ATOM     27  O   LIG    1        0.296  -5.192  -0.029  0.00  0.00    -0.310 OA
ENDBRANCH  20  27
ENDBRANCH  15  24
ENDBRANCH   1  18
TORSDOF 5
