REMARK  Name = ZINCrH000004oFnC.0
REMARK                            x       y       z     vdW  Elec       q    Type
REMARK                         _______ _______ _______ _____ _____    ______ ____
ROOT
ATOM      1  C   LIG    1       -2.807   0.482  -2.171  0.00  0.00    +0.600 C 
ATOM      2  N   LIG    1       -2.152   0.949  -1.089  0.00  0.00    -0.620 N 
ATOM      3  C   LIG    1       -0.687   0.880  -1.014  0.00  0.00    +0.260 C 
ATOM      4  C   LIG    1       -0.292   0.174   0.287  0.00  0.00    +0.030 C 
ATOM      5  C   LIG    1       -0.949   0.888   1.471  0.00  0.00    +0.060 C 
ATOM      6  C   LIG    1       -2.472   0.822   1.327  0.00  0.00    -0.010 C 
ATOM      7  C   LIG    1       -2.891   1.536   0.038  0.00  0.00    +0.310 C 
ATOM      8  O   LIG    1       -4.002   0.258  -2.109  0.00  0.00    -0.520 OA
ENDROOT
BRANCH   1  16
ATOM      9  C   LIG    1       -1.224  -1.498  -9.237  0.00  0.00    +0.030 C 
ATOM     10  C   LIG    1       -1.023  -0.685  -7.956  0.00  0.00    -0.020 C 
ATOM     11  C   LIG    1        0.389  -0.924  -7.415  0.00  0.00    +0.030 C 
ATOM     12  C   LIG    1        0.674   0.088  -6.302  0.00  0.00    +0.110 C 
ATOM     13  C   LIG    1       -0.480   0.067  -5.317  0.00  0.00    -0.210 A 
ATOM     14  C   LIG    1       -1.694  -0.469  -5.576  0.00  0.00    -0.120 A 
ATOM     15  C   LIG    1       -2.587  -0.371  -4.524  0.00  0.00    +0.110 A 
ATOM     16  C   LIG    1       -2.080   0.246  -3.422  0.00  0.00    -0.280 A 
ATOM     17  S   LIG    1       -0.420   0.720  -3.740  0.00  0.00    +0.220 S 
ATOM     18  C   LIG    1       -2.046  -1.122  -6.907  0.00  0.00    +0.110 C 
ENDBRANCH   1  16
BRANCH   6  19
ATOM     19  C   LIG    1       -3.118   1.498   2.509  0.00  0.00    +0.510 C 
ATOM     20  N   LIG    1       -4.462   1.564   2.595  0.00  0.00    -0.660 N 
ATOM     21  H   LIG    1       -5.013   1.115   1.935  0.00  0.00    +0.420 HD
ATOM     22  O   LIG    1       -2.430   1.982   3.382  0.00  0.00    -0.460 OA
BRANCH  20  23
ATOM     23  C   LIG    1       -5.059   2.278   3.633  0.00  0.00    +0.360 A 
ATOM     24  C   LIG    1       -6.436   2.466   3.636  0.00  0.00    -0.070 A 
ATOM     25  C   LIG    1       -7.016   3.176   4.673  0.00  0.00    +0.090 A 
ATOM     26  C   LIG    1       -6.195   3.675   5.674  0.00  0.00    -0.060 A 
ATOM     27  C   LIG    1       -4.834   3.450   5.608  0.00  0.00    +0.290 A 
ATOM     28  N   LIG    1       -4.310   2.765   4.610  0.00  0.00    -0.480 NA
ENDBRANCH  20  23
ENDBRANCH   6  19
TORSDOF 3
