REMARK  Name = ZINCrD0000073Xql.0
REMARK                            x       y       z     vdW  Elec       q    Type
REMARK                         _______ _______ _______ _____ _____    ______ ____
ROOT
ATOM      1  C   LIG    1        4.438  -0.586   1.487  0.00  0.00    +0.090 C 
ATOM      2  C   LIG    1        3.744  -0.964   0.178  0.00  0.00    +0.190 C 
ENDROOT
BRANCH   2   3
ATOM      3  C   LIG    1        2.426  -0.239   0.080  0.00  0.00    +0.520 C 
ATOM      4  N   LIG    1        2.402   1.106  -0.015  0.00  0.00    -0.660 N 
ATOM      5  H   LIG    1        3.232   1.601  -0.101  0.00  0.00    +0.420 HD
ATOM      6  O   LIG    1        1.387  -0.865   0.087  0.00  0.00    -0.470 OA
BRANCH   4   7
ATOM      7  C   LIG    1        1.180   1.788   0.011  0.00  0.00    +0.220 A 
ATOM      8  C   LIG    1        0.076   1.213   0.627  0.00  0.00    +0.060 A 
ATOM      9  C   LIG    1       -1.130   1.887   0.646  0.00  0.00    +0.150 A 
ATOM     10  C   LIG    1       -1.236   3.136   0.064  0.00  0.00    -0.060 A 
ATOM     11  C   LIG    1       -0.139   3.712  -0.550  0.00  0.00    +0.150 A 
ATOM     12  C   LIG    1        1.069   3.041  -0.578  0.00  0.00    -0.080 A 
ATOM     13 CL   LIG    1        2.447   3.764  -1.350  0.00  0.00    -0.030 Cl
BRANCH  10  14
ATOM     14  N   LIG    1       -2.529   3.857   0.093  0.00  0.00    +0.030 N 
ATOM     15  O   LIG    1       -3.496   3.352   0.634  0.00  0.00    -0.150 OA
ATOM     16  O   LIG    1       -2.625   4.956  -0.424  0.00  0.00    -0.150 OA
ENDBRANCH  10  14
ENDBRANCH   4   7
ENDBRANCH   2   3
BRANCH   2  17
ATOM     17  O   LIG    1        3.510  -2.397   0.150  0.00  0.00    -0.310 OA
BRANCH  17  18
ATOM     18  C   LIG    1        4.482  -3.164  -0.382  0.00  0.00    +0.570 C 
ATOM     19  O   LIG    1        5.497  -2.650  -0.811  0.00  0.00    -0.490 OA
BRANCH  18  20
ATOM     20  C   LIG    1        4.315  -4.626  -0.444  0.00  0.00    +0.000 A 
ATOM     21  N   LIG    1        3.281  -5.321  -0.017  0.00  0.00    -0.160 NA
ATOM     22  N   LIG    1        3.434  -6.580  -0.216  0.00  0.00    -0.400 N 
ATOM     23  H   LIG    1        2.782  -7.255   0.027  0.00  0.00    +0.450 HD
ATOM     24  C   LIG    1        4.640  -6.847  -0.810  0.00  0.00    +0.060 A 
ATOM     25  C   LIG    1        5.290  -8.003  -1.228  0.00  0.00    +0.020 A 
ATOM     26  C   LIG    1        6.536  -7.914  -1.807  0.00  0.00    +0.060 A 
ATOM     27  C   LIG    1        7.152  -6.681  -1.979  0.00  0.00    +0.000 A 
ATOM     28  C   LIG    1        6.530  -5.532  -1.576  0.00  0.00    +0.090 A 
ATOM     29  C   LIG    1        5.271  -5.600  -0.988  0.00  0.00    -0.100 A 
ENDBRANCH  18  20
ENDBRANCH  17  18
ENDBRANCH   2  17
TORSDOF 6
