REMARK  Name = ZINCpk00000kE6Mk.0
REMARK                            x       y       z     vdW  Elec       q    Type
REMARK                         _______ _______ _______ _____ _____    ______ ____
ROOT
ATOM      1  C   LIG    1        4.286   0.661   0.626  0.00  0.00    +0.560 C 
ATOM      2  N   LIG    1        3.412   1.614   1.016  0.00  0.00    -0.590 N 
ATOM      3  C   LIG    1        2.001   1.303   0.982  0.00  0.00    +0.250 C 
ATOM      4  C   LIG    1        1.429   1.669  -0.406  0.00  0.00    +0.120 C 
ATOM      5  C   LIG    1        1.377   3.120  -0.608  0.00  0.00    +0.170 C 
ATOM      6  C   LIG    1        2.655   3.904  -0.470  0.00  0.00    +0.060 C 
ATOM      7  C   LIG    1        3.197   4.132   0.901  0.00  0.00    -0.060 C 
ATOM      8  C   LIG    1        2.136   4.590   1.900  0.00  0.00    +0.040 C 
ATOM      9  C   LIG    1        4.236   5.278   0.799  0.00  0.00    +0.030 C 
ATOM     10  C   LIG    1        3.941   2.910   1.463  0.00  0.00    +0.280 C 
ATOM     11  O   LIG    1        5.481   0.849   0.743  0.00  0.00    -0.510 OA
ENDROOT
BRANCH   1  14
ATOM     12  C   LIG    1        3.260  -1.401   2.360  0.00  0.00    +0.140 C 
ATOM     13  C   LIG    1        3.301  -1.598   0.867  0.00  0.00    -0.130 A 
ATOM     14  C   LIG    1        3.789  -0.614   0.055  0.00  0.00    -0.040 A 
ATOM     15  C   LIG    1        3.804  -0.845  -1.397  0.00  0.00    -0.100 A 
ATOM     16  C   LIG    1        4.301   0.129  -2.269  0.00  0.00    +0.070 A 
ATOM     17  C   LIG    1        4.314  -0.106  -3.615  0.00  0.00    -0.010 A 
ATOM     18  C   LIG    1        3.842  -1.308  -4.125  0.00  0.00    +0.080 A 
ATOM     19  C   LIG    1        3.354  -2.284  -3.284  0.00  0.00    -0.020 A 
ATOM     20  C   LIG    1        3.331  -2.066  -1.909  0.00  0.00    +0.180 A 
ATOM     21  N   LIG    1        2.846  -3.034  -1.056  0.00  0.00    -0.630 N 
ATOM     22  H   LIG    1        2.519  -3.870  -1.423  0.00  0.00    +0.420 HD
ATOM     23  C   LIG    1        2.817  -2.843   0.275  0.00  0.00    +0.540 A 
ATOM     24  O   LIG    1        2.382  -3.722   0.998  0.00  0.00    -0.520 OA
ENDBRANCH   1  14
BRANCH   5  25
ATOM     25  O   LIG    1        0.295   3.674   0.129  0.00  0.00    -0.550 OA
ATOM     26  H   LIG    1       -0.571   3.324  -0.122  0.00  0.00    +0.380 HD
ENDBRANCH   5  25
BRANCH   4  27
ATOM     27  O   LIG    1        0.106   1.131  -0.524  0.00  0.00    -0.560 OA
ATOM     28  H   LIG    1        0.069   0.166  -0.483  0.00  0.00    +0.390 HD
ENDBRANCH   4  27
TORSDOF 3
