REMARK  Name = ZINCtV000002Cv8u.0
REMARK                            x       y       z     vdW  Elec       q    Type
REMARK                         _______ _______ _______ _____ _____    ______ ____
ROOT
ATOM      1  C   LIG    1        2.508  -6.752  -3.779  0.00  0.00    +0.150 A 
ATOM      2  N   LIG    1        2.983  -6.962  -4.983  0.00  0.00    -0.440 NA
ATOM      3  C   LIG    1        1.970  -7.343  -5.791  0.00  0.00    +0.060 A 
ATOM      4  C   LIG    1        0.824  -7.361  -5.025  0.00  0.00    +0.010 A 
ATOM      5  O   LIG    1        1.188  -6.994  -3.773  0.00  0.00    -0.190 OA
ENDROOT
BRANCH   4   6
ATOM      6  C   LIG    1       -0.533  -7.717  -5.479  0.00  0.00    -0.020 A 
ATOM      7  C   LIG    1       -0.737  -8.868  -6.245  0.00  0.00    +0.050 A 
ATOM      8  C   LIG    1       -2.010  -9.198  -6.662  0.00  0.00    +0.010 A 
ATOM      9  C   LIG    1       -3.082  -8.386  -6.333  0.00  0.00    +0.030 A 
ATOM     10  C   LIG    1       -2.886  -7.241  -5.580  0.00  0.00    +0.010 A 
ATOM     11  C   LIG    1       -1.619  -6.902  -5.151  0.00  0.00    +0.040 A 
ENDBRANCH   4   6
BRANCH   3  12
ATOM     12  C   LIG    1        2.072  -7.678  -7.230  0.00  0.00    -0.020 A 
ATOM     13  C   LIG    1        3.161  -8.410  -7.704  0.00  0.00    +0.040 A 
ATOM     14  C   LIG    1        3.247  -8.723  -9.044  0.00  0.00    +0.010 A 
ATOM     15  C   LIG    1        2.262  -8.305  -9.921  0.00  0.00    +0.020 A 
ATOM     16  C   LIG    1        1.182  -7.574  -9.458  0.00  0.00    +0.010 A 
ATOM     17  C   LIG    1        1.082  -7.259  -8.118  0.00  0.00    +0.030 A 
ENDBRANCH   3  12
BRANCH   1  18
ATOM     18  S   LIG    1        3.456  -6.239  -2.385  0.00  0.00    +0.160 S 
BRANCH  18  19
ATOM     19  C   LIG    1        2.154  -6.165  -1.130  0.00  0.00    +0.080 C 
BRANCH  19  22
ATOM     20  N   LIG    1        1.961  -5.610   1.272  0.00  0.00    -0.720 N 
ATOM     21  H   LIG    1        1.012  -5.796   1.207  0.00  0.00    +0.400 HD
ATOM     22  C   LIG    1        2.749  -5.735   0.186  0.00  0.00    +0.540 C 
ATOM     23  O   LIG    1        3.936  -5.502   0.267  0.00  0.00    -0.510 OA
BRANCH  20  25
ATOM     24  C   LIG    1        3.101  -6.413   3.281  0.00  0.00    +0.040 C 
ATOM     25  C   LIG    1        2.539  -5.191   2.552  0.00  0.00    +0.330 C 
BRANCH  25  26
ATOM     26  C   LIG    1        1.472  -4.548   3.399  0.00  0.00    -0.200 A 
ATOM     27  C   LIG    1        1.644  -3.468   4.163  0.00  0.00    +0.020 A 
ATOM     28  C   LIG    1        0.517  -3.056   4.853  0.00  0.00    +0.020 A 
ATOM     29  C   LIG    1       -0.570  -3.801   4.649  0.00  0.00    -0.030 A 
ATOM     30  S   LIG    1       -0.191  -5.104   3.531  0.00  0.00    +0.100 S 
ENDBRANCH  25  26
ENDBRANCH  20  25
ENDBRANCH  19  22
ENDBRANCH  18  19
ENDBRANCH   1  18
TORSDOF 7
