REMARK  Name = ZINCvU0000000JWj.0
REMARK                            x       y       z     vdW  Elec       q    Type
REMARK                         _______ _______ _______ _____ _____    ______ ____
ROOT
ATOM      1  C   LIG    1        6.641   4.509  -2.330  0.00  0.00    +0.110 A 
ATOM      2  C   LIG    1        5.413   3.880  -2.315  0.00  0.00    +0.010 A 
ATOM      3  C   LIG    1        4.341   4.461  -1.625  0.00  0.00    -0.090 A 
ATOM      4  C   LIG    1        4.521   5.680  -0.960  0.00  0.00    +0.040 A 
ATOM      5  C   LIG    1        5.753   6.297  -0.976  0.00  0.00    -0.040 A 
ATOM      6  C   LIG    1        6.814   5.720  -1.660  0.00  0.00    +0.120 A 
ENDROOT
BRANCH   1   8
ATOM      7  C   LIG    1        7.437   2.706  -3.662  0.00  0.00    +0.240 C 
ATOM      8  O   LIG    1        7.684   3.947  -2.999  0.00  0.00    -0.300 OA
ENDBRANCH   1   8
BRANCH   3   9
ATOM      9  C   LIG    1        3.033   3.798  -1.605  0.00  0.00    +0.200 C 
ATOM     10  C   LIG    1        2.187   3.992  -0.554  0.00  0.00    -0.040 C 
BRANCH  10  11
ATOM     11  C   LIG    1        0.802   3.473  -0.613  0.00  0.00    +0.180 A 
ATOM     12  C   LIG    1       -0.059   3.674   0.465  0.00  0.00    -0.030 A 
ATOM     13  C   LIG    1       -1.350   3.182   0.395  0.00  0.00    +0.070 A 
ATOM     14  C   LIG    1       -1.741   2.507  -0.753  0.00  0.00    -0.030 A 
ATOM     15  C   LIG    1       -0.834   2.339  -1.783  0.00  0.00    +0.270 A 
ATOM     16  N   LIG    1        0.390   2.817  -1.692  0.00  0.00    -0.480 NA
ENDBRANCH  10  11
BRANCH  10  17
ATOM     17  C   LIG    1        2.637   4.700   0.607  0.00  0.00    +0.260 C 
ATOM     18  N   LIG    1        2.995   5.261   1.527  0.00  0.00    -0.410 NA
ENDBRANCH  10  17
ENDBRANCH   3   9
BRANCH   6  19
ATOM     19  O   LIG    1        8.024   6.336  -1.677  0.00  0.00    -0.270 OA
BRANCH  19  20
ATOM     20  C   LIG    1        8.132   7.574  -0.971  0.00  0.00    +0.240 C 
BRANCH  20  21
ATOM     21  C   LIG    1        9.536   8.106  -1.100  0.00  0.00    +0.510 C 
ATOM     22  N   LIG    1        9.873   9.270  -0.510  0.00  0.00    -0.670 N 
ATOM     23  H   LIG    1        9.236   9.726   0.062  0.00  0.00    +0.420 HD
ATOM     24  O   LIG    1       10.363   7.486  -1.735  0.00  0.00    -0.470 OA
BRANCH  22  25
ATOM     25  C   LIG    1       11.142   9.822  -0.724  0.00  0.00    +0.160 A 
ATOM     26  C   LIG    1       12.280   9.051  -0.518  0.00  0.00    -0.020 A 
ATOM     27  C   LIG    1       13.531   9.597  -0.736  0.00  0.00    +0.060 A 
ATOM     28  C   LIG    1       13.651  10.912  -1.146  0.00  0.00    +0.050 A 
ATOM     29  C   LIG    1       12.521  11.684  -1.346  0.00  0.00    +0.060 A 
ATOM     30 CL   LIG    1       12.130   7.403   0.004  0.00  0.00    -0.030 Cl
ATOM     31  C   LIG    1       11.267  11.142  -1.137  0.00  0.00    -0.040 A 
ATOM     32 CL   LIG    1        9.849  12.112  -1.387  0.00  0.00    -0.050 Cl
ENDBRANCH  22  25
ENDBRANCH  20  21
ENDBRANCH  19  20
ENDBRANCH   6  19
TORSDOF 8
