REMARK  Name = ZINCvU0000000Jwj.1
REMARK                            x       y       z     vdW  Elec       q    Type
REMARK                         _______ _______ _______ _____ _____    ______ ____
ROOT
ATOM      1  N   LIG    1        1.099  11.156  -1.246  0.00  0.00    -0.620 N 
ATOM      2  H   LIG    1        0.196  11.284  -1.577  0.00  0.00    +0.430 HD
ATOM      3  C   LIG    1        1.766  12.190  -0.695  0.00  0.00    +0.510 C 
ATOM      4  O   LIG    1        2.895  12.031  -0.280  0.00  0.00    -0.450 OA
ENDROOT
BRANCH   1   8
ATOM      5  C   LIG    1        2.087   7.827  -1.745  0.00  0.00    +0.210 A 
ATOM      6  N   LIG    1        3.138   8.360  -1.169  0.00  0.00    -0.260 NA
ATOM      7  N   LIG    1        2.909   9.603  -0.931  0.00  0.00    -0.260 NA
ATOM      8  C   LIG    1        1.702   9.912  -1.337  0.00  0.00    +0.380 A 
ATOM      9  O   LIG    1        1.155   8.798  -1.861  0.00  0.00    -0.240 OA
BRANCH   5  13
ATOM     10  C   LIG    1        1.681   3.789  -3.001  0.00  0.00    +0.160 A 
ATOM     11  C   LIG    1        0.634   4.682  -3.190  0.00  0.00    -0.070 A 
ATOM     12  C   LIG    1        0.760   5.991  -2.780  0.00  0.00    +0.090 A 
ATOM     13  C   LIG    1        1.946   6.423  -2.182  0.00  0.00    -0.060 A 
ATOM     14  C   LIG    1        2.998   5.524  -1.998  0.00  0.00    +0.130 A 
ATOM     15  C   LIG    1        2.863   4.215  -2.407  0.00  0.00    -0.010 A 
BRANCH  10  16
ATOM     16  O   LIG    1        1.552   2.498  -3.402  0.00  0.00    -0.310 OA
BRANCH  16  18
ATOM     17  C   LIG    1        0.351   0.647  -4.388  0.00  0.00    +0.070 C 
ATOM     18  C   LIG    1        0.310   2.127  -4.005  0.00  0.00    +0.190 C 
ENDBRANCH  16  18
ENDBRANCH  10  16
ENDBRANCH   5  13
ENDBRANCH   1   8
BRANCH   3  19
ATOM     19  C   LIG    1        1.110  13.543  -0.595  0.00  0.00    +0.100 C 
BRANCH  19  20
ATOM     20  C   LIG    1        2.076  14.530   0.064  0.00  0.00    +0.110 C 
BRANCH  20  21
ATOM     21  C   LIG    1        2.334  14.106   1.487  0.00  0.00    -0.070 A 
ATOM     22  C   LIG    1        1.273  13.859   2.338  0.00  0.00    +0.000 A 
ATOM     23  C   LIG    1        1.510  13.465   3.642  0.00  0.00    +0.000 A 
ATOM     24  C   LIG    1        2.808  13.329   4.097  0.00  0.00    +0.000 A 
ATOM     25  C   LIG    1        3.869  13.582   3.248  0.00  0.00    +0.000 A 
ATOM     26  C   LIG    1        3.632  13.970   1.943  0.00  0.00    +0.030 A 
ENDBRANCH  20  21
BRANCH  20  27
ATOM     27  C   LIG    1        1.469  15.909   0.053  0.00  0.00    -0.080 A 
ATOM     28  C   LIG    1        2.189  16.978  -0.447  0.00  0.00    +0.010 A 
ATOM     29  C   LIG    1        1.631  18.242  -0.461  0.00  0.00    +0.000 A 
ATOM     30  C   LIG    1        0.355  18.440   0.034  0.00  0.00    +0.000 A 
ATOM     31  C   LIG    1       -0.363  17.372   0.539  0.00  0.00    +0.000 A 
ATOM     32  C   LIG    1        0.193  16.107   0.548  0.00  0.00    +0.010 A 
ENDBRANCH  20  27
ENDBRANCH  19  20
ENDBRANCH   3  19
TORSDOF 8
