REMARK  Name = ZINCb80000006lgj.0
REMARK                            x       y       z     vdW  Elec       q    Type
REMARK                         _______ _______ _______ _____ _____    ______ ____
ROOT
ATOM      1  C   LIG    1       -0.753   1.593  -1.232  0.00  0.00    +0.190 C 
ENDROOT
BRANCH   1   2
ATOM      2  N   LIG    1       -2.091   0.989  -1.284  0.00  0.00    -0.630 N 
ATOM      3  H   LIG    1       -2.579   1.323  -2.101  0.00  0.00    +0.450 HD
ATOM      4  H   LIG    1       -2.608   1.244  -0.456  0.00  0.00    +0.430 HD
ATOM      5  H   LIG    1       -2.005  -0.015  -1.331  0.00  0.00    +0.430 HD
ENDBRANCH   1   2
BRANCH   1   7
ATOM      6  C   LIG    1       -0.729   1.579   1.267  0.00  0.00    +0.030 C 
ATOM      7  C   LIG    1       -0.013   1.086   0.008  0.00  0.00    +0.050 C 
ENDBRANCH   1   7
BRANCH   1   8
ATOM      8  C   LIG    1        0.031   1.205  -2.487  0.00  0.00    +0.180 C 
BRANCH   8   9
ATOM      9  O   LIG    1       -0.597   1.778  -3.636  0.00  0.00    -0.370 OA
BRANCH   9  10
ATOM     10  C   LIG    1        0.059   1.475  -4.869  0.00  0.00    +0.080 C 
ATOM     11  C   LIG    1        1.108   2.549  -5.165  0.00  0.00    +0.020 C 
BRANCH  10  12
ATOM     12  C   LIG    1       -0.955   1.442  -5.983  0.00  0.00    +0.500 C 
ATOM     13  O   LIG    1       -0.615   1.111  -7.106  0.00  0.00    -0.680 OA
ATOM     14  O   LIG    1       -2.114   1.746  -5.761  0.00  0.00    -0.680 OA
ENDBRANCH  10  12
ENDBRANCH   9  10
ENDBRANCH   8   9
ENDBRANCH   1   8
TORSDOF 6
