REMARK  Name = ZINCqH0000008tTA.0
REMARK                            x       y       z     vdW  Elec       q    Type
REMARK                         _______ _______ _______ _____ _____    ______ ____
ROOT
ATOM      1  C   LIG    1        4.963   5.558   0.697  0.00  0.00    +0.280 A 
ATOM      2  N   LIG    1        5.718   4.515   0.508  0.00  0.00    -0.450 NA
ATOM      3  C   LIG    1        6.823   4.604   1.292  0.00  0.00    +0.040 A 
ATOM      4  C   LIG    1        7.936   3.782   1.484  0.00  0.00    +0.140 A 
ATOM      5  C   LIG    1        8.910   4.151   2.369  0.00  0.00    -0.190 A 
ATOM      6  C   LIG    1        8.807   5.338   3.080  0.00  0.00    +0.090 A 
ATOM      7  C   LIG    1        7.717   6.164   2.907  0.00  0.00    +0.040 A 
ATOM      8  C   LIG    1        6.718   5.805   2.013  0.00  0.00    +0.080 A 
ATOM      9  N   LIG    1        5.533   6.389   1.611  0.00  0.00    -0.480 N 
ATOM     10  C   LIG    1        4.989   7.664   2.083  0.00  0.00    +0.330 C 
ENDROOT
BRANCH   5  11
ATOM     11  C   LIG    1       10.109   3.261   2.572  0.00  0.00    +0.510 C 
ATOM     12  F   LIG    1       10.788   3.108   1.358  0.00  0.00    -0.170 F 
ATOM     13  F   LIG    1        9.688   2.009   3.032  0.00  0.00    -0.180 F 
ATOM     14  F   LIG    1       10.965   3.840   3.515  0.00  0.00    -0.180 F 
ENDBRANCH   5  11
BRANCH   1  16
ATOM     15  C   LIG    1        3.916   6.247  -1.443  0.00  0.00    +0.070 C 
ATOM     16  C   LIG    1        3.651   5.811  -0.000  0.00  0.00    +0.290 C 
BRANCH  16  17
ATOM     17  O   LIG    1        2.860   4.594   0.000  0.00  0.00    -0.340 OA
BRANCH  17  18
ATOM     18  C   LIG    1        1.518   4.736   0.013  0.00  0.00    +0.540 C 
ATOM     19  O   LIG    1        1.025   5.846   0.024  0.00  0.00    -0.480 OA
BRANCH  18  20
ATOM     20  C   LIG    1        0.654   3.548   0.015  0.00  0.00    +0.000 A 
ATOM     21  C   LIG    1       -0.726   3.550   0.028  0.00  0.00    +0.070 A 
ATOM     22  C   LIG    1       -1.147   2.222   0.019  0.00  0.00    +0.040 A 
ATOM     23  C   LIG    1       -0.017   1.428   0.010  0.00  0.00    +0.110 A 
ATOM     24  N   LIG    1        1.079   2.244   0.004  0.00  0.00    -0.500 N 
ATOM     25  H   LIG    1        2.003   1.950  -0.007  0.00  0.00    +0.430 HD
BRANCH  23  26
ATOM     26  C   LIG    1        0.002  -0.004   0.002  0.00  0.00    +0.270 C 
ATOM     27  N   LIG    1        0.018  -1.140  -0.004  0.00  0.00    -0.380 NA
ENDBRANCH  23  26
ENDBRANCH  18  20
ENDBRANCH  17  18
ENDBRANCH  16  17
ENDBRANCH   1  16
TORSDOF 6
