REMARK  Name = ZINCvU0000000FCF.0
REMARK                            x       y       z     vdW  Elec       q    Type
REMARK                         _______ _______ _______ _____ _____    ______ ____
ROOT
ATOM      1  N   LIG    1       -6.115   3.487   0.081  0.00  0.00    -0.620 N 
ATOM      2  H   LIG    1       -6.106   2.517   0.078  0.00  0.00    +0.420 HD
ATOM      3  C   LIG    1       -4.954   4.172   0.071  0.00  0.00    +0.550 C 
ATOM      4  O   LIG    1       -4.966   5.389   0.076  0.00  0.00    -0.510 OA
ENDROOT
BRANCH   1   8
ATOM      5  C   LIG    1       -9.544   4.412   0.121  0.00  0.00    +0.180 A 
ATOM      6  C   LIG    1       -9.238   5.723   0.123  0.00  0.00    -0.150 A 
ATOM      7  S   LIG    1       -7.482   5.871   0.111  0.00  0.00    +0.240 S 
ATOM      8  C   LIG    1       -7.324   4.170   0.096  0.00  0.00    +0.240 A 
ATOM      9  N   LIG    1       -8.490   3.607   0.107  0.00  0.00    -0.510 NA
BRANCH   5  13
ATOM     10  N   LIG    1      -12.697   2.578   0.147  0.00  0.00    -0.440 N 
ATOM     11  C   LIG    1      -13.169   3.857   0.156  0.00  0.00    +0.020 A 
ATOM     12  C   LIG    1      -12.120   4.701   0.155  0.00  0.00    -0.030 A 
ATOM     13  C   LIG    1      -10.942   3.911   0.134  0.00  0.00    -0.110 A 
ATOM     14  C   LIG    1      -14.622   4.259   0.173  0.00  0.00    +0.130 C 
ATOM     15  C   LIG    1      -11.333   2.609   0.133  0.00  0.00    +0.060 A 
ATOM     16  C   LIG    1      -10.420   1.411   0.120  0.00  0.00    +0.140 C 
BRANCH  10  17
ATOM     17  C   LIG    1      -13.520   1.366   0.151  0.00  0.00    +0.320 C 
BRANCH  17  19
ATOM     18  C   LIG    1      -15.020   0.778   1.986  0.00  0.00    +0.050 C 
ATOM     19  C   LIG    1      -13.788   0.945   1.573  0.00  0.00    -0.070 C 
ENDBRANCH  17  19
ENDBRANCH  10  17
ENDBRANCH   5  13
ENDBRANCH   1   8
BRANCH   3  20
ATOM     20  C   LIG    1       -3.682   3.453   0.056  0.00  0.00    -0.080 C 
ATOM     21  C   LIG    1       -2.519   4.139   0.046  0.00  0.00    +0.170 C 
BRANCH  21  22
ATOM     22  C   LIG    1       -1.240   3.416   0.030  0.00  0.00    -0.080 A 
ATOM     23  C   LIG    1       -1.222   2.018   0.019  0.00  0.00    +0.050 A 
ATOM     24  C   LIG    1       -0.016   1.347   0.009  0.00  0.00    +0.070 A 
ATOM     25  C   LIG    1        1.177   2.054   0.002  0.00  0.00    +0.060 A 
ATOM     26  C   LIG    1        1.173   3.437   0.008  0.00  0.00    -0.180 A 
ATOM     27  C   LIG    1        2.482   4.185   0.008  0.00  0.00    +0.300 C 
ATOM     28  O   LIG    1        2.248   5.548  -0.357  0.00  0.00    -0.380 OA
ATOM     29  C   LIG    1        1.171   6.147   0.373  0.00  0.00    +0.440 C 
ATOM     30  O   LIG    1       -0.045   5.484   0.017  0.00  0.00    -0.320 OA
ATOM     31  F   LIG    1        0.002  -0.004   0.002  0.00  0.00    -0.130 F 
ATOM     32  C   LIG    1       -0.027   4.126   0.020  0.00  0.00    +0.160 A 
ENDBRANCH  21  22
ENDBRANCH   3  20
TORSDOF 6
