REMARK  Name = ZINCqH0000051jSE.0
REMARK                            x       y       z     vdW  Elec       q    Type
REMARK                         _______ _______ _______ _____ _____    ______ ____
ROOT
ATOM      1  C   LIG    1        2.335   6.735   0.032  0.00  0.00    +0.290 C 
ENDROOT
BRANCH   1   2
ATOM      2  C   LIG    1        3.484   7.745   0.012  0.00  0.00    +0.000 C 
ATOM      3  C   LIG    1        4.310   7.669   1.317  0.00  0.00    +0.080 C 
ATOM      4  C   LIG    1        4.683   9.107   1.605  0.00  0.00    +0.520 C 
ATOM      5  N   LIG    1        3.908   9.938   0.885  0.00  0.00    -0.560 N 
ATOM      6  O   LIG    1        5.553   9.459   2.373  0.00  0.00    -0.500 OA
ATOM      7  C   LIG    1        2.948   9.193   0.063  0.00  0.00    +0.290 C 
BRANCH   5   8
ATOM      8  C   LIG    1        4.006  11.334   0.917  0.00  0.00    +0.170 A 
ATOM      9  C   LIG    1        4.862  11.951   1.819  0.00  0.00    +0.020 A 
ATOM     10  C   LIG    1        4.960  13.328   1.845  0.00  0.00    +0.060 A 
ATOM     11  C   LIG    1        4.199  14.094   0.979  0.00  0.00    -0.060 A 
ATOM     12  C   LIG    1        3.341  13.481   0.082  0.00  0.00    +0.060 A 
ATOM     13 CL   LIG    1        4.319  15.825   1.018  0.00  0.00    -0.070 Cl
ATOM     14  C   LIG    1        3.243  12.104   0.049  0.00  0.00    -0.010 A 
ENDBRANCH   5   8
ENDBRANCH   1   2
BRANCH   1  17
ATOM     15  O   LIG    1        0.845   4.487   0.052  0.00  0.00    -0.520 OA
ATOM     16  C   LIG    1        2.047   4.315   0.024  0.00  0.00    +0.570 C 
ATOM     17  N   LIG    1        2.880   5.375   0.011  0.00  0.00    -0.710 N 
ATOM     18  H   LIG    1        3.840   5.237  -0.011  0.00  0.00    +0.410 HD
BRANCH  16  19
ATOM     19  C   LIG    1        2.598   2.943   0.003  0.00  0.00    +0.120 A 
ATOM     20  C   LIG    1        1.724   1.841   0.016  0.00  0.00    -0.160 A 
ATOM     21  S   LIG    1       -0.030   1.749   0.054  0.00  0.00    +0.190 S 
ATOM     22  C   LIG    1       -0.006  -0.004   0.043  0.00  0.00    -0.020 A 
ATOM     23  C   LIG    1        1.229  -0.470   0.012  0.00  0.00    +0.020 A 
ATOM     24  C   LIG    1        2.263   0.546  -0.004  0.00  0.00    -0.040 A 
ATOM     25  C   LIG    1        3.668   0.422  -0.037  0.00  0.00    +0.050 A 
ATOM     26  C   LIG    1        4.447   1.558  -0.048  0.00  0.00    +0.250 A 
ATOM     27  N   LIG    1        3.909   2.761  -0.028  0.00  0.00    -0.440 NA
ENDBRANCH  16  19
ENDBRANCH   1  17
TORSDOF 4
