REMARK  Name = ZINCqH0000031JSE.0
REMARK                            x       y       z     vdW  Elec       q    Type
REMARK                         _______ _______ _______ _____ _____    ______ ____
ROOT
ATOM      1  C   LIG    1       -0.895   5.484  -0.565  0.00  0.00    +0.520 C 
ATOM      2  N   LIG    1       -2.038   6.198  -0.552  0.00  0.00    -0.620 N 
ATOM      3  H   LIG    1       -2.785   5.909  -0.005  0.00  0.00    +0.430 HD
ATOM      4  O   LIG    1        0.038   5.846  -1.250  0.00  0.00    -0.490 OA
ENDROOT
BRANCH   2   5
ATOM      5  C   LIG    1       -2.147   7.346  -1.321  0.00  0.00    +0.310 A 
ATOM      6  N   LIG    1       -3.192   8.096  -1.379  0.00  0.00    -0.500 NA
ATOM      7  C   LIG    1       -3.146   9.183  -2.176  0.00  0.00    +0.070 A 
ATOM      8  C   LIG    1       -4.148  10.151  -2.409  0.00  0.00    +0.180 A 
ATOM      9  C   LIG    1       -3.915  11.201  -3.264  0.00  0.00    -0.020 A 
ATOM     10  C   LIG    1       -2.693  11.327  -3.912  0.00  0.00    +0.140 A 
ATOM     11  C   LIG    1       -1.702  10.393  -3.699  0.00  0.00    +0.040 A 
ATOM     12  F   LIG    1       -2.477  12.363  -4.751  0.00  0.00    -0.120 F 
ATOM     13  F   LIG    1       -5.342  10.043  -1.787  0.00  0.00    -0.110 F 
ATOM     14  C   LIG    1       -1.921   9.322  -2.834  0.00  0.00    -0.180 A 
ATOM     15  S   LIG    1       -0.875   7.989  -2.351  0.00  0.00    +0.220 S 
ENDBRANCH   2   5
BRANCH   1  20
ATOM     16  C   LIG    1       -0.135   0.179   0.308  0.00  0.00    +0.530 C 
ATOM     17  N   LIG    1       -0.372   1.462   0.647  0.00  0.00    -0.610 N 
ATOM     18  C   LIG    1       -1.746   1.979   0.710  0.00  0.00    +0.290 C 
ATOM     19  C   LIG    1       -1.847   3.231  -0.160  0.00  0.00    +0.030 C 
ATOM     20  C   LIG    1       -0.777   4.236   0.271  0.00  0.00    +0.010 C 
ATOM     21  C   LIG    1        0.611   3.621   0.076  0.00  0.00    +0.050 C 
ATOM     22  C   LIG    1        0.740   2.372   0.953  0.00  0.00    +0.280 C 
ATOM     23  O   LIG    1        1.004  -0.207   0.153  0.00  0.00    -0.530 OA
BRANCH  16  25
ATOM     24  C   LIG    1       -0.747  -2.196  -0.060  0.00  0.00    +0.050 C 
ATOM     25  C   LIG    1       -1.287  -0.776   0.124  0.00  0.00    -0.090 C 
ATOM     26  C   LIG    1       -2.091  -0.372  -1.113  0.00  0.00    +0.060 C 
ATOM     27  C   LIG    1       -2.191  -0.729   1.357  0.00  0.00    +0.040 C 
ENDBRANCH  16  25
ENDBRANCH   1  20
TORSDOF 3
