REMARK  Name = ZINCpk000000nsKD.0
REMARK                            x       y       z     vdW  Elec       q    Type
REMARK                         _______ _______ _______ _____ _____    ______ ____
ROOT
ATOM      1  N   LIG    1       -0.879   6.744   0.136  0.00  0.00    -0.590 N 
ATOM      2  C   LIG    1        0.181   5.912   0.109  0.00  0.00    +0.540 C 
ATOM      3  O   LIG    1        1.306   6.365   0.095  0.00  0.00    -0.510 OA
ENDROOT
BRANCH   1   4
ATOM      4  C   LIG    1       -0.672   8.194   0.148  0.00  0.00    +0.280 C 
ATOM      5  C   LIG    1        0.240   8.576   1.327  0.00  0.00    +0.070 C 
ATOM      6  C   LIG    1        0.681  10.044   1.088  0.00  0.00    -0.300 C 
ATOM      7  S   LIG    1        1.051  10.062  -0.707  0.00  0.00    +2.390 S 
ATOM      8  O   LIG    1        0.515  11.243  -1.289  0.00  0.00    -0.940 OA
ATOM      9  O   LIG    1        2.418   9.731  -0.910  0.00  0.00    -0.920 OA
ATOM     10  C   LIG    1        0.006   8.633  -1.165  0.00  0.00    -0.330 C 
ENDBRANCH   1   4
BRANCH   1  11
ATOM     11  C   LIG    1       -2.239   6.198   0.152  0.00  0.00    +0.280 C 
BRANCH  11  13
ATOM     12  C   LIG    1       -2.733   7.143   2.411  0.00  0.00    +0.020 C 
ATOM     13  C   LIG    1       -2.634   5.856   1.590  0.00  0.00    -0.050 C 
ATOM     14  C   LIG    1       -3.988   5.144   1.592  0.00  0.00    +0.030 C 
ENDBRANCH  11  13
ENDBRANCH   1  11
BRANCH   2  15
ATOM     15  C   LIG    1       -0.032   4.420   0.096  0.00  0.00    +0.110 C 
BRANCH  15  16
ATOM     16  S   LIG    1        1.576   3.581   0.060  0.00  0.00    +0.080 S 
BRANCH  16  17
ATOM     17  C   LIG    1        1.132   1.876   0.049  0.00  0.00    +0.100 A 
ATOM     18  N   LIG    1       -0.088   1.388   0.063  0.00  0.00    -0.250 NA
ATOM     19  N   LIG    1       -0.056   0.102   0.048  0.00  0.00    -0.280 NA
ATOM     20  C   LIG    1        1.198  -0.311   0.024  0.00  0.00    +0.200 A 
ATOM     21  C   LIG    1        1.800  -1.585  -0.001  0.00  0.00    +0.080 A 
ATOM     22  C   LIG    1        3.156  -1.679  -0.024  0.00  0.00    +0.070 A 
ATOM     23  C   LIG    1        3.939  -0.509  -0.024  0.00  0.00    +0.030 A 
ATOM     24  C   LIG    1        3.354   0.705  -0.001  0.00  0.00    +0.240 A 
ATOM     25  N   LIG    1        1.992   0.817   0.023  0.00  0.00    -0.380 N 
ENDBRANCH  16  17
ENDBRANCH  15  16
ENDBRANCH   2  15
TORSDOF 6
