REMARK  Name = ZINCpk000000oYGy.0
REMARK                            x       y       z     vdW  Elec       q    Type
REMARK                         _______ _______ _______ _____ _____    ______ ____
ROOT
ATOM      1  C   LIG    1        2.246  -3.746  -1.482  0.00  0.00    +0.230 C 
ENDROOT
BRANCH   1   2
ATOM      2  O   LIG    1        2.375  -4.202  -2.855  0.00  0.00    -0.350 OA
BRANCH   2   3
ATOM      3  C   LIG    1        2.766  -5.472  -3.041  0.00  0.00    +0.470 C 
ATOM      4  O   LIG    1        2.993  -6.180  -2.089  0.00  0.00    -0.500 OA
BRANCH   3   5
ATOM      5  C   LIG    1        2.922  -6.015  -4.438  0.00  0.00    +0.110 C 
BRANCH   5   6
ATOM      6  C   LIG    1        3.374  -7.475  -4.370  0.00  0.00    +0.310 C 
BRANCH   6   8
ATOM      7  C   LIG    1        3.919  -9.279  -5.916  0.00  0.00    +0.650 C 
ATOM      8  N   LIG    1        3.526  -8.003  -5.729  0.00  0.00    -0.710 N 
ATOM      9  H   LIG    1        3.344  -7.434  -6.493  0.00  0.00    +0.410 HD
ATOM     10  O   LIG    1        4.147  -9.991  -4.958  0.00  0.00    -0.570 OA
BRANCH   7  11
ATOM     11  O   LIG    1        4.059  -9.764  -7.164  0.00  0.00    -0.370 OA
BRANCH  11  13
ATOM     12  C   LIG    1        4.587 -11.515  -8.771  0.00  0.00    +0.070 C 
ATOM     13  C   LIG    1        4.485 -11.146  -7.290  0.00  0.00    +0.220 C 
ENDBRANCH  11  13
ENDBRANCH   7  11
ENDBRANCH   6   8
ENDBRANCH   5   6
ENDBRANCH   3   5
ENDBRANCH   2   3
ENDBRANCH   1   2
BRANCH   1  14
ATOM     14  C   LIG    1        1.794  -2.285  -1.470  0.00  0.00    +0.040 C 
BRANCH  14  15
ATOM     15  C   LIG    1        1.658  -1.805  -0.024  0.00  0.00    +0.380 C 
BRANCH  15  16
ATOM     16  N   LIG    1        1.225  -0.405  -0.012  0.00  0.00    -0.140 N 
ATOM     17  N   LIG    1        0.002  -0.004   0.002  0.00  0.00    -0.050 NA
ATOM     18  N   LIG    1       -0.015   1.286   0.009  0.00  0.00    -0.270 NA
ATOM     19  C   LIG    1        1.259   1.701  -0.001  0.00  0.00    +0.210 A 
ATOM     20  N   LIG    1        2.009   0.617  -0.014  0.00  0.00    -0.300 NA
BRANCH  19  21
ATOM     21  C   LIG    1        1.733   3.108   0.002  0.00  0.00    -0.020 A 
ATOM     22  C   LIG    1        3.098   3.385  -0.004  0.00  0.00    +0.050 A 
ATOM     23  C   LIG    1        3.534   4.695  -0.007  0.00  0.00    +0.010 A 
ATOM     24  C   LIG    1        2.618   5.731   0.007  0.00  0.00    +0.030 A 
ATOM     25  C   LIG    1        1.261   5.461   0.019  0.00  0.00    +0.010 A 
ATOM     26  C   LIG    1        0.815   4.155   0.016  0.00  0.00    +0.060 A 
ENDBRANCH  19  21
ENDBRANCH  15  16
ENDBRANCH  14  15
ENDBRANCH   1  14
TORSDOF 11
