REMARK  Name = ZINCpe00000VVGUk.0
REMARK                            x       y       z     vdW  Elec       q    Type
REMARK                         _______ _______ _______ _____ _____    ______ ____
ROOT
ATOM      1  N   LIG    1       -1.033   1.184   1.184  0.00  0.00    -0.530 NA
ATOM      2  C   LIG    1       -2.442   1.362   0.836  0.00  0.00    +0.170 C 
ATOM      3  C   LIG    1       -2.670   1.989  -0.480  0.00  0.00    +0.020 C 
ATOM      4  C   LIG    1       -2.090   1.085  -1.598  0.00  0.00    +0.280 C 
ATOM      5  N   LIG    1       -0.645   1.092  -1.523  0.00  0.00    -0.590 N 
ATOM      6  C   LIG    1        0.121   0.135  -0.698  0.00  0.00    +0.260 C 
ATOM      7  C   LIG    1        0.033   2.012  -2.238  0.00  0.00    +0.520 C 
ATOM      8  O   LIG    1       -0.562   2.753  -2.992  0.00  0.00    -0.540 OA
ATOM      9  C   LIG    1       -0.539  -0.079   0.677  0.00  0.00    +0.170 C 
ENDROOT
BRANCH   7  10
ATOM     10  C   LIG    1        1.530   2.120  -2.100  0.00  0.00    -0.010 C 
ATOM     11  C   LIG    1        2.117   2.777  -3.355  0.00  0.00    +0.050 C 
ATOM     12  C   LIG    1        3.643   2.713  -3.274  0.00  0.00    +0.260 C 
ATOM     13  N   LIG    1        4.107   3.221  -1.989  0.00  0.00    -0.610 N 
ATOM     14  C   LIG    1        3.337   3.333  -0.906  0.00  0.00    +0.520 C 
ATOM     15  O   LIG    1        3.845   3.732   0.121  0.00  0.00    -0.550 OA
ATOM     16  C   LIG    1        5.509   3.634  -1.880  0.00  0.00    +0.280 C 
ATOM     17  C   LIG    1        1.874   2.993  -0.890  0.00  0.00    +0.100 C 
ENDBRANCH   7  10
BRANCH   1  18
ATOM     18  C   LIG    1       -0.833   1.285   2.636  0.00  0.00    +0.260 C 
BRANCH  18  21
ATOM     19  N   LIG    1        2.716   0.900   3.381  0.00  0.00    -0.370 N 
ATOM     20  C   LIG    1        1.656   1.663   3.043  0.00  0.00    +0.250 A 
ATOM     21  C   LIG    1        0.571   0.857   2.980  0.00  0.00    -0.250 A 
ATOM     22  C   LIG    1        0.981  -0.442   3.297  0.00  0.00    +0.230 A 
ATOM     23  N   LIG    1        2.268  -0.419   3.532  0.00  0.00    -0.290 NA
BRANCH  19  25
ATOM     24  C   LIG    1        4.593   0.965   4.949  0.00  0.00    +0.040 C 
ATOM     25  C   LIG    1        4.093   1.367   3.560  0.00  0.00    +0.310 C 
ENDBRANCH  19  25
ENDBRANCH  18  21
ENDBRANCH   1  18
TORSDOF 4
