REMARK  Name = ZINCpe000000Zufq.0
REMARK                            x       y       z     vdW  Elec       q    Type
REMARK                         _______ _______ _______ _____ _____    ______ ____
ROOT
ATOM      1  O   LIG    1        1.213   1.905  -2.200  0.00  0.00    -0.500 OA
ATOM      2  C   LIG    1        0.021   1.716  -2.316  0.00  0.00    +0.500 C 
ATOM      3  N   LIG    1       -0.542   1.690  -3.541  0.00  0.00    -0.620 N 
ATOM      4  C   LIG    1       -2.000   1.582  -3.700  0.00  0.00    +0.280 C 
ATOM      5  C   LIG    1       -2.466   2.702  -4.644  0.00  0.00    +0.200 C 
ATOM      6  N   LIG    1       -1.699   2.632  -5.894  0.00  0.00    -0.470 N 
ATOM      7  C   LIG    1       -0.269   2.871  -5.656  0.00  0.00    +0.210 C 
ATOM      8  C   LIG    1        0.287   1.764  -4.754  0.00  0.00    +0.300 C 
ENDROOT
BRANCH   2   9
ATOM      9  C   LIG    1       -0.832   1.508  -1.091  0.00  0.00    +0.230 C 
ATOM     10  N   LIG    1       -1.571   0.247  -1.214  0.00  0.00    -0.680 NA
ATOM     11  H   LIG    1       -2.461   0.392  -1.667  0.00  0.00    +0.350 HD
ATOM     12  C   LIG    1       -0.800  -0.790  -1.894  0.00  0.00    +0.160 C 
ATOM     13  C   LIG    1        0.381  -1.292  -1.092  0.00  0.00    +0.230 C 
ATOM     14  O   LIG    1        1.351  -0.252  -0.912  0.00  0.00    -0.320 OA
ATOM     15  C   LIG    1        1.131   0.572   0.149  0.00  0.00    +0.140 A 
ATOM     16  C   LIG    1        1.982   0.542   1.244  0.00  0.00    -0.010 A 
ATOM     17  C   LIG    1        1.736   1.366   2.326  0.00  0.00    +0.030 A 
ATOM     18  C   LIG    1        0.645   2.216   2.318  0.00  0.00    +0.000 A 
ATOM     19  C   LIG    1       -0.199   2.253   1.222  0.00  0.00    +0.040 A 
ATOM     20  C   LIG    1        0.054   1.438   0.138  0.00  0.00    -0.100 A 
ENDBRANCH   2   9
BRANCH   6  21
ATOM     21  C   LIG    1       -2.202   3.521  -6.838  0.00  0.00    +0.250 A 
ATOM     22  C   LIG    1       -3.545   3.463  -7.208  0.00  0.00    +0.020 A 
ATOM     23  C   LIG    1       -3.998   4.370  -8.153  0.00  0.00    +0.060 A 
ATOM     24  C   LIG    1       -3.087   5.280  -8.672  0.00  0.00    +0.190 A 
ATOM     25  N   LIG    1       -1.833   5.264  -8.264  0.00  0.00    -0.220 NA
ATOM     26  N   LIG    1       -1.409   4.430  -7.385  0.00  0.00    -0.280 NA
ENDBRANCH   6  21
TORSDOF 2
