REMARK  Name = ZINCpk00000eb94z.0
REMARK                            x       y       z     vdW  Elec       q    Type
REMARK                         _______ _______ _______ _____ _____    ______ ____
ROOT
ATOM      1  C   LIG    1       -2.769   1.436  -4.920  0.00  0.00    +0.120 C 
ENDROOT
BRANCH   1   4
ATOM      2  C   LIG    1       -5.357   1.660  -3.632  0.00  0.00    +0.150 C 
ATOM      3  C   LIG    1       -5.048   0.472  -4.505  0.00  0.00    +0.220 A 
ATOM      4  C   LIG    1       -3.814   0.368  -5.118  0.00  0.00    -0.300 A 
ATOM      5  C   LIG    1       -3.548  -0.748  -5.920  0.00  0.00    +0.510 A 
ATOM      6  N   LIG    1       -4.507  -1.685  -6.075  0.00  0.00    -0.430 N 
ATOM      7  C   LIG    1       -4.264  -2.777  -6.852  0.00  0.00    +0.280 A 
ATOM      8  C   LIG    1       -5.208  -3.729  -7.022  0.00  0.00    -0.010 A 
ATOM      9  C   LIG    1       -6.457  -3.602  -6.396  0.00  0.00    +0.120 A 
ATOM     10  C   LIG    1       -6.710  -2.513  -5.616  0.00  0.00    +0.030 A 
ATOM     11  C   LIG    1       -5.714  -1.534  -5.451  0.00  0.00    +0.390 A 
ATOM     12  O   LIG    1       -2.466  -0.871  -6.471  0.00  0.00    -0.530 OA
ATOM     13  N   LIG    1       -5.960  -0.469  -4.689  0.00  0.00    -0.540 NA
ENDBRANCH   1   4
BRANCH   1  14
ATOM     14  C   LIG    1       -1.833   1.029  -3.781  0.00  0.00    +0.170 C 
BRANCH  14  15
ATOM     15  N   LIG    1       -0.814   2.070  -3.589  0.00  0.00    -0.520 NA
ATOM     16  C   LIG    1        0.067   2.168  -4.761  0.00  0.00    +0.150 C 
ATOM     17  C   LIG    1        1.073   3.301  -4.544  0.00  0.00    +0.220 C 
ATOM     18  O   LIG    1        1.802   3.061  -3.337  0.00  0.00    -0.390 OA
ATOM     19  C   LIG    1        0.974   2.961  -2.175  0.00  0.00    +0.230 C 
ATOM     20  C   LIG    1       -0.033   1.824  -2.368  0.00  0.00    +0.110 C 
BRANCH  20  21
ATOM     21  C   LIG    1       -0.973   1.763  -1.163  0.00  0.00    +0.160 C 
ATOM     22  C   LIG    1       -0.177   1.431   0.124  0.00  0.00    +0.000 C 
ATOM     23  C   LIG    1       -1.105   2.038   1.212  0.00  0.00    +0.000 C 
ATOM     24  C   LIG    1       -1.691   3.271   0.490  0.00  0.00    +0.190 C 
ATOM     25  O   LIG    1       -1.558   3.053  -0.919  0.00  0.00    -0.360 OA
ENDBRANCH  20  21
ENDBRANCH  14  15
ENDBRANCH   1  14
TORSDOF 4
