REMARK  Name = ZINCtV000002BIKp.0
REMARK                            x       y       z     vdW  Elec       q    Type
REMARK                         _______ _______ _______ _____ _____    ______ ____
ROOT
ATOM      1  N   LIG    1        7.736  -0.084  -1.455  0.00  0.00    -0.520 NA
ATOM      2  C   LIG    1        6.943   1.020  -2.010  0.00  0.00    +0.190 C 
ATOM      3  C   LIG    1        7.484   1.393  -3.392  0.00  0.00    +0.020 C 
ATOM      4  C   LIG    1        7.406   0.172  -4.312  0.00  0.00    +0.010 C 
ATOM      5  C   LIG    1        8.200  -0.979  -3.687  0.00  0.00    +0.040 C 
ATOM      6  C   LIG    1        7.639  -1.283  -2.296  0.00  0.00    +0.230 C 
ENDROOT
BRANCH   6   7
ATOM      7  C   LIG    1        8.430  -2.402  -1.669  0.00  0.00    +0.100 A 
ATOM      8  N   LIG    1        8.009  -3.605  -1.556  0.00  0.00    -0.470 NA
ATOM      9  C   LIG    1        8.825  -4.504  -0.973  0.00  0.00    +0.080 A 
ATOM     10  C   LIG    1        8.620  -5.876  -0.723  0.00  0.00    +0.060 A 
ATOM     11  C   LIG    1        9.586  -6.618  -0.113  0.00  0.00    +0.030 A 
ATOM     12  C   LIG    1       10.787  -6.040   0.273  0.00  0.00    +0.040 A 
ATOM     13  C   LIG    1       11.015  -4.702   0.041  0.00  0.00    +0.060 A 
ATOM     14  C   LIG    1       10.038  -3.928  -0.581  0.00  0.00    -0.190 A 
ATOM     15  S   LIG    1       10.001  -2.225  -1.029  0.00  0.00    +0.140 S 
ENDBRANCH   6   7
BRANCH   1  16
ATOM     16  C   LIG    1        7.334  -0.377  -0.072  0.00  0.00    +0.310 C 
BRANCH  16  19
ATOM     17  C   LIG    1        3.705  -0.675  -0.037  0.00  0.00    +0.110 A 
ATOM     18  N   LIG    1        4.879  -0.111  -0.051  0.00  0.00    -0.460 NA
ATOM     19  C   LIG    1        5.923  -0.908  -0.061  0.00  0.00    +0.020 A 
ATOM     20  C   LIG    1        5.658  -2.217  -0.066  0.00  0.00    -0.070 A 
ATOM     21  S   LIG    1        3.907  -2.425  -0.049  0.00  0.00    +0.140 S 
BRANCH  17  27
ATOM     22  C   LIG    1        1.210  -0.682  -0.014  0.00  0.00    +0.150 A 
ATOM     23  C   LIG    1        0.002  -0.004   0.002  0.00  0.00    -0.070 A 
ATOM     24  C   LIG    1       -0.017   1.378   0.010  0.00  0.00    +0.070 A 
ATOM     25  C   LIG    1        1.168   2.094   0.002  0.00  0.00    -0.030 A 
ATOM     26  C   LIG    1        2.379   1.433  -0.013  0.00  0.00    +0.110 A 
ATOM     27  C   LIG    1        2.411   0.038  -0.021  0.00  0.00    -0.060 A 
BRANCH  22  29
ATOM     28  C   LIG    1       -0.034  -2.707  -0.014  0.00  0.00    +0.250 C 
ATOM     29  O   LIG    1        1.229  -2.040  -0.022  0.00  0.00    -0.310 OA
ENDBRANCH  22  29
ENDBRANCH  17  27
ENDBRANCH  16  19
ENDBRANCH   1  16
TORSDOF 5
