REMARK  Name = ZINCrD000001YJmT.0
REMARK                            x       y       z     vdW  Elec       q    Type
REMARK                         _______ _______ _______ _____ _____    ______ ____
ROOT
ATOM      1  C   LIG    1       -2.932   1.009   3.673  0.00  0.00    +0.550 C 
ATOM      2  N   LIG    1       -2.153   1.109   2.577  0.00  0.00    -0.600 N 
ATOM      3  C   LIG    1       -2.167   0.059   1.550  0.00  0.00    +0.280 C 
ATOM      4  C   LIG    1       -2.449   0.704   0.189  0.00  0.00    +0.050 C 
ATOM      5  C   LIG    1       -1.430   1.818  -0.064  0.00  0.00    -0.030 C 
ATOM      6  C   LIG    1       -1.567   2.892   1.017  0.00  0.00    +0.060 C 
ATOM      7  C   LIG    1       -1.275   2.272   2.387  0.00  0.00    +0.290 C 
ATOM      8  O   LIG    1       -3.723   0.090   3.775  0.00  0.00    -0.550 OA
ENDROOT
BRANCH   5   9
ATOM      9  C   LIG    1       -0.038   1.242  -0.027  0.00  0.00    +0.540 C 
ATOM     10  N   LIG    1        0.384   0.435  -1.020  0.00  0.00    -0.600 N 
ATOM     11  C   LIG    1        1.764  -0.073  -1.051  0.00  0.00    +0.290 C 
ATOM     12  C   LIG    1        1.729  -1.600  -0.889  0.00  0.00    +0.100 C 
ATOM     13  C   LIG    1        0.679  -2.178  -1.828  0.00  0.00    -0.090 A 
ATOM     14  C   LIG    1       -0.318  -1.444  -2.358  0.00  0.00    -0.210 A 
ATOM     15  S   LIG    1       -1.340  -2.455  -3.369  0.00  0.00    +0.120 S 
ATOM     16  C   LIG    1       -0.342  -3.861  -3.028  0.00  0.00    -0.040 A 
ATOM     17  C   LIG    1        0.650  -3.515  -2.214  0.00  0.00    +0.010 A 
ATOM     18  C   LIG    1       -0.519   0.038  -2.113  0.00  0.00    +0.360 C 
ATOM     19  O   LIG    1        0.701   1.502   0.899  0.00  0.00    -0.530 OA
ENDBRANCH   5   9
BRANCH   5  20
ATOM     20  C   LIG    1       -1.684   2.432  -1.417  0.00  0.00    -0.080 A 
ATOM     21  C   LIG    1       -2.792   2.053  -2.151  0.00  0.00    +0.010 A 
ATOM     22  C   LIG    1       -3.028   2.620  -3.389  0.00  0.00    +0.020 A 
ATOM     23  C   LIG    1       -2.149   3.558  -3.898  0.00  0.00    +0.000 A 
ATOM     24  C   LIG    1       -1.038   3.933  -3.166  0.00  0.00    +0.010 A 
ATOM     25  C   LIG    1       -0.805   3.370  -1.925  0.00  0.00    +0.010 A 
ENDBRANCH   5  20
BRANCH   1  27
ATOM     26  C   LIG    1       -3.521   1.858   5.868  0.00  0.00    +0.140 C 
ATOM     27  C   LIG    1       -2.825   2.010   4.745  0.00  0.00    -0.090 C 
ENDBRANCH   1  27
TORSDOF 3
