REMARK  Name = ZINCtV00000L6km2.0
REMARK                            x       y       z     vdW  Elec       q    Type
REMARK                         _______ _______ _______ _____ _____    ______ ____
ROOT
ATOM      1  N   LIG    1       -0.454  -2.000   0.873  0.00  0.00    -0.340 N 
ATOM      2  N   LIG    1       -0.669  -0.719   1.396  0.00  0.00    -0.230 NA
ATOM      3  C   LIG    1       -0.829   0.132   0.423  0.00  0.00    +0.120 A 
ATOM      4  C   LIG    1       -0.731  -0.561  -0.803  0.00  0.00    -0.210 A 
ATOM      5  C   LIG    1       -0.824  -0.169  -2.157  0.00  0.00    +0.080 A 
ATOM      6  C   LIG    1       -0.672  -1.148  -3.132  0.00  0.00    -0.040 A 
ATOM      7  C   LIG    1       -0.436  -2.468  -2.744  0.00  0.00    +0.250 A 
ATOM      8  N   LIG    1       -0.344  -2.805  -1.467  0.00  0.00    -0.490 NA
ATOM      9  C   LIG    1       -1.082   1.609   0.580  0.00  0.00    +0.180 C 
ATOM     10  C   LIG    1       -0.486  -1.914  -0.497  0.00  0.00    +0.330 A 
ENDROOT
BRANCH   1  17
ATOM     11  C   LIG    1        1.444  -1.918   2.993  0.00  0.00    +0.100 C 
ATOM     12  C   LIG    1        0.674  -3.170   2.662  0.00  0.00    -0.070 A 
ATOM     13  C   LIG    1        0.876  -4.321   3.398  0.00  0.00    +0.020 A 
ATOM     14  C   LIG    1        0.174  -5.472   3.091  0.00  0.00    +0.020 A 
ATOM     15  C   LIG    1       -0.736  -5.473   2.050  0.00  0.00    +0.020 A 
ATOM     16  C   LIG    1       -0.947  -4.324   1.313  0.00  0.00    +0.030 A 
ATOM     17  C   LIG    1       -0.243  -3.167   1.619  0.00  0.00    +0.150 A 
ENDBRANCH   1  17
BRANCH   7  18
ATOM     18  C   LIG    1       -0.274  -3.512  -3.785  0.00  0.00    -0.060 A 
ATOM     19  C   LIG    1       -0.364  -3.175  -5.134  0.00  0.00    +0.040 A 
ATOM     20  C   LIG    1       -0.206  -4.150  -6.098  0.00  0.00    +0.010 A 
ATOM     21  C   LIG    1        0.028  -5.462  -5.727  0.00  0.00    +0.030 A 
ATOM     22  C   LIG    1        0.112  -5.803  -4.389  0.00  0.00    +0.000 A 
ATOM     23  C   LIG    1       -0.038  -4.835  -3.416  0.00  0.00    +0.060 A 
ENDBRANCH   7  18
BRANCH   5  24
ATOM     24  C   LIG    1       -1.075   1.244  -2.527  0.00  0.00    -0.060 A 
ATOM     25  C   LIG    1       -2.164   1.574  -3.333  0.00  0.00    +0.030 A 
ATOM     26  C   LIG    1       -2.397   2.892  -3.669  0.00  0.00    +0.010 A 
ATOM     27  C   LIG    1       -1.545   3.884  -3.217  0.00  0.00    +0.020 A 
ATOM     28  C   LIG    1       -0.460   3.562  -2.422  0.00  0.00    +0.010 A 
ATOM     29  C   LIG    1       -0.220   2.249  -2.075  0.00  0.00    +0.030 A 
ENDBRANCH   5  24
TORSDOF 3
