REMARK  Name = ZINCtV00000L6kM2.1
REMARK                            x       y       z     vdW  Elec       q    Type
REMARK                         _______ _______ _______ _____ _____    ______ ____
ROOT
ATOM      1  O   LIG    1       -3.284   1.126   0.905  0.00  0.00    -0.450 OA
ATOM      2  C   LIG    1       -2.473   1.130   0.003  0.00  0.00    +0.530 C 
ATOM      3  N   LIG    1       -2.594   0.255  -1.015  0.00  0.00    -0.630 N 
ATOM      4  H   LIG    1       -1.946   0.258  -1.737  0.00  0.00    +0.430 HD
ENDROOT
BRANCH   2   5
ATOM      5  C   LIG    1       -1.332   2.114   0.020  0.00  0.00    -0.030 C 
ATOM      6  C   LIG    1       -1.423   3.050  -1.202  0.00  0.00    +0.040 C 
ATOM      7  C   LIG    1       -2.154   4.306  -0.664  0.00  0.00    +0.030 C 
ATOM      8  C   LIG    1       -1.569   4.458   0.762  0.00  0.00    +0.020 C 
ATOM      9  C   LIG    1       -1.425   3.008   1.268  0.00  0.00    +0.060 C 
BRANCH   5  10
ATOM     10  C   LIG    1       -0.017   1.377   0.010  0.00  0.00    -0.110 A 
ATOM     11  C   LIG    1        0.002  -0.004   0.002  0.00  0.00    +0.020 A 
ATOM     12  C   LIG    1        1.208  -0.680  -0.013  0.00  0.00    +0.010 A 
ATOM     13  C   LIG    1        2.397   0.026  -0.020  0.00  0.00    +0.050 A 
ATOM     14  C   LIG    1        2.381   1.408  -0.013  0.00  0.00    -0.010 A 
ATOM     15  C   LIG    1        1.173   2.086   0.002  0.00  0.00    +0.110 A 
ATOM     16  F   LIG    1        1.156   3.437   0.009  0.00  0.00    -0.130 F 
ENDBRANCH   5  10
ENDBRANCH   2   5
BRANCH   3  17
ATOM     17  C   LIG    1       -3.649  -0.654  -1.031  0.00  0.00    +0.250 A 
ATOM     18  N   LIG    1       -4.580  -0.762  -0.132  0.00  0.00    -0.250 NA
ATOM     19  N   LIG    1       -5.465  -1.643  -0.304  0.00  0.00    -0.240 NA
ATOM     20  C   LIG    1       -5.382  -2.383  -1.371  0.00  0.00    -0.020 A 
ATOM     21  S   LIG    1       -3.964  -1.859  -2.281  0.00  0.00    +0.130 S 
BRANCH  20  22
ATOM     22  S   LIG    1       -6.492  -3.672  -1.829  0.00  0.00    +0.030 S 
BRANCH  22  23
ATOM     23  C   LIG    1       -7.700  -3.671  -0.475  0.00  0.00    +0.150 C 
BRANCH  23  24
ATOM     24  C   LIG    1       -8.735  -4.738  -0.725  0.00  0.00    -0.080 A 
ATOM     25  C   LIG    1       -9.883  -4.435  -1.433  0.00  0.00    +0.060 A 
ATOM     26  C   LIG    1      -10.830  -5.414  -1.666  0.00  0.00    +0.030 A 
ATOM     27  C   LIG    1      -10.634  -6.695  -1.180  0.00  0.00    -0.030 A 
ATOM     28  C   LIG    1       -9.488  -6.996  -0.467  0.00  0.00    +0.030 A 
ATOM     29 CL   LIG    1      -11.827  -7.923  -1.466  0.00  0.00    -0.060 Cl
ATOM     30  C   LIG    1       -8.539  -6.017  -0.239  0.00  0.00    +0.060 A 
ENDBRANCH  23  24
ENDBRANCH  22  23
ENDBRANCH  20  22
ENDBRANCH   3  17
TORSDOF 6
