REMARK  Name = ZINCrD000000fH8X.0
REMARK                            x       y       z     vdW  Elec       q    Type
REMARK                         _______ _______ _______ _____ _____    ______ ____
ROOT
ATOM      1  C   LIG    1       -4.576   0.416   0.053  0.00  0.00    +0.180 A 
ATOM      2  N   LIG    1       -3.700   1.389   0.011  0.00  0.00    -0.460 NA
ATOM      3  C   LIG    1       -2.489   0.789   0.046  0.00  0.00    +0.220 A 
ATOM      4  N   LIG    1       -2.699  -0.500   0.101  0.00  0.00    -0.370 NA
ATOM      5  O   LIG    1       -3.890  -0.729   0.111  0.00  0.00    +0.090 OA
ENDROOT
BRANCH   3   6
ATOM      6  C   LIG    1       -1.169   1.467   0.020  0.00  0.00    -0.020 A 
ATOM      7  C   LIG    1       -1.098   2.857  -0.041  0.00  0.00    +0.080 A 
ATOM      8  C   LIG    1        0.132   3.482  -0.071  0.00  0.00    +0.020 A 
ATOM      9  C   LIG    1        1.293   2.732  -0.034  0.00  0.00    +0.050 A 
ATOM     10  C   LIG    1        1.228   1.351   0.032  0.00  0.00    -0.120 A 
ATOM     11  C   LIG    1        0.004   0.716   0.062  0.00  0.00    +0.070 A 
BRANCH  10  12
ATOM     12  C   LIG    1        2.498   0.540   0.072  0.00  0.00    +0.360 C 
BRANCH  12  13
ATOM     13  N   LIG    1        2.910   0.211  -1.295  0.00  0.00    -0.460 N 
ATOM     14  C   LIG    1        2.549  -0.901  -2.007  0.00  0.00    +0.120 A 
ATOM     15  C   LIG    1        3.144  -0.803  -3.211  0.00  0.00    +0.140 A 
ATOM     16  N   LIG    1        3.857   0.333  -3.230  0.00  0.00    -0.490 NA
ATOM     17  C   LIG    1        3.721   0.946  -2.086  0.00  0.00    +0.380 A 
ENDBRANCH  12  13
ENDBRANCH  10  12
ENDBRANCH   3   6
BRANCH   1  18
ATOM     18  C   LIG    1       -6.076   0.561   0.037  0.00  0.00    +0.390 C 
BRANCH  18  21
ATOM     19  C   LIG    1       -8.481  -1.203  -2.360  0.00  0.00    +0.110 C 
ATOM     20  C   LIG    1       -7.834  -0.156  -1.491  0.00  0.00    +0.520 C 
ATOM     21  N   LIG    1       -6.651  -0.410  -0.897  0.00  0.00    -0.730 N 
ATOM     22  H   LIG    1       -6.180  -1.236  -1.089  0.00  0.00    +0.410 HD
ATOM     23  O   LIG    1       -8.377   0.916  -1.326  0.00  0.00    -0.530 OA
ENDBRANCH  18  21
BRANCH  18  24
ATOM     24  C   LIG    1       -6.628   0.305   1.441  0.00  0.00    +0.000 C 
ATOM     25  C   LIG    1       -5.996   1.291   2.445  0.00  0.00    +0.020 C 
ATOM     26  C   LIG    1       -5.808   0.454   3.734  0.00  0.00    +0.020 C 
ATOM     27  C   LIG    1       -5.387  -0.931   3.183  0.00  0.00    +0.000 C 
ATOM     28  C   LIG    1       -6.241  -1.108   1.910  0.00  0.00    +0.020 C 
ENDBRANCH  18  24
ENDBRANCH   1  18
TORSDOF 6
