REMARK  Name = ZINCpk00000y6v6L.0
REMARK                            x       y       z     vdW  Elec       q    Type
REMARK                         _______ _______ _______ _____ _____    ______ ____
ROOT
ATOM      1  C   LIG    1        3.051   0.550  -0.731  0.00  0.00    +0.610 C 
ATOM      2  N   LIG    1        3.390  -0.650  -1.243  0.00  0.00    -0.600 N 
ATOM      3  C   LIG    1        4.760  -1.109  -1.514  0.00  0.00    +0.260 C 
ATOM      4  C   LIG    1        4.658  -2.526  -2.118  0.00  0.00    +0.080 C 
ATOM      5  C   LIG    1        3.211  -2.561  -2.677  0.00  0.00    +0.110 C 
ATOM      6  C   LIG    1        2.449  -1.719  -1.624  0.00  0.00    +0.270 C 
ATOM      7  O   LIG    1        1.879   0.859  -0.632  0.00  0.00    -0.530 OA
ENDROOT
BRANCH   1  13
ATOM      8  N   LIG    1        3.916   2.681   0.344  0.00  0.00    -0.240 N 
ATOM      9  N   LIG    1        5.056   3.223   0.578  0.00  0.00    -0.270 NA
ATOM     10  C   LIG    1        6.031   2.473   0.131  0.00  0.00    +0.020 A 
ATOM     11  C   LIG    1        5.465   1.332  -0.443  0.00  0.00    -0.030 A 
ATOM     12  C   LIG    1        7.503   2.785   0.220  0.00  0.00    +0.150 C 
ATOM     13  C   LIG    1        4.098   1.485  -0.291  0.00  0.00    -0.040 A 
BRANCH   8  14
ATOM     14  C   LIG    1        2.617   3.255   0.706  0.00  0.00    +0.260 C 
BRANCH  14  16
ATOM     15  C   LIG    1        2.723   2.282   3.005  0.00  0.00    +0.020 C 
ATOM     16  C   LIG    1        2.602   3.578   2.201  0.00  0.00    +0.040 C 
ENDBRANCH  14  16
BRANCH  14  17
ATOM     17  C   LIG    1        2.385   4.537  -0.096  0.00  0.00    +0.020 C 
ATOM     18  C   LIG    1        0.973   5.059   0.175  0.00  0.00    +0.030 C 
ENDBRANCH  14  17
ENDBRANCH   8  14
ENDBRANCH   1  13
BRANCH   5  19
ATOM     19  O   LIG    1        3.146  -1.950  -3.967  0.00  0.00    -0.530 OA
ATOM     20  H   LIG    1        2.261  -1.949  -4.357  0.00  0.00    +0.380 HD
ENDBRANCH   5  19
BRANCH   5  21
ATOM     21  C   LIG    1        2.676  -3.994  -2.725  0.00  0.00    +0.340 C 
BRANCH  21  22
ATOM     22  N   LIG    1        1.312  -3.989  -3.257  0.00  0.00    -0.300 N 
ATOM     23  C   LIG    1        0.873  -4.701  -4.321  0.00  0.00    +0.150 A 
ATOM     24  C   LIG    1       -0.440  -4.400  -4.460  0.00  0.00    +0.140 A 
ATOM     25  N   LIG    1       -0.734  -3.525  -3.492  0.00  0.00    -0.260 NA
ATOM     26  N   LIG    1        0.325  -3.302  -2.797  0.00  0.00    -0.090 NA
ENDBRANCH  21  22
ENDBRANCH   5  21
TORSDOF 7
