REMARK  Name = ZINCkj00000AS1QZ.1
REMARK                            x       y       z     vdW  Elec       q    Type
REMARK                         _______ _______ _______ _____ _____    ______ ____
ROOT
ATOM      1  C   LIG    1       -0.195   1.061   6.548  0.00  0.00    +0.160 C 
ATOM      2  C   LIG    1       -0.388   2.569   6.722  0.00  0.00    +0.080 C 
ATOM      3  C   LIG    1        0.975   3.265   6.650  0.00  0.00    +0.060 C 
ATOM      4  C   LIG    1        1.645   2.915   5.318  0.00  0.00    +0.060 C 
ATOM      5  C   LIG    1        1.764   1.394   5.197  0.00  0.00    +0.250 C 
ATOM      6  N   LIG    1        0.427   0.790   5.246  0.00  0.00    -0.370 N 
ATOM      7  H   LIG    1        0.504  -0.207   5.114  0.00  0.00    +0.430 HD
ENDROOT
BRANCH   1   8
ATOM      8  C   LIG    1       -1.553   0.362   6.620  0.00  0.00    +0.370 C 
BRANCH   8  15
ATOM      9  C   LIG    1       -1.155  -1.471   9.088  0.00  0.00    +0.160 C 
ATOM     10  C   LIG    1       -1.184  -1.899   7.644  0.00  0.00    +0.100 A 
ATOM     11  C   LIG    1       -1.040  -3.163   7.183  0.00  0.00    -0.100 A 
ATOM     12  C   LIG    1       -1.130  -3.125   5.788  0.00  0.00    +0.110 A 
ATOM     13  N   LIG    1       -1.326  -1.884   5.424  0.00  0.00    -0.320 NA
ATOM     14  C   LIG    1       -1.025  -4.311   4.863  0.00  0.00    +0.180 C 
ATOM     15  N   LIG    1       -1.358  -1.090   6.578  0.00  0.00    -0.410 N 
ENDBRANCH   8  15
ENDBRANCH   1   8
BRANCH   6  16
ATOM     16  C   LIG    1       -0.406   1.361   4.180  0.00  0.00    +0.290 C 
BRANCH  16  17
ATOM     17  C   LIG    1        0.167   0.966   2.818  0.00  0.00    -0.360 C 
BRANCH  17  18
ATOM     18  S   LIG    1       -0.862   1.671   1.500  0.00  0.00    +2.430 S 
ATOM     19  O   LIG    1       -2.147   1.066   1.557  0.00  0.00    -0.910 OA
ATOM     20  O   LIG    1       -0.758   3.087   1.554  0.00  0.00    -0.920 OA
ATOM     21  C   LIG    1       -0.013   1.086   0.008  0.00  0.00    -0.240 C 
ENDBRANCH  17  18
ENDBRANCH  16  17
ENDBRANCH   6  16
TORSDOF 5
