REMARK  Name = ZINCkj00000AS1QZ.2
REMARK                            x       y       z     vdW  Elec       q    Type
REMARK                         _______ _______ _______ _____ _____    ______ ____
ROOT
ATOM      1  C   LIG    1       -5.554   1.405   3.436  0.00  0.00    +0.150 C 
ATOM      2  C   LIG    1       -6.969   0.903   3.140  0.00  0.00    +0.080 C 
ATOM      3  C   LIG    1       -7.509   1.620   1.900  0.00  0.00    +0.040 C 
ATOM      4  C   LIG    1       -6.552   1.383   0.728  0.00  0.00    +0.060 C 
ATOM      5  C   LIG    1       -5.152   1.866   1.114  0.00  0.00    +0.250 C 
ATOM      6  N   LIG    1       -4.682   1.124   2.289  0.00  0.00    -0.370 N 
ATOM      7  H   LIG    1       -4.698   0.135   2.091  0.00  0.00    +0.430 HD
ENDROOT
BRANCH   1   8
ATOM      8  C   LIG    1       -5.011   0.693   4.676  0.00  0.00    +0.350 C 
BRANCH   8  15
ATOM      9  C   LIG    1       -4.532   3.128   6.535  0.00  0.00    +0.150 C 
ATOM     10  C   LIG    1       -5.631   2.103   6.656  0.00  0.00    +0.080 A 
ATOM     11  C   LIG    1       -6.598   2.079   7.602  0.00  0.00    -0.090 A 
ATOM     12  C   LIG    1       -7.408   0.965   7.361  0.00  0.00    +0.100 A 
ATOM     13  N   LIG    1       -6.947   0.346   6.305  0.00  0.00    -0.290 NA
ATOM     14  C   LIG    1       -8.605   0.549   8.177  0.00  0.00    +0.160 C 
ATOM     15  N   LIG    1       -5.827   1.047   5.840  0.00  0.00    -0.390 N 
ENDBRANCH   8  15
ENDBRANCH   1   8
BRANCH   6  16
ATOM     16  C   LIG    1       -3.308   1.536   2.609  0.00  0.00    +0.280 C 
BRANCH  16  17
ATOM     17  C   LIG    1       -2.378   1.142   1.460  0.00  0.00    -0.360 C 
BRANCH  17  18
ATOM     18  S   LIG    1       -0.661   1.502   1.921  0.00  0.00    +2.430 S 
ATOM     19  O   LIG    1       -0.514   2.909   2.058  0.00  0.00    -0.910 OA
ATOM     20  O   LIG    1       -0.297   0.658   3.005  0.00  0.00    -0.920 OA
ATOM     21  C   LIG    1        0.245   0.967   0.443  0.00  0.00    -0.220 C 
ENDBRANCH  17  18
ENDBRANCH  16  17
ENDBRANCH   6  16
TORSDOF 5
