REMARK  Name = ZINCue00000002OZ.1
REMARK                            x       y       z     vdW  Elec       q    Type
REMARK                         _______ _______ _______ _____ _____    ______ ____
ROOT
ATOM      1  C   LIG    1       -5.084  -0.788   1.530  0.00  0.00    +0.050 C 
ENDROOT
BRANCH   1   2
ATOM      2  C   LIG    1       -4.402  -0.241   0.303  0.00  0.00    +0.530 C 
ATOM      3  N   LIG    1       -3.171   0.299   0.400  0.00  0.00    -0.620 N 
ATOM      4  C   LIG    1       -2.494   0.837  -0.788  0.00  0.00    +0.290 C 
ATOM      5  C   LIG    1       -2.075   2.283  -0.503  0.00  0.00    +0.060 C 
ATOM      6  C   LIG    1       -1.251   2.328   0.779  0.00  0.00    +0.120 C 
ATOM      7  N   LIG    1       -0.016   1.549   0.624  0.00  0.00    -0.710 N 
ATOM      8  H   LIG    1        0.052   0.599   0.442  0.00  0.00    +0.440 HD
ATOM      9  C   LIG    1        1.003   2.416   0.780  0.00  0.00    +0.710 C 
ATOM     10  N   LIG    1        0.580   3.663   1.022  0.00  0.00    -0.680 N 
ATOM     11  H   LIG    1        1.169   4.421   1.161  0.00  0.00    +0.430 HD
ATOM     12  O   LIG    1        2.175   2.102   0.708  0.00  0.00    -0.540 OA
ATOM     13  C   LIG    1       -2.063   1.811   1.963  0.00  0.00    +0.060 C 
ATOM     14  C   LIG    1       -0.767   3.734   1.049  0.00  0.00    +0.540 C 
ATOM     15  O   LIG    1       -1.446   4.719   1.244  0.00  0.00    -0.460 OA
ATOM     16  C   LIG    1       -2.482   0.361   1.697  0.00  0.00    +0.290 C 
ATOM     17  O   LIG    1       -4.961  -0.286  -0.772  0.00  0.00    -0.530 OA
ENDBRANCH   1   2
BRANCH   1  18
ATOM     18  C   LIG    1       -6.459  -1.338   1.147  0.00  0.00    +0.330 C 
BRANCH  18  24
ATOM     19  C   LIG    1       -8.078  -0.987   3.065  0.00  0.00    +0.200 A 
ATOM     20  N   LIG    1       -8.508  -1.685   4.079  0.00  0.00    -0.310 NA
ATOM     21  N   LIG    1       -7.879  -2.936   4.042  0.00  0.00    -0.380 NA
ATOM     22  C   LIG    1       -7.066  -2.950   2.966  0.00  0.00    +0.390 A 
ATOM     23  S   LIG    1       -6.073  -4.253   2.467  0.00  0.00    -0.770 S 
ATOM     24  N   LIG    1       -7.174  -1.753   2.357  0.00  0.00    -0.500 N 
BRANCH  19  28
ATOM     25  C   LIG    1       -9.260   2.981   2.103  0.00  0.00    +0.120 A 
ATOM     26  C   LIG    1      -10.068   2.194   2.913  0.00  0.00    -0.020 A 
ATOM     27  C   LIG    1       -9.688   0.907   3.228  0.00  0.00    +0.090 A 
ATOM     28  C   LIG    1       -8.489   0.394   2.730  0.00  0.00    -0.030 A 
ATOM     29  C   LIG    1       -7.677   1.189   1.921  0.00  0.00    +0.040 A 
ATOM     30  C   LIG    1       -8.066   2.474   1.606  0.00  0.00    -0.070 A 
BRANCH  25  32
ATOM     31  C   LIG    1       -8.759   5.002   0.958  0.00  0.00    +0.250 C 
ATOM     32  O   LIG    1       -9.638   4.249   1.796  0.00  0.00    -0.320 OA
ENDBRANCH  25  32
ENDBRANCH  19  28
ENDBRANCH  18  24
ENDBRANCH   1  18
TORSDOF 5
