REMARK  Name = ZINCkj000005jTgX.0
REMARK                            x       y       z     vdW  Elec       q    Type
REMARK                         _______ _______ _______ _____ _____    ______ ____
ROOT
ATOM      1  C   LIG    1       -4.720   1.983   1.367  0.00  0.00    +0.090 C 
ENDROOT
BRANCH   1   8
ATOM      2  C   LIG    1        0.061   1.087  -2.438  0.00  0.00    +0.110 C 
ATOM      3  C   LIG    1       -0.718   1.490  -1.185  0.00  0.00    +0.150 C 
ATOM      4  C   LIG    1       -2.120   0.872  -1.233  0.00  0.00    +0.330 C 
ATOM      5  N   LIG    1       -2.802   1.163   0.037  0.00  0.00    -0.640 N 
ATOM      6  C   LIG    1       -2.094   0.858   1.290  0.00  0.00    +0.310 C 
ATOM      7  C   LIG    1       -0.695   1.477   1.218  0.00  0.00    +0.270 C 
ATOM      8  C   LIG    1       -4.041   1.693   0.053  0.00  0.00    +0.530 C 
ATOM      9  O   LIG    1       -4.609   1.937  -0.990  0.00  0.00    -0.510 OA
ATOM     10  N   LIG    1       -0.012   1.005   0.008  0.00  0.00    -0.500 N 
ATOM     11  H   LIG    1        0.935   1.353   0.000  0.00  0.00    +0.430 HD
ATOM     12  H   LIG    1        0.002  -0.004   0.002  0.00  0.00    +0.430 HD
ENDBRANCH   1   8
BRANCH   1  13
ATOM     13  C   LIG    1       -6.105   2.576   1.105  0.00  0.00    +0.170 C 
BRANCH  13  14
ATOM     14  C   LIG    1       -6.785   2.866   2.418  0.00  0.00    +0.270 A 
ATOM     15  N   LIG    1       -6.979   1.995   3.365  0.00  0.00    -0.490 NA
ATOM     16  C   LIG    1       -7.613   2.588   4.408  0.00  0.00    +0.040 A 
ATOM     17  C   LIG    1       -8.053   2.133   5.654  0.00  0.00    +0.070 A 
ATOM     18  C   LIG    1       -8.683   2.993   6.509  0.00  0.00    +0.010 A 
ATOM     19  C   LIG    1       -8.891   4.318   6.155  0.00  0.00    +0.040 A 
ATOM     20  C   LIG    1       -8.466   4.789   4.931  0.00  0.00    +0.020 A 
ATOM     21  C   LIG    1       -7.824   3.931   4.049  0.00  0.00    +0.050 A 
ATOM     22  N   LIG    1       -7.289   4.075   2.785  0.00  0.00    -0.600 N 
ATOM     23  H   LIG    1       -7.274   4.888   2.256  0.00  0.00    +0.420 HD
ENDBRANCH  13  14
ENDBRANCH   1  13
TORSDOF 3
