REMARK  Name = ZINCnE000001NQxQ.0
REMARK                            x       y       z     vdW  Elec       q    Type
REMARK                         _______ _______ _______ _____ _____    ______ ____
ROOT
ATOM      1  C   LIG    1        0.581   1.974   3.293  0.00  0.00    +0.520 C 
ATOM      2  N   LIG    1        0.121   1.116   2.361  0.00  0.00    -0.600 N 
ATOM      3  C   LIG    1        0.338  -0.330   2.502  0.00  0.00    +0.290 C 
ATOM      4  C   LIG    1       -1.013  -1.044   2.393  0.00  0.00    -0.100 C 
ATOM      5  C   LIG    1       -1.697  -0.636   1.086  0.00  0.00    +0.030 C 
ATOM      6  C   LIG    1       -1.949   0.876   1.088  0.00  0.00    +0.000 C 
ATOM      7  C   LIG    1       -0.607   1.609   1.184  0.00  0.00    +0.230 C 
ATOM      8  C   LIG    1        0.216   1.341  -0.078  0.00  0.00    +0.030 C 
ATOM      9  O   LIG    1        0.464   3.170   3.127  0.00  0.00    -0.530 OA
ENDROOT
BRANCH   4  10
ATOM     10  C   LIG    1       -0.796  -2.536   2.403  0.00  0.00    +0.500 C 
ATOM     11  O   LIG    1        0.143  -3.019   1.793  0.00  0.00    -0.690 OA
ATOM     12  O   LIG    1       -1.559  -3.259   3.021  0.00  0.00    -0.690 OA
ENDBRANCH   4  10
BRANCH   1  14
ATOM     13  C   LIG    1        0.202   0.732   5.405  0.00  0.00    +0.080 C 
ATOM     14  C   LIG    1        1.242   1.447   4.541  0.00  0.00    +0.160 C 
BRANCH  14  15
ATOM     15  O   LIG    1        1.806   2.535   5.277  0.00  0.00    -0.270 OA
BRANCH  15  16
ATOM     16  C   LIG    1        2.819   2.241   6.133  0.00  0.00    +0.150 A 
ATOM     17  C   LIG    1        3.308   0.946   6.212  0.00  0.00    -0.040 A 
ATOM     18  C   LIG    1        4.341   0.649   7.081  0.00  0.00    +0.080 A 
ATOM     19  C   LIG    1        4.882   1.641   7.879  0.00  0.00    -0.070 A 
ATOM     20  C   LIG    1        4.393   2.934   7.806  0.00  0.00    +0.090 A 
ATOM     21 CL   LIG    1        6.176   1.265   8.973  0.00  0.00    -0.060 Cl
ATOM     22  C   LIG    1        3.363   3.236   6.935  0.00  0.00    -0.060 A 
ATOM     23 CL   LIG    1        2.749   4.857   6.843  0.00  0.00    -0.040 Cl
ENDBRANCH  15  16
ENDBRANCH  14  15
ENDBRANCH   1  14
TORSDOF 4
