REMARK  Name = ZINCrD000000fO04.0
REMARK                            x       y       z     vdW  Elec       q    Type
REMARK                         _______ _______ _______ _____ _____    ______ ____
ROOT
ATOM      1  C   LIG    1       -3.047   1.711   0.283  0.00  0.00    +0.600 C 
ATOM      2  N   LIG    1       -4.351   1.897   0.567  0.00  0.00    -0.600 N 
ATOM      3  C   LIG    1       -4.768   2.368   1.895  0.00  0.00    +0.280 C 
ATOM      4  C   LIG    1       -5.806   1.401   2.463  0.00  0.00    +0.030 C 
ATOM      5  C   LIG    1       -6.953   1.243   1.463  0.00  0.00    +0.060 C 
ATOM      6  C   LIG    1       -6.415   0.662   0.154  0.00  0.00    -0.020 C 
ATOM      7  C   LIG    1       -5.383   1.625  -0.442  0.00  0.00    +0.300 C 
ATOM      8  O   LIG    1       -2.708   1.402  -0.844  0.00  0.00    -0.520 OA
ENDROOT
BRANCH   1  13
ATOM      9  C   LIG    1       -0.604   2.774   2.798  0.00  0.00    -0.250 A 
ATOM     10  C   LIG    1       -0.553   1.393   2.910  0.00  0.00    +0.090 A 
ATOM     11  N   LIG    1       -1.412   0.866   2.025  0.00  0.00    -0.510 N 
ATOM     12  H   LIG    1       -1.572  -0.082   1.896  0.00  0.00    +0.420 HD
ATOM     13  C   LIG    1       -2.034   1.882   1.333  0.00  0.00    -0.040 A 
ATOM     14  C   LIG    1        0.318   0.618   3.864  0.00  0.00    +0.150 C 
ATOM     15  C   LIG    1       -1.550   3.071   1.786  0.00  0.00    -0.070 A 
ATOM     16  C   LIG    1       -1.948   4.443   1.308  0.00  0.00    +0.120 C 
BRANCH   9  18
ATOM     17  C   LIG    1       -0.422   4.361   4.817  0.00  0.00    +0.060 C 
ATOM     18  C   LIG    1        0.172   3.742   3.578  0.00  0.00    +0.430 C 
ATOM     19  O   LIG    1        1.293   4.045   3.227  0.00  0.00    -0.450 OA
ENDBRANCH   9  18
ENDBRANCH   1  13
BRANCH   6  20
ATOM     20  C   LIG    1       -7.551   0.476  -0.819  0.00  0.00    +0.520 C 
ATOM     21  N   LIG    1       -7.311  -0.023  -2.047  0.00  0.00    -0.670 N 
ATOM     22  H   LIG    1       -6.424  -0.340  -2.277  0.00  0.00    +0.410 HD
ATOM     23  O   LIG    1       -8.681   0.776  -0.496  0.00  0.00    -0.510 OA
BRANCH  21  24
ATOM     24  C   LIG    1       -8.342  -0.084  -2.991  0.00  0.00    +0.140 A 
ATOM     25  C   LIG    1       -8.393  -1.133  -3.900  0.00  0.00    -0.010 A 
ATOM     26  C   LIG    1       -9.414  -1.193  -4.828  0.00  0.00    +0.030 A 
ATOM     27  C   LIG    1      -10.380  -0.204  -4.859  0.00  0.00    -0.010 A 
ATOM     28  C   LIG    1      -10.330   0.845  -3.958  0.00  0.00    +0.030 A 
ATOM     29  C   LIG    1       -9.314   0.907  -3.025  0.00  0.00    +0.010 A 
ENDBRANCH  21  24
ENDBRANCH   6  20
TORSDOF 4
