REMARK  Name = ZINCkj000005fS0E.1
REMARK                            x       y       z     vdW  Elec       q    Type
REMARK                         _______ _______ _______ _____ _____    ______ ____
ROOT
ATOM      1  C   LIG    1       -3.276  -0.383  -0.577  0.00  0.00    +0.380 C 
ENDROOT
BRANCH   1   2
ATOM      2  N   LIG    1       -3.757  -1.735  -0.285  0.00  0.00    -0.440 N 
ATOM      3  N   LIG    1       -4.797  -2.404  -0.945  0.00  0.00    -0.300 NA
ATOM      4  C   LIG    1       -4.924  -3.591  -0.398  0.00  0.00    +0.320 A 
ATOM      5  C   LIG    1       -5.804  -4.670  -0.667  0.00  0.00    +0.030 A 
ATOM      6  C   LIG    1       -5.715  -5.799   0.077  0.00  0.00    +0.130 A 
ATOM      7  C   LIG    1       -4.754  -5.889   1.105  0.00  0.00    -0.010 A 
ATOM      8  C   LIG    1       -3.922  -4.863   1.356  0.00  0.00    +0.300 A 
ATOM      9  N   LIG    1       -3.992  -3.707   0.616  0.00  0.00    -0.480 N 
ATOM     10  C   LIG    1       -3.285  -2.560   0.672  0.00  0.00    +0.650 A 
ATOM     11  O   LIG    1       -2.379  -2.313   1.449  0.00  0.00    -0.530 OA
ENDBRANCH   1   2
BRANCH   1  12
ATOM     12  C   LIG    1       -2.155  -0.454  -1.617  0.00  0.00    +0.330 C 
BRANCH  12  18
ATOM     13  C   LIG    1       -0.742   1.585  -1.213  0.00  0.00    +0.320 C 
ATOM     14  N   LIG    1       -0.573   2.750  -1.776  0.00  0.00    -0.470 N 
ATOM     15  C   LIG    1       -1.387   2.850  -2.837  0.00  0.00    +0.240 C 
ATOM     16  C   LIG    1       -2.087   1.704  -2.936  0.00  0.00    +0.260 C 
ATOM     17  H   LIG    1        0.044   3.435  -1.475  0.00  0.00    +0.460 HD
ATOM     18  N   LIG    1       -1.673   0.899  -1.909  0.00  0.00    -0.410 N 
BRANCH  13  19
ATOM     19  C   LIG    1       -0.013   1.086   0.008  0.00  0.00    +0.170 C 
BRANCH  19  21
ATOM     20  C   LIG    1        0.011   1.072   2.506  0.00  0.00    +0.040 C 
ATOM     21  C   LIG    1       -0.729   1.579   1.267  0.00  0.00    +0.030 C 
ENDBRANCH  19  21
ENDBRANCH  13  19
ENDBRANCH  12  18
ENDBRANCH   1  12
TORSDOF 5
