REMARK  Name = ZINCrH000004l1Sl.0
REMARK                            x       y       z     vdW  Elec       q    Type
REMARK                         _______ _______ _______ _____ _____    ______ ____
ROOT
ATOM      1  N   LIG    1       -1.191   1.867   0.018  0.00  0.00    -0.670 N 
ATOM      2  H   LIG    1       -1.205   2.833   0.099  0.00  0.00    +0.420 HD
ATOM      3  C   LIG    1       -0.014   1.209   0.006  0.00  0.00    +0.520 C 
ATOM      4  O   LIG    1        0.003  -0.004   0.006  0.00  0.00    -0.510 OA
ENDROOT
BRANCH   1   9
ATOM      5  C   LIG    1       -4.760   0.982   0.312  0.00  0.00    -0.100 A 
ATOM      6  C   LIG    1       -4.765  -0.273  -0.302  0.00  0.00    +0.080 A 
ATOM      7  C   LIG    1       -3.592  -0.802  -0.799  0.00  0.00    +0.050 A 
ATOM      8  C   LIG    1       -2.410  -0.091  -0.699  0.00  0.00    +0.070 A 
ATOM      9  C   LIG    1       -2.392   1.155  -0.086  0.00  0.00    +0.150 A 
ATOM     10  C   LIG    1       -3.565   1.697   0.418  0.00  0.00    -0.020 A 
ATOM     11 CL   LIG    1       -3.548   3.257   1.179  0.00  0.00    -0.020 Cl
BRANCH   5  12
ATOM     12  C   LIG    1       -6.014   1.551   0.845  0.00  0.00    +0.500 C 
ATOM     13  O   LIG    1       -6.008   2.642   1.378  0.00  0.00    -0.480 OA
BRANCH  12  15
ATOM     14  C   LIG    1       -8.359   1.479   1.288  0.00  0.00    +0.290 C 
ATOM     15  O   LIG    1       -7.166   0.859   0.741  0.00  0.00    -0.350 OA
ENDBRANCH  12  15
ENDBRANCH   5  12
ENDBRANCH   1   9
BRANCH   3  16
ATOM     16  C   LIG    1        1.280   1.980  -0.015  0.00  0.00    +0.080 C 
BRANCH  16  17
ATOM     17  C   LIG    1        2.457   1.002  -0.032  0.00  0.00    +0.230 C 
BRANCH  17  18
ATOM     18  C   LIG    1        3.751   1.774  -0.052  0.00  0.00    +0.160 A 
ATOM     19  N   LIG    1        4.428   2.168   0.990  0.00  0.00    -0.270 NA
ATOM     20  N   LIG    1        5.482   2.798   0.604  0.00  0.00    -0.270 NA
ATOM     21  C   LIG    1        5.513   2.829  -0.707  0.00  0.00    +0.210 A 
ATOM     22  O   LIG    1        4.419   2.175  -1.148  0.00  0.00    -0.220 OA
BRANCH  21  23
ATOM     23  C   LIG    1        6.555   3.457  -1.546  0.00  0.00    -0.030 A 
ATOM     24  C   LIG    1        6.461   3.406  -2.937  0.00  0.00    +0.050 A 
ATOM     25  C   LIG    1        7.434   3.999  -3.714  0.00  0.00    +0.010 A 
ATOM     26  C   LIG    1        8.509   4.634  -3.117  0.00  0.00    +0.040 A 
ATOM     27  C   LIG    1        8.611   4.683  -1.738  0.00  0.00    +0.020 A 
ATOM     28  C   LIG    1        7.641   4.099  -0.950  0.00  0.00    +0.070 A 
ENDBRANCH  21  23
ENDBRANCH  17  18
ENDBRANCH  16  17
ENDBRANCH   3  16
TORSDOF 7
