REMARK  Name = ZINCqH0000005XFN.0
REMARK                            x       y       z     vdW  Elec       q    Type
REMARK                         _______ _______ _______ _____ _____    ______ ____
ROOT
ATOM      1  N   LIG    1       -1.156  -0.694   0.009  0.00  0.00    -0.670 N 
ATOM      2  H   LIG    1       -2.000  -0.224   0.096  0.00  0.00    +0.410 HD
ATOM      3  C   LIG    1        0.002  -0.004  -0.001  0.00  0.00    +0.560 C 
ATOM      4  O   LIG    1        1.063  -0.597  -0.025  0.00  0.00    -0.500 OA
ENDROOT
BRANCH   1   8
ATOM      5  C   LIG    1       -1.110  -4.844  -0.327  0.00  0.00    -0.150 A 
ATOM      6  C   LIG    1       -0.090  -4.186   0.368  0.00  0.00    +0.110 A 
ATOM      7  C   LIG    1       -0.109  -2.814   0.477  0.00  0.00    +0.020 A 
ATOM      8  C   LIG    1       -1.140  -2.082  -0.103  0.00  0.00    +0.180 A 
ATOM      9  C   LIG    1       -2.160  -2.735  -0.791  0.00  0.00    -0.020 A 
ATOM     10  C   LIG    1       -2.145  -4.106  -0.908  0.00  0.00    +0.100 A 
BRANCH   5  11
ATOM     11  C   LIG    1       -1.094  -6.314  -0.445  0.00  0.00    +0.510 C 
ATOM     12  O   LIG    1       -0.195  -6.955   0.062  0.00  0.00    -0.510 OA
BRANCH  11  14
ATOM     13  C   LIG    1       -1.998  -8.395  -1.190  0.00  0.00    +0.260 C 
ATOM     14  O   LIG    1       -2.078  -6.947  -1.114  0.00  0.00    -0.360 OA
ENDBRANCH  11  14
ENDBRANCH   5  11
ENDBRANCH   1   8
BRANCH   3  15
ATOM     15  C   LIG    1       -0.018   1.474   0.016  0.00  0.00    -0.100 A 
ATOM     16  C   LIG    1       -1.235   2.158   0.037  0.00  0.00    +0.010 A 
ATOM     17  C   LIG    1       -1.250   3.538   0.059  0.00  0.00    +0.060 A 
ATOM     18  C   LIG    1       -0.063   4.246   0.049  0.00  0.00    -0.040 A 
ATOM     19  C   LIG    1        1.152   3.575   0.021  0.00  0.00    +0.130 A 
ATOM     20  C   LIG    1        1.179   2.191   0.005  0.00  0.00    +0.060 A 
BRANCH  19  21
ATOM     21  O   LIG    1        2.316   4.277   0.010  0.00  0.00    -0.310 OA
BRANCH  21  22
ATOM     22  C   LIG    1        2.214   5.702   0.028  0.00  0.00    +0.320 C 
BRANCH  22  23
ATOM     23  C   LIG    1        3.595   6.305   0.013  0.00  0.00    +0.050 A 
ATOM     24  C   LIG    1        4.707   5.564  -0.009  0.00  0.00    -0.040 A 
ATOM     25  S   LIG    1        6.087   6.659  -0.023  0.00  0.00    +0.140 S 
ATOM     26  C   LIG    1        5.032   8.004   0.010  0.00  0.00    +0.230 A 
ATOM     27  N   LIG    1        3.805   7.606   0.025  0.00  0.00    -0.470 NA
ENDBRANCH  22  23
ENDBRANCH  21  22
ENDBRANCH  19  21
ENDBRANCH   3  15
TORSDOF 7
