REMARK  Name = ZINCrD0000075gjG.0
REMARK                            x       y       z     vdW  Elec       q    Type
REMARK                         _______ _______ _______ _____ _____    ______ ____
ROOT
ATOM      1  C   LIG    1        3.225  -7.013  -0.042  0.00  0.00    +0.510 C 
ATOM      2  O   LIG    1        2.031  -7.159   0.130  0.00  0.00    -0.500 OA
ENDROOT
BRANCH   1   6
ATOM      3  C   LIG    1        5.789 -10.397  -0.101  0.00  0.00    +0.180 A 
ATOM      4  C   LIG    1        4.422 -10.565   0.097  0.00  0.00    +0.010 A 
ATOM      5  C   LIG    1        3.588  -9.471   0.117  0.00  0.00    +0.110 A 
ATOM      6  C   LIG    1        4.115  -8.188  -0.062  0.00  0.00    -0.140 A 
ATOM      7  C   LIG    1        5.489  -8.023  -0.266  0.00  0.00    +0.110 A 
ATOM      8  C   LIG    1        6.318  -9.122  -0.280  0.00  0.00    -0.020 A 
BRANCH   3  10
ATOM      9  C   LIG    1        6.188 -12.680  -0.616  0.00  0.00    +0.520 C 
ATOM     10  N   LIG    1        6.631 -11.508  -0.121  0.00  0.00    -0.670 N 
ATOM     11  H   LIG    1        7.536 -11.437   0.221  0.00  0.00    +0.420 HD
ATOM     12  O   LIG    1        5.092 -12.745  -1.131  0.00  0.00    -0.500 OA
BRANCH   9  13
ATOM     13  C   LIG    1        7.055 -13.910  -0.529  0.00  0.00    +0.260 C 
BRANCH  13  15
ATOM     14  N   LIG    1        5.805 -15.931  -1.604  0.00  0.00    -0.400 NA
ATOM     15  C   LIG    1        6.349 -15.051  -1.136  0.00  0.00    +0.210 C 
ENDBRANCH  13  15
ENDBRANCH   9  13
ENDBRANCH   3  10
ENDBRANCH   1   6
BRANCH   1  16
ATOM     16  O   LIG    1        3.735  -5.778  -0.214  0.00  0.00    -0.340 OA
BRANCH  16  17
ATOM     17  C   LIG    1        2.799  -4.668  -0.183  0.00  0.00    +0.250 C 
BRANCH  17  18
ATOM     18  C   LIG    1        3.546  -3.376  -0.392  0.00  0.00    +0.440 C 
ATOM     19  O   LIG    1        4.749  -3.389  -0.552  0.00  0.00    -0.410 OA
BRANCH  18  20
ATOM     20  C   LIG    1        2.843  -2.145  -0.402  0.00  0.00    -0.070 A 
ATOM     21  C   LIG    1        3.406  -0.918  -0.580  0.00  0.00    +0.090 A 
ATOM     22  C   LIG    1        2.355   0.030  -0.520  0.00  0.00    -0.150 A 
ATOM     23  C   LIG    1        2.301   1.424  -0.631  0.00  0.00    +0.080 A 
ATOM     24  C   LIG    1        1.101   2.067  -0.523  0.00  0.00    +0.000 A 
ATOM     25  C   LIG    1       -0.067   1.348  -0.307  0.00  0.00    +0.070 A 
ATOM     26  C   LIG    1       -0.037  -0.026  -0.196  0.00  0.00    +0.020 A 
ATOM     27  C   LIG    1        1.173  -0.702  -0.300  0.00  0.00    +0.080 A 
ATOM     28  O   LIG    1        1.509  -2.006  -0.235  0.00  0.00    -0.170 OA
ENDBRANCH  18  20
ENDBRANCH  17  18
ENDBRANCH  16  17
ENDBRANCH   1  16
TORSDOF 8
