REMARK  Name = ZINCqH0000008afs.0
REMARK                            x       y       z     vdW  Elec       q    Type
REMARK                         _______ _______ _______ _____ _____    ______ ____
ROOT
ATOM      1  C   LIG    1       -4.226  -0.408  -0.816  0.00  0.00    +0.030 C 
ATOM      2  C   LIG    1       -3.298  -1.014   0.239  0.00  0.00    +0.180 C 
ENDROOT
BRANCH   2   3
ATOM      3  C   LIG    1       -3.825  -0.696   1.615  0.00  0.00    +0.530 C 
ATOM      4  N   LIG    1       -3.681   0.545   2.120  0.00  0.00    -0.670 N 
ATOM      5  H   LIG    1       -3.295   1.249   1.576  0.00  0.00    +0.410 HD
ATOM      6  O   LIG    1       -4.378  -1.556   2.266  0.00  0.00    -0.500 OA
BRANCH   4   7
ATOM      7  C   LIG    1       -4.088   0.818   3.433  0.00  0.00    +0.150 A 
ATOM      8  C   LIG    1       -5.134   0.102   3.999  0.00  0.00    +0.080 A 
ATOM      9  C   LIG    1       -5.531   0.369   5.295  0.00  0.00    +0.020 A 
ATOM     10  C   LIG    1       -4.891   1.354   6.027  0.00  0.00    +0.100 A 
ATOM     11  C   LIG    1       -3.851   2.074   5.463  0.00  0.00    +0.020 A 
ATOM     12  F   LIG    1       -5.281   1.613   7.295  0.00  0.00    -0.130 F 
ATOM     13  C   LIG    1       -3.451   1.811   4.167  0.00  0.00    -0.040 A 
ATOM     14 CL   LIG    1       -2.148   2.714   3.459  0.00  0.00    -0.050 Cl
ENDBRANCH   4   7
ENDBRANCH   2   3
BRANCH   2  15
ATOM     15  N   LIG    1       -3.242  -2.472   0.062  0.00  0.00    -0.510 NA
ATOM     16  C   LIG    1       -2.403  -2.830  -1.090  0.00  0.00    +0.200 C 
BRANCH  15  17
ATOM     17  C   LIG    1       -4.591  -3.038  -0.074  0.00  0.00    +0.240 C 
BRANCH  17  18
ATOM     18  C   LIG    1       -4.514  -4.541  -0.007  0.00  0.00    -0.070 A 
ATOM     19  C   LIG    1       -4.346  -5.276  -1.165  0.00  0.00    +0.020 A 
ATOM     20  C   LIG    1       -4.270  -6.655  -1.108  0.00  0.00    +0.010 A 
ATOM     21  C   LIG    1       -4.373  -7.306   0.112  0.00  0.00    +0.050 A 
ATOM     22  O   LIG    1       -4.306  -8.664   0.152  0.00  0.00    -0.310 OA
ATOM     23  C   LIG    1       -4.037  -9.258   1.427  0.00  0.00    +0.220 C 
ATOM     24  C   LIG    1       -4.942  -8.586   2.470  0.00  0.00    +0.220 C 
ATOM     25  O   LIG    1       -4.644  -7.186   2.486  0.00  0.00    -0.310 OA
ATOM     26  C   LIG    1       -4.546  -6.567   1.277  0.00  0.00    +0.050 A 
ATOM     27  C   LIG    1       -4.617  -5.184   1.213  0.00  0.00    +0.060 A 
ENDBRANCH  17  18
ENDBRANCH  15  17
ENDBRANCH   2  15
TORSDOF 5
