REMARK  Name = ZINCpk00000eaNF5.0
REMARK                            x       y       z     vdW  Elec       q    Type
REMARK                         _______ _______ _______ _____ _____    ______ ____
ROOT
ATOM      1  C   LIG    1        2.461  -4.140   0.079  0.00  0.00    +0.520 C 
ATOM      2  N   LIG    1        2.451  -2.795  -0.015  0.00  0.00    -0.660 N 
ATOM      3  H   LIG    1        3.287  -2.309  -0.093  0.00  0.00    +0.410 HD
ATOM      4  O   LIG    1        1.415  -4.754   0.096  0.00  0.00    -0.490 OA
ENDROOT
BRANCH   2   5
ATOM      5  C   LIG    1        1.240  -2.104  -0.002  0.00  0.00    +0.160 A 
ATOM      6  C   LIG    1        0.118  -2.654  -0.586  0.00  0.00    +0.030 A 
ATOM      7  C   LIG    1       -1.094  -1.969  -0.577  0.00  0.00    +0.060 A 
ATOM      8  C   LIG    1       -1.206  -0.743   0.004  0.00  0.00    +0.040 A 
ATOM      9  C   LIG    1       -0.088  -0.146   0.611  0.00  0.00    +0.140 A 
ATOM     10  N   LIG    1       -0.177   1.056   1.188  0.00  0.00    -0.470 NA
ATOM     11  C   LIG    1        0.862   1.619   1.756  0.00  0.00    +0.290 A 
ATOM     12  C   LIG    1        2.107   0.996   1.786  0.00  0.00    -0.030 A 
ATOM     13  C   LIG    1        2.267  -0.235   1.214  0.00  0.00    +0.070 A 
ATOM     14  C   LIG    1        1.150  -0.835   0.607  0.00  0.00    -0.110 A 
ENDBRANCH   2   5
BRANCH   1  16
ATOM     15  C   LIG    1        4.547  -4.693  -1.142  0.00  0.00    +0.070 C 
ATOM     16  C   LIG    1        3.771  -4.880   0.163  0.00  0.00    +0.190 C 
BRANCH  16  17
ATOM     17  O   LIG    1        3.515  -6.294   0.375  0.00  0.00    -0.330 OA
BRANCH  17  18
ATOM     18  C   LIG    1        4.438  -6.983   1.064  0.00  0.00    +0.470 C 
ATOM     19  O   LIG    1        5.427  -6.424   1.475  0.00  0.00    -0.480 OA
BRANCH  18  20
ATOM     20  C   LIG    1        4.241  -8.454   1.323  0.00  0.00    +0.150 C 
ATOM     21  C   LIG    1        4.765  -9.259   0.131  0.00  0.00    +0.260 C 
ATOM     22  O   LIG    1        4.645 -10.655   0.414  0.00  0.00    -0.370 OA
ATOM     23  C   LIG    1        5.354 -11.068   1.585  0.00  0.00    +0.240 C 
ATOM     24  C   LIG    1        4.836 -10.282   2.793  0.00  0.00    +0.170 C 
ATOM     25  N   LIG    1        4.981  -8.843   2.533  0.00  0.00    -0.520 NA
ATOM     26  C   LIG    1        4.547  -8.052   3.692  0.00  0.00    +0.200 C 
ENDBRANCH  18  20
ENDBRANCH  17  18
ENDBRANCH  16  17
ENDBRANCH   1  16
TORSDOF 5
