REMARK  Name = ZINCvU00000004rj.0
REMARK                            x       y       z     vdW  Elec       q    Type
REMARK                         _______ _______ _______ _____ _____    ______ ____
ROOT
ATOM      1  C   LIG    1        2.139   7.588   0.736  0.00  0.00    +0.470 C 
ATOM      2  O   LIG    1        2.515   7.539   1.884  0.00  0.00    -0.500 OA
ENDROOT
BRANCH   1   3
ATOM      3  O   LIG    1        1.818   8.768   0.185  0.00  0.00    -0.330 OA
BRANCH   3   4
ATOM      4  C   LIG    1        1.946   9.945   1.025  0.00  0.00    +0.190 C 
ATOM      5  C   LIG    1        3.354  10.524   0.881  0.00  0.00    +0.070 C 
BRANCH   4   8
ATOM      6  N   LIG    1        0.866  12.160   1.245  0.00  0.00    -0.670 N 
ATOM      7  H   LIG    1        1.423  12.321   2.022  0.00  0.00    +0.410 HD
ATOM      8  C   LIG    1        0.932  10.977   0.602  0.00  0.00    +0.520 C 
ATOM      9  O   LIG    1        0.177  10.744  -0.318  0.00  0.00    -0.490 OA
BRANCH   6  14
ATOM     10  C   LIG    1       -2.675  16.194  -0.593  0.00  0.00    +0.090 C 
ATOM     11  C   LIG    1       -1.734  15.122  -0.105  0.00  0.00    -0.100 A 
ATOM     12  C   LIG    1       -2.097  13.791  -0.198  0.00  0.00    +0.030 A 
ATOM     13  C   LIG    1       -1.237  12.806   0.249  0.00  0.00    +0.020 A 
ATOM     14  C   LIG    1       -0.007  13.155   0.792  0.00  0.00    +0.130 A 
ATOM     15  C   LIG    1        0.352  14.493   0.889  0.00  0.00    -0.010 A 
ATOM     16  C   LIG    1       -0.510  15.472   0.435  0.00  0.00    +0.030 A 
ENDBRANCH   6  14
ENDBRANCH   4   8
ENDBRANCH   3   4
ENDBRANCH   1   3
BRANCH   1  17
ATOM     17  C   LIG    1        2.031   6.322  -0.075  0.00  0.00    +0.100 C 
BRANCH  17  18
ATOM     18  C   LIG    1        2.453   5.128   0.783  0.00  0.00    +0.330 C 
BRANCH  18  19
ATOM     19  N   LIG    1        2.349   3.898  -0.006  0.00  0.00    -0.580 N 
ATOM     20  C   LIG    1        1.145   3.183  -0.002  0.00  0.00    +0.190 A 
ATOM     21  C   LIG    1       -0.066   3.856   0.008  0.00  0.00    -0.020 A 
ATOM     22  C   LIG    1       -1.253   3.143   0.006  0.00  0.00    +0.050 A 
ATOM     23  C   LIG    1       -1.238   1.762  -0.010  0.00  0.00    +0.000 A 
ATOM     24  C   LIG    1       -0.033   1.080  -0.012  0.00  0.00    +0.080 A 
ATOM     25  C   LIG    1        1.155   1.786  -0.011  0.00  0.00    -0.150 A 
ATOM     26  S   LIG    1        2.704   0.940  -0.018  0.00  0.00    +0.010 S 
ATOM     27  C   LIG    1        3.744   2.101  -0.846  0.00  0.00    -0.150 A 
ATOM     28  C   LIG    1        4.831   1.671  -1.584  0.00  0.00    +0.070 A 
ATOM     29  C   LIG    1        5.637   2.597  -2.226  0.00  0.00    +0.000 A 
ATOM     30  C   LIG    1        5.354   3.946  -2.128  0.00  0.00    +0.050 A 
ATOM     31  C   LIG    1        4.266   4.382  -1.391  0.00  0.00    -0.020 A 
ATOM     32  C   LIG    1        3.454   3.464  -0.746  0.00  0.00    +0.190 A 
ENDBRANCH  18  19
ENDBRANCH  17  18
ENDBRANCH   1  17
TORSDOF 7
