REMARK  Name = ZINCqH0000003OE5.0
REMARK                            x       y       z     vdW  Elec       q    Type
REMARK                         _______ _______ _______ _____ _____    ______ ____
ROOT
ATOM      1  C   LIG    1       -0.763   3.587   0.029  0.00  0.00    +0.300 A 
ATOM      2  C   LIG    1       -1.169   2.290   0.019  0.00  0.00    -0.080 A 
ATOM      3  C   LIG    1       -0.018   1.480   0.010  0.00  0.00    +0.120 A 
ATOM      4  N   LIG    1        1.037   2.267   0.004  0.00  0.00    -0.270 NA
ATOM      5  N   LIG    1        0.596   3.596   0.016  0.00  0.00    -0.390 N 
ATOM      6  C   LIG    1        1.449   4.786   0.014  0.00  0.00    +0.360 C 
ENDROOT
BRANCH   3   7
ATOM      7  C   LIG    1        0.002  -0.004   0.002  0.00  0.00    +0.020 A 
ATOM      8  C   LIG    1       -1.190  -0.718  -0.096  0.00  0.00    +0.000 A 
ATOM      9  C   LIG    1       -1.169  -2.099  -0.103  0.00  0.00    +0.050 A 
ATOM     10  C   LIG    1        0.033  -2.776  -0.014  0.00  0.00    -0.070 A 
ATOM     11  C   LIG    1        1.225  -2.071   0.083  0.00  0.00    +0.120 A 
ATOM     12  C   LIG    1        1.213  -0.686   0.087  0.00  0.00    +0.020 A 
BRANCH  11  13
ATOM     13  O   LIG    1        2.405  -2.741   0.171  0.00  0.00    -0.320 OA
ATOM     14  C   LIG    1        2.343  -4.168   0.156  0.00  0.00    +0.250 C 
ENDBRANCH  11  13
ENDBRANCH   3   7
BRANCH   1  16
ATOM     15  C   LIG    1       -2.931   4.555   0.054  0.00  0.00    +0.570 C 
ATOM     16  N   LIG    1       -1.592   4.708   0.042  0.00  0.00    -0.640 N 
ATOM     17  H   LIG    1       -1.206   5.597   0.042  0.00  0.00    +0.410 HD
ATOM     18  O   LIG    1       -3.416   3.440   0.053  0.00  0.00    -0.490 OA
BRANCH  15  23
ATOM     19  C   LIG    1       -6.014   6.706   0.094  0.00  0.00    +0.130 A 
ATOM     20  C   LIG    1       -5.454   7.976   0.094  0.00  0.00    -0.040 A 
ATOM     21  C   LIG    1       -4.080   8.132   0.082  0.00  0.00    +0.060 A 
ATOM     22  C   LIG    1       -3.256   7.025   0.075  0.00  0.00    +0.000 A 
ATOM     23  C   LIG    1       -3.811   5.744   0.068  0.00  0.00    -0.100 A 
ATOM     24  C   LIG    1       -5.197   5.588   0.081  0.00  0.00    +0.060 A 
BRANCH  19  25
ATOM     25  O   LIG    1       -7.365   6.560   0.106  0.00  0.00    -0.310 OA
BRANCH  25  27
ATOM     26  C   LIG    1       -9.634   7.393   0.132  0.00  0.00    +0.070 C 
ATOM     27  C   LIG    1       -8.148   7.756   0.119  0.00  0.00    +0.170 C 
ENDBRANCH  25  27
ENDBRANCH  19  25
ENDBRANCH  15  23
ENDBRANCH   1  16
TORSDOF 6
