REMARK  Name = ZINCrD0000073XIb.0
REMARK                            x       y       z     vdW  Elec       q    Type
REMARK                         _______ _______ _______ _____ _____    ______ ____
ROOT
ATOM      1  C   LIG    1       -3.777   3.730   3.262  0.00  0.00    +0.520 C 
ATOM      2  N   LIG    1       -2.823   4.195   4.093  0.00  0.00    -0.610 N 
ATOM      3  C   LIG    1       -3.173   5.069   5.221  0.00  0.00    +0.270 C 
ATOM      4  C   LIG    1       -2.598   4.468   6.507  0.00  0.00    +0.020 C 
ATOM      5  C   LIG    1       -1.095   4.240   6.332  0.00  0.00    +0.030 C 
ATOM      6  C   LIG    1       -0.854   3.253   5.187  0.00  0.00    +0.050 C 
ATOM      7  C   LIG    1       -1.412   3.839   3.887  0.00  0.00    +0.360 C 
ATOM      8  O   LIG    1       -3.490   2.931   2.396  0.00  0.00    -0.480 OA
ENDROOT
BRANCH   7   9
ATOM      9  C   LIG    1       -1.305   2.816   2.785  0.00  0.00    +0.170 A 
ATOM     10  N   LIG    1       -1.750   1.592   2.823  0.00  0.00    -0.250 NA
ATOM     11  N   LIG    1       -1.489   1.008   1.707  0.00  0.00    -0.260 NA
ATOM     12  C   LIG    1       -0.862   1.837   0.921  0.00  0.00    +0.160 A 
ATOM     13  O   LIG    1       -0.734   3.000   1.583  0.00  0.00    -0.230 OA
BRANCH  12  14
ATOM     14  C   LIG    1       -0.375   1.547  -0.475  0.00  0.00    +0.340 C 
BRANCH  14  15
ATOM     15  N   LIG    1       -1.431   1.877  -1.441  0.00  0.00    -0.540 NA
ATOM     16  C   LIG    1       -1.088   1.391  -2.784  0.00  0.00    +0.220 C 
ATOM     17  C   LIG    1       -1.697   3.322  -1.456  0.00  0.00    +0.190 C 
ENDBRANCH  14  15
ENDBRANCH  12  14
ENDBRANCH   7   9
BRANCH   1  19
ATOM     18  C   LIG    1       -5.275   5.699   3.100  0.00  0.00    +0.060 C 
ATOM     19  C   LIG    1       -5.200   4.202   3.410  0.00  0.00    +0.170 C 
BRANCH  19  20
ATOM     20  O   LIG    1       -6.037   3.485   2.500  0.00  0.00    -0.280 OA
BRANCH  20  21
ATOM     21  C   LIG    1       -7.360   3.416   2.803  0.00  0.00    +0.150 A 
ATOM     22  C   LIG    1       -7.833   3.971   3.983  0.00  0.00    -0.080 A 
ATOM     23  C   LIG    1       -9.179   3.904   4.287  0.00  0.00    +0.080 A 
ATOM     24  C   LIG    1      -10.054   3.275   3.421  0.00  0.00    -0.010 A 
ATOM     25  C   LIG    1       -9.585   2.716   2.245  0.00  0.00    +0.010 A 
ATOM     26 CL   LIG    1      -10.686   1.928   1.159  0.00  0.00    -0.060 Cl
ATOM     27  C   LIG    1       -8.239   2.785   1.934  0.00  0.00    +0.000 A 
ENDBRANCH  20  21
ENDBRANCH  19  20
ENDBRANCH   1  19
TORSDOF 6
