REMARK  Name = ZINCqH0000050fid.0
REMARK                            x       y       z     vdW  Elec       q    Type
REMARK                         _______ _______ _______ _____ _____    ______ ____
ROOT
ATOM      1  N   LIG    1        2.393   1.103  -0.030  0.00  0.00    -0.730 N 
ATOM      2  H   LIG    1        3.226   1.600  -0.030  0.00  0.00    +0.410 HD
ENDROOT
BRANCH   1   6
ATOM      3  C   LIG    1       -0.077   5.353  -0.009  0.00  0.00    +0.090 C 
ATOM      4  C   LIG    1       -0.054   3.846  -0.015  0.00  0.00    -0.020 A 
ATOM      5  C   LIG    1        1.151   3.174  -0.020  0.00  0.00    -0.050 A 
ATOM      6  C   LIG    1        1.171   1.785  -0.026  0.00  0.00    +0.230 A 
ATOM      7  C   LIG    1       -0.021   1.073  -0.027  0.00  0.00    -0.070 A 
ATOM      8  C   LIG    1       -1.227   1.746  -0.028  0.00  0.00    +0.070 A 
ATOM      9  C   LIG    1       -1.247   3.135  -0.017  0.00  0.00    +0.080 A 
BRANCH   9  10
ATOM     10  N   LIG    1       -2.471   3.818  -0.012  0.00  0.00    -0.570 N 
ATOM     11  C   LIG    1       -3.192   4.216   1.202  0.00  0.00    +0.250 C 
ATOM     12  C   LIG    1       -4.635   4.524   0.742  0.00  0.00    +0.040 C 
ATOM     13  C   LIG    1       -4.419   4.896  -0.743  0.00  0.00    +0.050 C 
ATOM     14  C   LIG    1       -3.131   4.197  -1.120  0.00  0.00    +0.520 C 
ATOM     15  O   LIG    1       -2.752   4.005  -2.256  0.00  0.00    -0.520 OA
ENDBRANCH   9  10
ENDBRANCH   1   6
BRANCH   1  16
ATOM     16  C   LIG    1        2.414  -0.362  -0.036  0.00  0.00    +0.250 C 
ATOM     17  C   LIG    1        2.298  -0.879   1.399  0.00  0.00    +0.050 C 
BRANCH  16  18
ATOM     18  C   LIG    1        3.708  -0.843  -0.640  0.00  0.00    +0.510 C 
ATOM     19  N   LIG    1        3.950  -2.164  -0.750  0.00  0.00    -0.660 N 
ATOM     20  H   LIG    1        3.330  -2.804  -0.369  0.00  0.00    +0.420 HD
ATOM     21  O   LIG    1        4.532  -0.041  -1.028  0.00  0.00    -0.510 OA
BRANCH  19  22
ATOM     22  C   LIG    1        5.098  -2.612  -1.415  0.00  0.00    +0.120 A 
ATOM     23  C   LIG    1        5.702  -1.814  -2.376  0.00  0.00    +0.040 A 
ATOM     24  C   LIG    1        6.835  -2.259  -3.030  0.00  0.00    +0.030 A 
ATOM     25  C   LIG    1        7.368  -3.498  -2.729  0.00  0.00    +0.030 A 
ATOM     26  C   LIG    1        6.769  -4.299  -1.773  0.00  0.00    +0.010 A 
ATOM     27  C   LIG    1        5.639  -3.857  -1.110  0.00  0.00    +0.070 A 
ATOM     28  F   LIG    1        5.058  -4.636  -0.172  0.00  0.00    -0.140 F 
ENDBRANCH  19  22
ENDBRANCH  16  18
ENDBRANCH   1  16
TORSDOF 5
