REMARK  Name = ZINCpe00000Mypuc.0
REMARK                            x       y       z     vdW  Elec       q    Type
REMARK                         _______ _______ _______ _____ _____    ______ ____
ROOT
ATOM      1  C   LIG    1       -1.035   1.948   1.951  0.00  0.00    +0.230 C 
ATOM      2  C   LIG    1       -1.312   2.813   3.187  0.00  0.00    +0.340 C 
ATOM      3  N   LIG    1       -2.615   3.460   3.037  0.00  0.00    -0.470 N 
ATOM      4  C   LIG    1       -3.100   4.535   3.691  0.00  0.00    +0.190 A 
ATOM      5  N   LIG    1       -4.309   4.747   3.237  0.00  0.00    -0.290 NA
ATOM      6  N   LIG    1       -4.598   3.869   2.339  0.00  0.00    -0.270 NA
ATOM      7  C   LIG    1       -2.385   5.339   4.745  0.00  0.00    +0.200 C 
ATOM      8  C   LIG    1       -3.592   3.065   2.182  0.00  0.00    +0.150 A 
ATOM      9  C   LIG    1       -3.458   1.894   1.239  0.00  0.00    +0.450 C 
ATOM     10  N   LIG    1       -2.236   1.163   1.629  0.00  0.00    -0.610 N 
ATOM     11  C   LIG    1       -2.222  -0.183   1.688  0.00  0.00    +0.570 C 
ATOM     12  O   LIG    1       -1.218  -0.764   2.054  0.00  0.00    -0.490 OA
ENDROOT
BRANCH  11  13
ATOM     13  C   LIG    1       -3.424  -0.951   1.311  0.00  0.00    -0.110 A 
ATOM     14  C   LIG    1       -3.757  -1.104  -0.043  0.00  0.00    +0.010 A 
ATOM     15  C   LIG    1       -4.862  -1.815  -0.404  0.00  0.00    +0.060 A 
ATOM     16  C   LIG    1       -5.675  -2.389   0.579  0.00  0.00    -0.090 A 
ATOM     17  C   LIG    1       -6.900  -3.187   0.540  0.00  0.00    -0.060 A 
ATOM     18  C   LIG    1       -7.233  -3.460   1.814  0.00  0.00    +0.240 A 
ATOM     19  N   LIG    1       -6.321  -2.902   2.664  0.00  0.00    -0.590 N 
ATOM     20  H   LIG    1       -6.351  -2.964   3.632  0.00  0.00    +0.420 HD
ATOM     21  C   LIG    1       -5.353  -2.238   1.942  0.00  0.00    +0.090 A 
ATOM     22  C   LIG    1       -4.224  -1.517   2.301  0.00  0.00    +0.040 A 
ENDBRANCH  11  13
BRANCH   1  26
ATOM     23  C   LIG    1        1.661  -0.742   1.564  0.00  0.00    +0.290 C 
ATOM     24  N   LIG    1        0.545   0.165   1.285  0.00  0.00    -0.700 N 
ATOM     25  H   LIG    1        0.116   0.153   0.415  0.00  0.00    +0.400 HD
ATOM     26  C   LIG    1        0.113   1.015   2.238  0.00  0.00    +0.550 C 
ATOM     27  O   LIG    1        0.649   1.029   3.326  0.00  0.00    -0.530 OA
ENDBRANCH   1  26
TORSDOF 2
