REMARK  Name = ZINCrH000004tRf3.0
REMARK                            x       y       z     vdW  Elec       q    Type
REMARK                         _______ _______ _______ _____ _____    ______ ____
ROOT
ATOM      1  C   LIG    1       -2.649   4.548   0.039  0.00  0.00    -0.060 A 
ATOM      2  C   LIG    1       -3.758   3.711   0.034  0.00  0.00    -0.020 A 
ATOM      3  C   LIG    1       -5.029   4.247   0.048  0.00  0.00    +0.060 A 
ATOM      4  C   LIG    1       -5.212   5.621   0.056  0.00  0.00    -0.010 A 
ATOM      5  C   LIG    1       -4.125   6.468   0.056  0.00  0.00    +0.070 A 
ATOM      6  C   LIG    1       -2.831   5.941   0.048  0.00  0.00    -0.130 A 
ENDROOT
BRANCH   6   7
ATOM      7  C   LIG    1       -1.664   6.841   0.048  0.00  0.00    +0.560 C 
ATOM      8  N   LIG    1       -1.843   8.177   0.056  0.00  0.00    -0.720 N 
ATOM      9  H   LIG    1       -2.740   8.546   0.062  0.00  0.00    +0.400 HD
ATOM     10  O   LIG    1       -0.539   6.379   0.041  0.00  0.00    -0.500 OA
BRANCH   8  11
ATOM     11  C   LIG    1       -0.683   9.072   0.057  0.00  0.00    +0.190 C 
ATOM     12  C   LIG    1        0.156   8.819  -1.197  0.00  0.00    +0.030 C 
ATOM     13  C   LIG    1        1.368   9.754  -1.197  0.00  0.00    -0.010 C 
ATOM     14  C   LIG    1        2.217   9.487   0.047  0.00  0.00    +0.020 C 
ATOM     15  C   LIG    1        1.378   9.740   1.301  0.00  0.00    -0.010 C 
ATOM     16  C   LIG    1        0.900  11.194   1.311  0.00  0.00    +0.010 C 
ATOM     17  C   LIG    1        0.051  11.460   0.067  0.00  0.00    -0.010 C 
ATOM     18  C   LIG    1        0.891  11.207  -1.187  0.00  0.00    +0.010 C 
ATOM     19  C   LIG    1        0.166   8.806   1.301  0.00  0.00    +0.030 C 
ATOM     20  C   LIG    1       -1.160  10.526   0.067  0.00  0.00    +0.030 C 
ENDBRANCH   8  11
ENDBRANCH   6   7
BRANCH   1  21
ATOM     21  S   LIG    1       -1.024   3.867   0.028  0.00  0.00    +0.090 S 
BRANCH  21  22
ATOM     22  C   LIG    1       -1.331   2.079   0.020  0.00  0.00    +0.010 C 
BRANCH  22  24
ATOM     23  O   LIG    1        1.026   1.964   0.003  0.00  0.00    -0.510 OA
ATOM     24  C   LIG    1       -0.016   1.344   0.009  0.00  0.00    +0.540 C 
ATOM     25  N   LIG    1        0.002  -0.004   0.002  0.00  0.00    -0.700 N 
ATOM     26  H   LIG    1       -0.831  -0.500   0.007  0.00  0.00    +0.400 HD
BRANCH  25  27
ATOM     27  C   LIG    1        1.281  -0.719  -0.014  0.00  0.00    +0.220 C 
ATOM     28  C   LIG    1        1.409  -1.917  -0.958  0.00  0.00    +0.010 C 
ATOM     29  C   LIG    1        1.302  -2.141   0.552  0.00  0.00    +0.020 C 
ENDBRANCH  25  27
ENDBRANCH  22  24
ENDBRANCH  21  22
ENDBRANCH   1  21
TORSDOF 6
