REMARK  Name = ZINCah0000006kQE.0
REMARK                            x       y       z     vdW  Elec       q    Type
REMARK                         _______ _______ _______ _____ _____    ______ ____
ROOT
ATOM      1  F   LIG    1        2.360   1.162  -0.013  0.00  0.00    -0.130 F 
ATOM      2  C   LIG    1        1.169   1.799   0.001  0.00  0.00    +0.100 A 
ATOM      3  C   LIG    1        1.115   3.183   0.008  0.00  0.00    +0.190 A 
ATOM      4  N   LIG    1       -0.043   3.810   0.022  0.00  0.00    -0.410 NA
ATOM      5  C   LIG    1       -1.191   3.159   0.029  0.00  0.00    +0.040 A 
ATOM      6  C   LIG    1       -2.616   3.670   0.045  0.00  0.00    +0.130 C 
ATOM      7  C   LIG    1       -3.482   2.400   0.047  0.00  0.00    +0.280 C 
ATOM      8  N   LIG    1       -2.531   1.285   0.033  0.00  0.00    -0.730 N 
ATOM      9  H   LIG    1       -2.774   0.346   0.030  0.00  0.00    +0.420 HD
ATOM     10  C   LIG    1       -1.224   1.773   0.017  0.00  0.00    +0.180 A 
ATOM     11  C   LIG    1       -0.013   1.076   0.008  0.00  0.00    -0.040 A 
ENDROOT
TORSDOF 0
