REMARK  Name = ZINCrH000004k2Tc.0
REMARK                            x       y       z     vdW  Elec       q    Type
REMARK                         _______ _______ _______ _____ _____    ______ ____
ROOT
ATOM      1  C   LIG    1       -0.001  -0.654  -1.238  0.00  0.00    +0.180 A 
ATOM      2  C   LIG    1       -0.401  -1.984  -1.263  0.00  0.00    -0.010 A 
ATOM      3  C   LIG    1       -0.406  -2.680  -2.456  0.00  0.00    +0.070 A 
ATOM      4  C   LIG    1       -0.004  -2.054  -3.627  0.00  0.00    +0.060 A 
ATOM      5  C   LIG    1        0.401  -0.728  -3.601  0.00  0.00    +0.050 A 
ATOM      6  C   LIG    1        0.403  -0.029  -2.410  0.00  0.00    +0.010 A 
ENDROOT
BRANCH   1   8
ATOM      7  C   LIG    1       -0.117   1.514  -0.038  0.00  0.00    +0.330 C 
ATOM      8  N   LIG    1        0.001   0.053  -0.031  0.00  0.00    -0.940 N 
BRANCH   8   9
ATOM      9  S   LIG    1        0.136  -0.760   1.405  0.00  0.00    +2.710 S 
ATOM     10  O   LIG    1        0.653   0.171   2.346  0.00  0.00    -0.930 OA
ATOM     11  O   LIG    1        0.767  -1.998   1.108  0.00  0.00    -0.930 OA
BRANCH   9  12
ATOM     12  C   LIG    1       -1.498  -1.151   1.939  0.00  0.00    -0.810 A 
ATOM     13  C   LIG    1       -2.161  -2.266   1.631  0.00  0.00    +0.170 A 
ATOM     14  C   LIG    1       -3.434  -2.354   2.167  0.00  0.00    -0.010 A 
ATOM     15  C   LIG    1       -3.805  -1.310   2.909  0.00  0.00    +0.010 A 
ATOM     16  S   LIG    1       -2.500  -0.132   2.964  0.00  0.00    +0.220 S 
ENDBRANCH   9  12
ENDBRANCH   8   9
ENDBRANCH   1   8
BRANCH   4  17
ATOM     17  O   LIG    1       -0.005  -2.742  -4.800  0.00  0.00    -0.280 OA
BRANCH  17  18
ATOM     18  C   LIG    1        1.195  -3.029  -5.342  0.00  0.00    +0.530 C 
ATOM     19  O   LIG    1        2.215  -2.768  -4.734  0.00  0.00    -0.470 OA
BRANCH  18  20
ATOM     20  C   LIG    1        1.271  -3.657  -6.670  0.00  0.00    -0.160 A 
ATOM     21  C   LIG    1        0.176  -3.984  -7.409  0.00  0.00    +0.060 A 
ATOM     22  S   LIG    1        0.635  -4.688  -8.892  0.00  0.00    +0.370 S 
ATOM     23  C   LIG    1        2.343  -4.553  -8.514  0.00  0.00    -0.200 A 
ATOM     24  C   LIG    1        2.515  -3.995  -7.321  0.00  0.00    +0.210 A 
BRANCH  23  25
ATOM     25  N   LIG    1        3.441  -4.999  -9.401  0.00  0.00    +0.060 N 
ATOM     26  O   LIG    1        3.184  -5.502 -10.481  0.00  0.00    -0.150 OA
ATOM     27  O   LIG    1        4.599  -4.864  -9.052  0.00  0.00    -0.130 OA
ENDBRANCH  23  25
ENDBRANCH  18  20
ENDBRANCH  17  18
ENDBRANCH   4  17
TORSDOF 7
