REMARK  Name = ZINCpk00000xI3mq.0
REMARK                            x       y       z     vdW  Elec       q    Type
REMARK                         _______ _______ _______ _____ _____    ______ ____
ROOT
ATOM      1  C   LIG    1       -0.930   1.679   1.087  0.00  0.00    +0.170 C 
ATOM      2  C   LIG    1       -0.013   1.086   0.008  0.00  0.00    +0.300 C 
ATOM      3  N   LIG    1       -0.911   1.665  -1.002  0.00  0.00    -0.650 N 
ATOM      4  C   LIG    1       -1.254   1.379  -2.274  0.00  0.00    +0.550 C 
ATOM      5  O   LIG    1       -0.761   0.423  -2.835  0.00  0.00    -0.520 OA
ATOM      6  C   LIG    1       -1.269   2.694  -0.015  0.00  0.00    +0.270 C 
ENDROOT
BRANCH   1   7
ATOM      7  O   LIG    1       -0.235   2.236   2.204  0.00  0.00    -0.360 OA
BRANCH   7   8
ATOM      8  C   LIG    1       -0.960   2.165   3.434  0.00  0.00    +0.360 C 
BRANCH   8  13
ATOM      9  C   LIG    1        2.267   2.819   7.243  0.00  0.00    +0.250 C 
ATOM     10  C   LIG    1        1.240   3.058   6.165  0.00  0.00    +0.180 A 
ATOM     11  N   LIG    1        0.676   4.196   5.877  0.00  0.00    -0.290 NA
ATOM     12  N   LIG    1       -0.149   4.028   4.904  0.00  0.00    -0.260 NA
ATOM     13  C   LIG    1       -0.138   2.778   4.538  0.00  0.00    +0.150 A 
ATOM     14  O   LIG    1        0.736   2.134   5.330  0.00  0.00    -0.220 OA
ENDBRANCH   8  13
ENDBRANCH   7   8
ENDBRANCH   1   7
BRANCH   4  15
ATOM     15  C   LIG    1       -2.249   2.247  -2.999  0.00  0.00    +0.090 C 
BRANCH  15  16
ATOM     16  C   LIG    1       -2.460   1.708  -4.416  0.00  0.00    +0.270 C 
ATOM     17  O   LIG    1       -1.251   1.888  -5.203  0.00  0.00    -0.300 OA
ATOM     18  C   LIG    1       -1.527   2.677  -6.255  0.00  0.00    +0.520 C 
ATOM     19  C   LIG    1       -2.946   3.075  -6.234  0.00  0.00    -0.190 A 
ATOM     20  C   LIG    1       -3.716   3.871  -7.083  0.00  0.00    +0.110 A 
ATOM     21  C   LIG    1       -5.053   4.074  -6.809  0.00  0.00    +0.020 A 
ATOM     22  C   LIG    1       -5.634   3.492  -5.696  0.00  0.00    +0.060 A 
ATOM     23  C   LIG    1       -4.876   2.700  -4.849  0.00  0.00    +0.040 A 
ATOM     24  O   LIG    1       -0.723   3.015  -7.100  0.00  0.00    -0.450 OA
ATOM     25  C   LIG    1       -3.543   2.492  -5.112  0.00  0.00    -0.100 A 
ENDBRANCH  15  16
ENDBRANCH   4  15
TORSDOF 5
