REMARK  Name = ZINCkj000005iFKJ.0
REMARK                            x       y       z     vdW  Elec       q    Type
REMARK                         _______ _______ _______ _____ _____    ______ ____
ROOT
ATOM      1  N   LIG    1       -0.065   1.119  -2.440  0.00  0.00    -0.380 N 
ATOM      2  C   LIG    1       -0.149  -0.346  -2.509  0.00  0.00    +0.330 C 
ATOM      3  H   LIG    1        0.904   1.399  -2.408  0.00  0.00    +0.420 HD
ENDROOT
BRANCH   1   4
ATOM      4  C   LIG    1       -0.704   1.703  -3.627  0.00  0.00    +0.340 C 
BRANCH   4  11
ATOM      5  C   LIG    1       -0.095   0.059  -5.421  0.00  0.00    +0.140 A 
ATOM      6  C   LIG    1        0.620  -0.292  -6.557  0.00  0.00    -0.060 A 
ATOM      7  C   LIG    1        1.507   0.606  -7.119  0.00  0.00    +0.090 A 
ATOM      8  C   LIG    1        1.679   1.856  -6.553  0.00  0.00    -0.110 A 
ATOM      9  C   LIG    1        0.963   2.210  -5.423  0.00  0.00    +0.080 A 
ATOM     10  C   LIG    1        2.646   2.834  -7.168  0.00  0.00    +0.100 C 
ATOM     11  C   LIG    1        0.075   1.316  -4.858  0.00  0.00    -0.190 A 
BRANCH   5  13
ATOM     12  C   LIG    1       -1.087  -2.100  -5.496  0.00  0.00    +0.260 C 
ATOM     13  O   LIG    1       -0.964  -0.825  -4.863  0.00  0.00    -0.330 OA
ENDBRANCH   5  13
ENDBRANCH   4  11
ENDBRANCH   1   4
BRANCH   1  14
ATOM     14  C   LIG    1       -0.753   1.593  -1.232  0.00  0.00    +0.260 C 
BRANCH  14  15
ATOM     15  C   LIG    1       -0.013   1.086   0.008  0.00  0.00    +0.040 C 
BRANCH  15  16
ATOM     16  C   LIG    1       -0.729   1.579   1.267  0.00  0.00    +0.280 C 
BRANCH  16  17
ATOM     17  N   LIG    1       -0.020   1.094   2.454  0.00  0.00    -1.120 NA
ATOM     18  H   LIG    1        0.633   0.382   2.371  0.00  0.00    +0.420 HD
BRANCH  17  19
ATOM     19  S   LIG    1       -0.334   1.762   3.936  0.00  0.00    +2.620 S 
ATOM     20  O   LIG    1       -0.208   3.161   3.724  0.00  0.00    -0.950 OA
ATOM     21  O   LIG    1        0.537   1.073   4.822  0.00  0.00    -0.950 OA
ATOM     22  C   LIG    1       -2.062   1.323   4.274  0.00  0.00    -0.280 C 
ENDBRANCH  17  19
ENDBRANCH  16  17
ENDBRANCH  15  16
ENDBRANCH  14  15
ENDBRANCH   1  14
TORSDOF 8
