REMARK  Name = ZINCkj000005iFKJ.1
REMARK                            x       y       z     vdW  Elec       q    Type
REMARK                         _______ _______ _______ _____ _____    ______ ____
ROOT
ATOM      1  N   LIG    1        1.369   4.093  -1.354  0.00  0.00    -0.380 N 
ATOM      2  C   LIG    1        0.244   3.693  -2.210  0.00  0.00    +0.300 C 
ATOM      3  H   LIG    1        2.225   3.705  -1.720  0.00  0.00    +0.430 HD
ENDROOT
BRANCH   1   4
ATOM      4  C   LIG    1        1.148   3.594   0.010  0.00  0.00    +0.340 C 
BRANCH   4  11
ATOM      5  C   LIG    1        2.380   1.409  -0.013  0.00  0.00    +0.140 A 
ATOM      6  C   LIG    1        2.396   0.022  -0.021  0.00  0.00    -0.060 A 
ATOM      7  C   LIG    1        1.207  -0.681  -0.013  0.00  0.00    +0.090 A 
ATOM      8  C   LIG    1        0.002  -0.004   0.002  0.00  0.00    -0.110 A 
ATOM      9  C   LIG    1       -0.017   1.379   0.010  0.00  0.00    +0.080 A 
ATOM     10  C   LIG    1       -1.293  -0.774   0.010  0.00  0.00    +0.100 C 
ATOM     11  C   LIG    1        1.169   2.087   0.002  0.00  0.00    -0.190 A 
BRANCH   5  13
ATOM     12  C   LIG    1        4.756   1.341  -0.038  0.00  0.00    +0.260 C 
ATOM     13  O   LIG    1        3.548   2.104  -0.022  0.00  0.00    -0.330 OA
ENDBRANCH   5  13
ENDBRANCH   4  11
ENDBRANCH   1   4
BRANCH   1  14
ATOM     14  C   LIG    1        1.468   5.559  -1.328  0.00  0.00    +0.270 C 
BRANCH  14  15
ATOM     15  C   LIG    1        1.821   6.071  -2.726  0.00  0.00    +0.040 C 
BRANCH  15  16
ATOM     16  C   LIG    1        1.924   7.597  -2.699  0.00  0.00    +0.290 C 
BRANCH  16  17
ATOM     17  N   LIG    1        2.263   8.087  -4.037  0.00  0.00    -1.120 NA
ATOM     18  H   LIG    1        2.595   7.472  -4.710  0.00  0.00    +0.420 HD
BRANCH  17  19
ATOM     19  S   LIG    1        2.079   9.692  -4.403  0.00  0.00    +2.620 S 
ATOM     20  O   LIG    1        0.749   9.992  -4.000  0.00  0.00    -0.950 OA
ATOM     21  O   LIG    1        2.471   9.789  -5.765  0.00  0.00    -0.950 OA
ATOM     22  C   LIG    1        3.274  10.539  -3.334  0.00  0.00    -0.280 C 
ENDBRANCH  17  19
ENDBRANCH  16  17
ENDBRANCH  15  16
ENDBRANCH  14  15
ENDBRANCH   1  14
TORSDOF 8
