REMARK  Name = ZINCqH0000031Ey2.0
REMARK                            x       y       z     vdW  Elec       q    Type
REMARK                         _______ _______ _______ _____ _____    ______ ____
ROOT
ATOM      1  N   LIG    1       -3.575  -2.282   0.019  0.00  0.00    -0.670 N 
ATOM      2  H   LIG    1       -2.781  -2.618   0.464  0.00  0.00    +0.410 HD
ATOM      3  C   LIG    1       -3.514  -1.142  -0.698  0.00  0.00    +0.560 C 
ATOM      4  O   LIG    1       -4.482  -0.770  -1.332  0.00  0.00    -0.500 OA
ENDROOT
BRANCH   1  12
ATOM      5  C   LIG    1      -10.254  -6.601   0.496  0.00  0.00    +0.110 C 
ATOM      6  C   LIG    1       -8.809  -6.175   0.518  0.00  0.00    +0.520 C 
ATOM      7  N   LIG    1       -8.490  -4.869   0.416  0.00  0.00    -0.560 N 
ATOM      8  C   LIG    1       -9.457  -3.768   0.384  0.00  0.00    +0.280 C 
ATOM      9  C   LIG    1       -8.610  -2.491   0.259  0.00  0.00    +0.100 C 
ATOM     10  C   LIG    1       -7.181  -2.982   0.229  0.00  0.00    -0.120 A 
ATOM     11  C   LIG    1       -5.989  -2.291   0.135  0.00  0.00    +0.060 A 
ATOM     12  C   LIG    1       -4.783  -2.981   0.121  0.00  0.00    +0.130 A 
ATOM     13  C   LIG    1       -4.782  -4.366   0.215  0.00  0.00    +0.010 A 
ATOM     14  C   LIG    1       -5.973  -5.054   0.316  0.00  0.00    +0.030 A 
ATOM     15  C   LIG    1       -7.187  -4.365   0.324  0.00  0.00    +0.130 A 
ATOM     16  O   LIG    1       -7.933  -7.006   0.628  0.00  0.00    -0.520 OA
ENDBRANCH   1  12
BRANCH   3  17
ATOM     17  C   LIG    1       -2.272  -0.346  -0.713  0.00  0.00    -0.160 A 
ATOM     18  C   LIG    1       -1.171  -0.774   0.010  0.00  0.00    +0.100 A 
ATOM     19  C   LIG    1        0.007  -0.013  -0.008  0.00  0.00    -0.070 A 
ATOM     20  C   LIG    1        1.144  -0.418   0.714  0.00  0.00    +0.040 A 
ATOM     21  C   LIG    1        2.272   0.342   0.676  0.00  0.00    +0.010 A 
ATOM     22  C   LIG    1        2.320   1.518  -0.069  0.00  0.00    +0.030 A 
ATOM     23  C   LIG    1        1.240   1.942  -0.781  0.00  0.00    +0.020 A 
ATOM     24  C   LIG    1        0.056   1.185  -0.767  0.00  0.00    -0.020 A 
ATOM     25  C   LIG    1       -1.075   1.597  -1.493  0.00  0.00    +0.000 A 
ATOM     26  C   LIG    1       -2.213   0.847  -1.465  0.00  0.00    +0.160 A 
BRANCH  26  27
ATOM     27  O   LIG    1       -3.301   1.252  -2.169  0.00  0.00    -0.480 OA
ATOM     28  H   LIG    1       -3.332   0.912  -3.074  0.00  0.00    +0.400 HD
ENDBRANCH  26  27
ENDBRANCH   3  17
TORSDOF 3
