REMARK  Name = ZINCvU0000000B1G.0
REMARK                            x       y       z     vdW  Elec       q    Type
REMARK                         _______ _______ _______ _____ _____    ______ ____
ROOT
ATOM      1  C   LIG    1       -1.154   4.939   0.039  0.00  0.00    +0.410 C 
ENDROOT
BRANCH   1   2
ATOM      2  C   LIG    1       -0.461   3.601   0.026  0.00  0.00    +0.020 A 
ATOM      3  C   LIG    1       -1.087   2.402   0.019  0.00  0.00    -0.100 A 
ATOM      4  C   LIG    1       -0.017   1.388   0.010  0.00  0.00    -0.110 A 
ATOM      5  C   LIG    1        0.002  -0.004   0.002  0.00  0.00    +0.090 A 
ATOM      6  C   LIG    1        1.210  -0.669  -0.013  0.00  0.00    -0.050 A 
ATOM      7  C   LIG    1        2.400   0.045  -0.021  0.00  0.00    +0.070 A 
ATOM      8  C   LIG    1        2.393   1.423  -0.014  0.00  0.00    +0.060 A 
ATOM      9 CL   LIG    1        1.242  -2.405  -0.023  0.00  0.00    -0.060 Cl
ATOM     10  C   LIG    1        1.186   2.111   0.002  0.00  0.00    +0.070 A 
ATOM     11  O   LIG    1        0.871   3.423   0.012  0.00  0.00    -0.180 OA
BRANCH   3  12
ATOM     12  C   LIG    1       -2.549   2.158   0.024  0.00  0.00    -0.030 A 
ATOM     13  C   LIG    1       -3.161   1.551  -1.072  0.00  0.00    +0.020 A 
ATOM     14  C   LIG    1       -4.521   1.321  -1.060  0.00  0.00    +0.010 A 
ATOM     15  C   LIG    1       -5.280   1.702   0.033  0.00  0.00    +0.020 A 
ATOM     16  C   LIG    1       -4.679   2.310   1.121  0.00  0.00    +0.010 A 
ATOM     17  C   LIG    1       -3.319   2.539   1.122  0.00  0.00    +0.020 A 
ENDBRANCH   3  12
ENDBRANCH   1   2
BRANCH   1  20
ATOM     18  O   LIG    1       -2.345   7.247   0.765  0.00  0.00    -0.510 OA
ATOM     19  C   LIG    1       -1.973   6.541   1.683  0.00  0.00    +0.600 C 
ATOM     20  N   LIG    1       -1.366   5.365   1.425  0.00  0.00    -0.730 N 
ATOM     21  H   LIG    1       -1.069   4.802   2.156  0.00  0.00    +0.400 HD
BRANCH  19  22
ATOM     22  C   LIG    1       -2.185   6.968   3.070  0.00  0.00    -0.280 A 
ATOM     23  C   LIG    1       -2.775   8.121   3.443  0.00  0.00    +0.160 A 
ATOM     24  C   LIG    1       -2.860   8.290   4.819  0.00  0.00    -0.170 A 
ATOM     25  C   LIG    1       -2.315   7.250   5.542  0.00  0.00    -0.160 A 
ATOM     26  C   LIG    1       -2.281   7.210   7.052  0.00  0.00    +0.120 C 
ATOM     27  C   LIG    1       -1.263   8.230   7.573  0.00  0.00    +0.030 C 
ATOM     28  C   LIG    1       -1.388   9.531   6.781  0.00  0.00    +0.280 C 
ATOM     29  N   LIG    1       -2.771   9.939   6.579  0.00  0.00    -0.720 N 
ATOM     30  H   LIG    1       -3.192  10.554   7.200  0.00  0.00    +0.410 HD
ATOM     31  C   LIG    1       -3.465   9.460   5.523  0.00  0.00    +0.590 C 
ATOM     32  O   LIG    1       -4.518   9.953   5.167  0.00  0.00    -0.520 OA
ATOM     33  S   LIG    1       -1.702   6.055   4.491  0.00  0.00    +0.240 S 
ENDBRANCH  19  22
ENDBRANCH   1  20
TORSDOF 4
