REMARK  Name = ZINCrD000006V8C9.0
REMARK                            x       y       z     vdW  Elec       q    Type
REMARK                         _______ _______ _______ _____ _____    ______ ____
ROOT
ATOM      1  C   LIG    1        3.699  -0.723  -0.037  0.00  0.00    +0.040 C 
ATOM      2  C   LIG    1        3.787  -1.610   1.207  0.00  0.00    +0.060 C 
ENDROOT
BRANCH   1   8
ATOM      3  C   LIG    1       -1.208   3.479   0.031  0.00  0.00    +0.130 A 
ATOM      4  C   LIG    1       -1.228   2.113   0.019  0.00  0.00    -0.020 A 
ATOM      5  C   LIG    1       -0.017   1.401   0.010  0.00  0.00    -0.010 A 
ATOM      6  C   LIG    1        0.002  -0.004   0.002  0.00  0.00    +0.010 A 
ATOM      7  C   LIG    1        1.194  -0.661  -0.013  0.00  0.00    +0.050 A 
ATOM      8  C   LIG    1        2.399   0.038  -0.021  0.00  0.00    -0.070 A 
ATOM      9  C   LIG    1        2.419   1.399  -0.013  0.00  0.00    +0.040 A 
ATOM     10  C   LIG    1        1.209   2.113   0.002  0.00  0.00    -0.080 A 
ATOM     11  C   LIG    1        1.192   3.519   0.009  0.00  0.00    +0.070 A 
ATOM     12  C   LIG    1        0.003   4.179   0.023  0.00  0.00    -0.060 A 
BRANCH   3  14
ATOM     13  C   LIG    1       -2.295   5.593   0.053  0.00  0.00    +0.250 C 
ATOM     14  O   LIG    1       -2.380   4.166   0.046  0.00  0.00    -0.320 OA
ENDBRANCH   3  14
ENDBRANCH   1   8
BRANCH   1  15
ATOM     15  C   LIG    1        3.762  -1.584  -1.273  0.00  0.00    +0.520 C 
ATOM     16  N   LIG    1        4.841  -2.358  -1.500  0.00  0.00    -0.730 N 
ATOM     17  H   LIG    1        5.577  -2.362  -0.869  0.00  0.00    +0.400 HD
ATOM     18  O   LIG    1        2.841  -1.579  -2.062  0.00  0.00    -0.520 OA
BRANCH  16  19
ATOM     19  C   LIG    1        4.902  -3.195  -2.702  0.00  0.00    +0.420 C 
BRANCH  19  20
ATOM     20  C   LIG    1        6.202  -3.956  -2.718  0.00  0.00    +0.110 A 
ATOM     21  N   LIG    1        6.413  -5.138  -2.199  0.00  0.00    -0.220 NA
ATOM     22  N   LIG    1        7.633  -5.498  -2.390  0.00  0.00    -0.280 NA
ATOM     23  C   LIG    1        8.275  -4.549  -3.051  0.00  0.00    +0.200 A 
ATOM     24  C   LIG    1        9.598  -4.417  -3.516  0.00  0.00    +0.080 A 
ATOM     25  C   LIG    1        9.955  -3.294  -4.194  0.00  0.00    +0.070 A 
ATOM     26  C   LIG    1        9.006  -2.279  -4.410  0.00  0.00    +0.030 A 
ATOM     27  C   LIG    1        7.743  -2.417  -3.955  0.00  0.00    +0.230 A 
ATOM     28  N   LIG    1        7.370  -3.542  -3.280  0.00  0.00    -0.380 N 
ENDBRANCH  19  20
ENDBRANCH  16  19
ENDBRANCH   1  15
TORSDOF 5
