REMARK  Name = ZINCqH0000000kGJ.0
REMARK                            x       y       z     vdW  Elec       q    Type
REMARK                         _______ _______ _______ _____ _____    ______ ____
ROOT
ATOM      1  C   LIG    1        2.491   1.055  -0.019  0.00  0.00    +0.370 C 
ENDROOT
BRANCH   1   2
ATOM      2  C   LIG    1        1.173   1.786   0.000  0.00  0.00    -0.100 A 
ATOM      3  C   LIG    1       -0.013   1.076   0.008  0.00  0.00    +0.010 A 
ATOM      4  C   LIG    1       -1.215   1.752   0.017  0.00  0.00    +0.010 A 
ATOM      5  C   LIG    1       -1.244   3.140   0.031  0.00  0.00    -0.070 A 
ATOM      6  C   LIG    1       -2.592   3.813   0.040  0.00  0.00    +0.080 C 
ATOM      7  C   LIG    1       -2.462   5.269   0.486  0.00  0.00    +0.020 C 
ATOM      8  C   LIG    1       -1.369   5.936  -0.357  0.00  0.00    +0.020 C 
ATOM      9  C   LIG    1       -0.019   5.353   0.054  0.00  0.00    +0.080 C 
ATOM     10  C   LIG    1       -0.063   3.847   0.029  0.00  0.00    -0.070 A 
ATOM     11  C   LIG    1        1.147   3.165   0.011  0.00  0.00    +0.020 A 
ENDBRANCH   1   2
BRANCH   1  12
ATOM     12  C   LIG    1        2.826   0.585   1.373  0.00  0.00    -0.190 A 
ATOM     13  C   LIG    1        3.676   1.189   2.204  0.00  0.00    +0.020 A 
ATOM     14  C   LIG    1        3.823   0.575   3.436  0.00  0.00    +0.010 A 
ATOM     15  C   LIG    1        3.099  -0.533   3.602  0.00  0.00    -0.050 A 
ATOM     16  S   LIG    1        2.162  -0.848   2.147  0.00  0.00    +0.110 S 
ENDBRANCH   1  12
BRANCH   1  18
ATOM     17  C   LIG    1        3.507  -0.601  -1.490  0.00  0.00    +0.530 C 
ATOM     18  N   LIG    1        2.396  -0.100  -0.915  0.00  0.00    -0.730 N 
ATOM     19  H   LIG    1        1.533  -0.505  -1.094  0.00  0.00    +0.400 HD
ATOM     20  O   LIG    1        4.587  -0.094  -1.267  0.00  0.00    -0.520 OA
BRANCH  17  21
ATOM     21  C   LIG    1        3.409  -1.789  -2.412  0.00  0.00    +0.080 C 
BRANCH  21  22
ATOM     22  C   LIG    1        4.804  -2.152  -2.926  0.00  0.00    -0.300 C 
BRANCH  22  23
ATOM     23  S   LIG    1        4.686  -3.583  -4.035  0.00  0.00    +2.490 S 
ATOM     24  O   LIG    1        4.011  -3.230  -5.234  0.00  0.00    -0.930 OA
ATOM     25  O   LIG    1        4.325  -4.749  -3.307  0.00  0.00    -0.940 OA
BRANCH  23  27
ATOM     26  C   LIG    1        6.945  -4.997  -4.197  0.00  0.00    +0.230 C 
ATOM     27  C   LIG    1        6.346  -3.884  -4.543  0.00  0.00    -0.570 C 
ENDBRANCH  23  27
ENDBRANCH  22  23
ENDBRANCH  21  22
ENDBRANCH  17  21
ENDBRANCH   1  18
TORSDOF 7
