REMARK  Name = ZINCvU0000000Csm.0
REMARK                            x       y       z     vdW  Elec       q    Type
REMARK                         _______ _______ _______ _____ _____    ______ ____
ROOT
ATOM      1  C   LIG    1        2.362   5.902  -0.679  0.00  0.00    +0.480 A 
ATOM      2  C   LIG    1        3.551   6.646  -0.481  0.00  0.00    -0.220 A 
ATOM      3  C   LIG    1        4.915   6.196  -0.236  0.00  0.00    -0.030 A 
ATOM      4  C   LIG    1        5.802   7.179  -0.094  0.00  0.00    -0.020 A 
ATOM      5  S   LIG    1        5.042   8.751  -0.260  0.00  0.00    +0.190 S 
ATOM      6  C   LIG    1        3.458   8.038  -0.520  0.00  0.00    +0.120 A 
ATOM      7  N   LIG    1        2.262   8.604  -0.732  0.00  0.00    -0.500 NA
ATOM      8  C   LIG    1        1.187   7.871  -0.905  0.00  0.00    +0.390 A 
ATOM      9  N   LIG    1        1.224   6.551  -0.882  0.00  0.00    -0.560 NA
ENDROOT
BRANCH   3  10
ATOM     10  C   LIG    1        5.286   4.763  -0.152  0.00  0.00    -0.050 A 
ATOM     11  C   LIG    1        4.681   3.938   0.795  0.00  0.00    +0.010 A 
ATOM     12  C   LIG    1        5.025   2.604   0.865  0.00  0.00    +0.020 A 
ATOM     13  C   LIG    1        5.977   2.087   0.004  0.00  0.00    +0.020 A 
ATOM     14  C   LIG    1        6.585   2.901  -0.934  0.00  0.00    +0.020 A 
ATOM     15  C   LIG    1        6.244   4.236  -1.017  0.00  0.00    +0.030 A 
ENDBRANCH   3  10
BRANCH   1  16
ATOM     16  N   LIG    1        2.386   4.518  -0.657  0.00  0.00    -0.640 N 
ATOM     17  H   LIG    1        3.233   4.049  -0.593  0.00  0.00    +0.420 HD
BRANCH  16  22
ATOM     18  C   LIG    1       -2.468   1.597  -0.943  0.00  0.00    +0.100 C 
ATOM     19  C   LIG    1       -1.178   2.371  -0.864  0.00  0.00    -0.090 A 
ATOM     20  C   LIG    1       -1.143   3.590  -0.213  0.00  0.00    +0.050 A 
ATOM     21  C   LIG    1        0.037   4.305  -0.144  0.00  0.00    +0.030 A 
ATOM     22  C   LIG    1        1.191   3.796  -0.725  0.00  0.00    +0.160 A 
ATOM     23  C   LIG    1        1.156   2.568  -1.374  0.00  0.00    -0.010 A 
ATOM     24  C   LIG    1       -0.028   1.858  -1.439  0.00  0.00    -0.020 A 
ATOM     25 CL   LIG    1       -0.074   0.323  -2.250  0.00  0.00    -0.060 Cl
ENDBRANCH  16  22
ENDBRANCH   1  16
BRANCH   8  26
ATOM     26  C   LIG    1       -0.134   8.558  -1.140  0.00  0.00    +0.310 C 
BRANCH  26  27
ATOM     27  N   LIG    1       -0.796   8.799   0.149  0.00  0.00    -0.530 NA
ATOM     28  C   LIG    1       -1.178   7.532   0.791  0.00  0.00    +0.160 C 
ATOM     29  C   LIG    1       -1.809   7.827   2.154  0.00  0.00    +0.220 C 
ATOM     30  O   LIG    1       -2.926   8.702   1.978  0.00  0.00    -0.380 OA
ATOM     31  C   LIG    1       -2.590   9.946   1.356  0.00  0.00    +0.220 C 
ATOM     32  C   LIG    1       -1.967   9.673  -0.015  0.00  0.00    +0.160 C 
ENDBRANCH  26  27
ENDBRANCH   8  26
TORSDOF 5
