REMARK  Name = ZINCrH000004pS75.0
REMARK                            x       y       z     vdW  Elec       q    Type
REMARK                         _______ _______ _______ _____ _____    ______ ____
ROOT
ATOM      1  C   LIG    1       -0.092   7.489  -1.589  0.00  0.00    +0.510 C 
ATOM      2  N   LIG    1       -0.075   6.163  -1.349  0.00  0.00    -0.730 N 
ATOM      3  H   LIG    1       -0.063   5.536  -2.089  0.00  0.00    +0.400 HD
ATOM      4  O   LIG    1       -0.107   8.273  -0.664  0.00  0.00    -0.540 OA
ENDROOT
BRANCH   1   5
ATOM      5  C   LIG    1       -0.092   7.998  -3.008  0.00  0.00    +0.060 C 
BRANCH   5   6
ATOM      6  C   LIG    1       -0.113   9.528  -3.001  0.00  0.00    +0.170 C 
BRANCH   6  10
ATOM      7  C   LIG    1        0.599  10.746  -6.369  0.00  0.00    +0.020 A 
ATOM      8  C   LIG    1       -0.745  10.745  -6.421  0.00  0.00    -0.050 A 
ATOM      9  C   LIG    1       -1.204  10.287  -5.165  0.00  0.00    -0.050 A 
ATOM     10  C   LIG    1       -0.113  10.036  -4.419  0.00  0.00    -0.010 A 
ATOM     11  O   LIG    1        0.976  10.322  -5.151  0.00  0.00    -0.170 OA
BRANCH   7  15
ATOM     12  C   LIG    1        2.836  10.140  -9.503  0.00  0.00    +0.060 C 
ATOM     13  C   LIG    1        2.510  10.116  -8.009  0.00  0.00    -0.030 C 
ATOM     14  C   LIG    1        3.014  11.282  -7.156  0.00  0.00    +0.030 C 
ATOM     15  C   LIG    1        1.524  11.161  -7.483  0.00  0.00    +0.050 C 
ENDBRANCH   7  15
ENDBRANCH   6  10
ENDBRANCH   5   6
ENDBRANCH   1   5
BRANCH   2  16
ATOM     16  C   LIG    1       -0.075   5.668   0.030  0.00  0.00    +0.320 C 
BRANCH  16  17
ATOM     17  C   LIG    1       -0.054   4.162   0.024  0.00  0.00    -0.140 A 
ATOM     18  C   LIG    1        1.153   3.488   0.026  0.00  0.00    +0.060 A 
ATOM     19  C   LIG    1        1.175   2.107   0.019  0.00  0.00    -0.030 A 
ATOM     20  C   LIG    1       -0.017   1.395   0.010  0.00  0.00    +0.170 A 
ATOM     21  C   LIG    1       -1.228   2.075   0.002  0.00  0.00    +0.000 A 
ATOM     22  C   LIG    1       -1.243   3.456   0.014  0.00  0.00    +0.060 A 
BRANCH  20  23
ATOM     23  N   LIG    1        0.002  -0.004   0.002  0.00  0.00    -0.560 N 
ATOM     24  C   LIG    1        1.219  -0.815  -0.120  0.00  0.00    +0.260 C 
ATOM     25  C   LIG    1        0.735  -2.228  -0.516  0.00  0.00    +0.060 C 
ATOM     26  C   LIG    1       -0.703  -2.239   0.051  0.00  0.00    +0.070 C 
ATOM     27  C   LIG    1       -1.091  -0.778   0.111  0.00  0.00    +0.520 C 
ATOM     28  O   LIG    1       -2.225  -0.365   0.236  0.00  0.00    -0.510 OA
ENDBRANCH  20  23
ENDBRANCH  16  17
ENDBRANCH   2  16
TORSDOF 7
