REMARK  Name = ZINCkj000005k7Pj.1
REMARK                            x       y       z     vdW  Elec       q    Type
REMARK                         _______ _______ _______ _____ _____    ______ ____
ROOT
ATOM      1  N   LIG    1        2.865  -1.926  -2.822  0.00  0.00    -0.690 N 
ATOM      2  H   LIG    1        2.878  -2.566  -2.093  0.00  0.00    +0.410 HD
ATOM      3  C   LIG    1        3.470  -0.730  -2.680  0.00  0.00    +0.520 C 
ATOM      4  O   LIG    1        3.453   0.070  -3.592  0.00  0.00    -0.510 OA
ENDROOT
BRANCH   3   5
ATOM      5  C   LIG    1        4.168  -0.387  -1.390  0.00  0.00    +0.160 C 
ATOM      6  C   LIG    1        5.629   0.041  -1.580  0.00  0.00    +0.130 C 
ATOM      7  C   LIG    1        5.019   1.441  -1.738  0.00  0.00    +0.300 C 
ATOM      8  N   LIG    1        3.885   0.980  -0.915  0.00  0.00    -0.390 N 
ATOM      9  H   LIG    1        4.033   1.101   0.076  0.00  0.00    +0.440 HD
BRANCH   8  10
ATOM     10  C   LIG    1        2.587   1.499  -1.366  0.00  0.00    +0.160 C 
ATOM     11  C   LIG    1        2.473   3.014  -1.063  0.00  0.00    +0.050 C 
ATOM     12  C   LIG    1        0.941   3.239  -1.016  0.00  0.00    +0.050 C 
ATOM     13  C   LIG    1        0.393   1.969  -0.332  0.00  0.00    +0.030 C 
ATOM     14  C   LIG    1        1.439   0.863  -0.554  0.00  0.00    +0.030 C 
ENDBRANCH   8  10
ENDBRANCH   3   5
BRANCH   1  15
ATOM     15  C   LIG    1        2.186  -2.260  -4.077  0.00  0.00    +0.370 C 
BRANCH  15  18
ATOM     16  C   LIG    1       -0.490  -3.022  -2.648  0.00  0.00    +0.150 C 
ATOM     17  C   LIG    1        0.439  -3.972  -3.358  0.00  0.00    +0.110 A 
ATOM     18  C   LIG    1        1.597  -3.643  -3.977  0.00  0.00    -0.280 A 
ATOM     19  C   LIG    1        2.152  -4.815  -4.502  0.00  0.00    +0.260 A 
ATOM     20  N   LIG    1        1.354  -5.811  -4.213  0.00  0.00    -0.290 NA
ATOM     21  N   LIG    1        0.264  -5.303  -3.494  0.00  0.00    -0.360 N 
ATOM     22  C   LIG    1       -0.864  -6.082  -2.977  0.00  0.00    +0.360 C 
ENDBRANCH  15  18
ENDBRANCH   1  15
TORSDOF 4
