REMARK  Name = ZINCkj000005k7Pj.0
REMARK                            x       y       z     vdW  Elec       q    Type
REMARK                         _______ _______ _______ _____ _____    ______ ____
ROOT
ATOM      1  N   LIG    1       -1.438  -1.399   1.369  0.00  0.00    -0.700 N 
ATOM      2  H   LIG    1       -0.850  -1.127   2.091  0.00  0.00    +0.410 HD
ATOM      3  C   LIG    1       -2.471  -2.228   1.618  0.00  0.00    +0.510 C 
ATOM      4  O   LIG    1       -3.207  -2.568   0.715  0.00  0.00    -0.520 OA
ENDROOT
BRANCH   3   5
ATOM      5  C   LIG    1       -2.712  -2.734   3.017  0.00  0.00    +0.190 C 
ATOM      6  C   LIG    1       -3.423  -1.718   3.929  0.00  0.00    +0.120 C 
ATOM      7  C   LIG    1       -4.255  -2.908   4.439  0.00  0.00    +0.310 C 
ATOM      8  N   LIG    1       -3.933  -3.559   3.151  0.00  0.00    -0.390 N 
ATOM      9  H   LIG    1       -4.616  -3.371   2.432  0.00  0.00    +0.440 HD
BRANCH   8  10
ATOM     10  C   LIG    1       -3.643  -4.993   3.289  0.00  0.00    +0.160 C 
ATOM     11  C   LIG    1       -2.924  -5.511   2.026  0.00  0.00    +0.040 C 
ATOM     12  C   LIG    1       -3.501  -6.934   1.818  0.00  0.00    +0.050 C 
ATOM     13  C   LIG    1       -4.990  -6.760   2.209  0.00  0.00    +0.040 C 
ATOM     14  C   LIG    1       -4.956  -5.787   3.405  0.00  0.00    +0.040 C 
ENDBRANCH   8  10
ENDBRANCH   3   5
BRANCH   1  15
ATOM     15  C   LIG    1       -1.204  -0.907   0.009  0.00  0.00    +0.370 C 
BRANCH  15  18
ATOM     16  C   LIG    1        1.785  -1.828  -0.026  0.00  0.00    +0.150 C 
ATOM     17  C   LIG    1        1.295  -0.403  -0.013  0.00  0.00    +0.110 A 
ATOM     18  C   LIG    1        0.002  -0.004   0.002  0.00  0.00    -0.280 A 
ATOM     19  C   LIG    1       -0.017   1.395   0.010  0.00  0.00    +0.260 A 
ATOM     20  N   LIG    1        1.220   1.820   0.000  0.00  0.00    -0.290 NA
ATOM     21  N   LIG    1        2.067   0.704  -0.014  0.00  0.00    -0.360 N 
ATOM     22  C   LIG    1        3.532   0.734  -0.028  0.00  0.00    +0.360 C 
ENDBRANCH  15  18
ENDBRANCH   1  15
TORSDOF 4
