REMARK  Name = ZINCrD000000D5nP.0
REMARK                            x       y       z     vdW  Elec       q    Type
REMARK                         _______ _______ _______ _____ _____    ______ ____
ROOT
ATOM      1  C   LIG    1       -0.917  -0.197   5.469  0.00  0.00    +0.180 A 
ATOM      2  C   LIG    1        0.432  -0.281   5.153  0.00  0.00    -0.020 A 
ATOM      3  C   LIG    1        0.977  -1.489   4.763  0.00  0.00    +0.050 A 
ATOM      4  C   LIG    1        0.182  -2.618   4.676  0.00  0.00    -0.010 A 
ATOM      5  C   LIG    1       -1.163  -2.549   4.982  0.00  0.00    +0.060 A 
ATOM      6  C   LIG    1       -1.722  -1.338   5.381  0.00  0.00    -0.040 A 
ENDROOT
BRANCH   6   7
ATOM      7  C   LIG    1       -3.167  -1.258   5.712  0.00  0.00    +0.150 A 
ATOM      8  N   LIG    1       -3.812  -0.181   6.105  0.00  0.00    -0.290 NA
ATOM      9  N   LIG    1       -5.152  -0.527   6.310  0.00  0.00    -0.450 N 
ATOM     10  H   LIG    1       -5.857   0.072   6.601  0.00  0.00    +0.440 HD
ATOM     11  C   LIG    1       -5.294  -1.846   6.037  0.00  0.00    +0.060 A 
ATOM     12  C   LIG    1       -6.330  -2.949   6.008  0.00  0.00    +0.120 C 
ATOM     13  C   LIG    1       -5.516  -4.261   5.985  0.00  0.00    +0.040 C 
ATOM     14  C   LIG    1       -4.187  -3.802   5.347  0.00  0.00    +0.100 C 
ATOM     15  C   LIG    1       -4.089  -2.325   5.666  0.00  0.00    -0.240 A 
ENDBRANCH   6   7
BRANCH   1  16
ATOM     16  N   LIG    1       -1.468   1.021   5.867  0.00  0.00    -1.040 N 
ATOM     17  H   LIG    1       -2.167   1.040   6.539  0.00  0.00    +0.430 HD
BRANCH  16  19
ATOM     18  O   LIG    1        0.483   2.441   5.350  0.00  0.00    -0.950 OA
ATOM     19  S   LIG    1       -0.929   2.434   5.192  0.00  0.00    +2.700 S 
ATOM     20  O   LIG    1       -1.771   3.464   5.692  0.00  0.00    -0.950 OA
BRANCH  19  21
ATOM     21  C   LIG    1       -1.236   2.336   3.460  0.00  0.00    -0.710 A 
ATOM     22  C   LIG    1       -2.436   2.787   2.942  0.00  0.00    +0.170 A 
ATOM     23  C   LIG    1       -2.683   2.709   1.587  0.00  0.00    -0.020 A 
ATOM     24  C   LIG    1       -1.725   2.174   0.729  0.00  0.00    +0.170 A 
ATOM     25  O   LIG    1       -1.763   1.998  -0.621  0.00  0.00    -0.300 OA
ATOM     26  C   LIG    1       -0.424   1.826  -1.115  0.00  0.00    +0.240 C 
ATOM     27  C   LIG    1        0.316   1.222   0.103  0.00  0.00    +0.090 C 
ATOM     28  C   LIG    1       -0.520   1.731   1.261  0.00  0.00    -0.200 A 
ATOM     29  C   LIG    1       -0.278   1.807   2.614  0.00  0.00    +0.180 A 
ENDBRANCH  19  21
ENDBRANCH  16  19
ENDBRANCH   1  16
TORSDOF 4
