REMARK  Name = ZINCrD00000hQ53j.0
REMARK                            x       y       z     vdW  Elec       q    Type
REMARK                         _______ _______ _______ _____ _____    ______ ____
ROOT
ATOM      1  C   LIG    1       -5.077   1.521   0.205  0.00  0.00    +0.620 C 
ATOM      2  N   LIG    1       -4.092   2.427   0.364  0.00  0.00    -0.610 N 
ATOM      3  C   LIG    1       -3.991   3.401   1.466  0.00  0.00    +0.270 C 
ATOM      4  C   LIG    1       -2.482   3.741   1.557  0.00  0.00    +0.020 C 
ATOM      5  C   LIG    1       -2.071   3.737   0.061  0.00  0.00    +0.270 C 
ATOM      6  C   LIG    1       -2.942   2.609  -0.533  0.00  0.00    +0.230 C 
ATOM      7  C   LIG    1       -2.132   1.313  -0.610  0.00  0.00    +0.040 C 
ATOM      8  O   LIG    1       -5.105   0.822  -0.790  0.00  0.00    -0.540 OA
ENDROOT
BRANCH   1  10
ATOM      9  C   LIG    1       -6.828   0.229   1.531  0.00  0.00    +0.160 A 
ATOM     10  C   LIG    1       -6.120   1.376   1.236  0.00  0.00    -0.300 A 
ATOM     11  C   LIG    1       -6.587   2.389   2.105  0.00  0.00    +0.260 A 
ATOM     12  N   LIG    1       -7.509   1.871   2.869  0.00  0.00    -0.290 NA
ATOM     13  N   LIG    1       -7.674   0.524   2.531  0.00  0.00    -0.340 N 
BRANCH  13  14
ATOM     14  C   LIG    1       -8.615  -0.407   3.158  0.00  0.00    +0.180 C 
ATOM     15  C   LIG    1       -7.838  -1.493   3.904  0.00  0.00    +0.050 C 
ATOM     16  C   LIG    1       -9.488  -1.054   2.081  0.00  0.00    +0.060 C 
ATOM     17  C   LIG    1       -9.503   0.354   4.145  0.00  0.00    +0.080 C 
ENDBRANCH  13  14
BRANCH   9  19
ATOM     18  C   LIG    1       -7.537  -1.144  -0.409  0.00  0.00    +0.050 C 
ATOM     19  C   LIG    1       -6.677  -1.110   0.856  0.00  0.00    +0.100 C 
ENDBRANCH   9  19
ENDBRANCH   1  10
BRANCH   5  20
ATOM     20  N   LIG    1       -0.648   3.424  -0.084  0.00  0.00    -0.710 N 
ATOM     21  H   LIG    1       -0.365   2.508  -0.232  0.00  0.00    +0.410 HD
ATOM     22  C   LIG    1        0.269   4.410  -0.018  0.00  0.00    +0.650 C 
ATOM     23  O   LIG    1       -0.085   5.558   0.167  0.00  0.00    -0.560 OA
BRANCH  22  24
ATOM     24  O   LIG    1        1.577   4.124  -0.158  0.00  0.00    -0.360 OA
BRANCH  24  25
ATOM     25  C   LIG    1        2.508   5.235  -0.075  0.00  0.00    +0.140 C 
ATOM     26  C   LIG    1        2.190   6.249  -1.176  0.00  0.00    +0.040 C 
ATOM     27  C   LIG    1        3.937   4.718  -0.256  0.00  0.00    +0.080 C 
ATOM     28  C   LIG    1        2.378   5.909   1.292  0.00  0.00    +0.040 C 
ENDBRANCH  24  25
ENDBRANCH  22  24
ENDBRANCH   5  20
TORSDOF 6
