REMARK  Name = ZINCrD000000AldS.0
REMARK                            x       y       z     vdW  Elec       q    Type
REMARK                         _______ _______ _______ _____ _____    ______ ____
ROOT
ATOM      1  O   LIG    1       -1.214  -0.477   0.427  0.00  0.00    -0.500 OA
ATOM      2  C   LIG    1       -0.133   0.011   0.173  0.00  0.00    +0.510 C 
ATOM      3  N   LIG    1       -0.016   1.344   0.009  0.00  0.00    -0.670 N 
ATOM      4  H   LIG    1        0.859   1.742  -0.119  0.00  0.00    +0.410 HD
ENDROOT
BRANCH   3   5
ATOM      5  C   LIG    1       -1.159   2.153   0.019  0.00  0.00    +0.150 A 
ATOM      6  C   LIG    1       -2.358   1.668  -0.486  0.00  0.00    +0.040 A 
ATOM      7  C   LIG    1       -3.487   2.465  -0.473  0.00  0.00    +0.050 A 
ATOM      8  C   LIG    1       -3.424   3.754   0.034  0.00  0.00    +0.040 A 
ATOM      9  O   LIG    1       -4.545   4.527   0.031  0.00  0.00    -0.310 OA
ATOM     10  C   LIG    1       -4.537   5.675   0.887  0.00  0.00    +0.220 C 
ATOM     11  C   LIG    1       -3.201   6.406   0.698  0.00  0.00    +0.220 C 
ATOM     12  O   LIG    1       -2.144   5.505   1.045  0.00  0.00    -0.310 OA
ATOM     13  C   LIG    1       -2.224   4.244   0.538  0.00  0.00    +0.070 A 
ATOM     14  C   LIG    1       -1.093   3.443   0.528  0.00  0.00    +0.000 A 
ENDBRANCH   3   5
BRANCH   2  15
ATOM     15  C   LIG    1        1.080  -0.874   0.042  0.00  0.00    +0.220 C 
BRANCH  15  16
ATOM     16  N   LIG    1        0.692  -2.273   0.263  0.00  0.00    -0.520 NA
ATOM     17  C   LIG    1        0.248  -2.483   1.647  0.00  0.00    +0.170 C 
ATOM     18  C   LIG    1       -0.283  -3.910   1.802  0.00  0.00    +0.030 C 
ATOM     19  C   LIG    1        0.825  -4.904   1.445  0.00  0.00    -0.010 C 
ATOM     20  C   LIG    1        1.303  -4.632   0.016  0.00  0.00    +0.030 C 
ATOM     21  C   LIG    1        1.789  -3.185  -0.087  0.00  0.00    +0.170 C 
BRANCH  19  22
ATOM     22  C   LIG    1        0.282  -6.331   1.540  0.00  0.00    +0.060 C 
BRANCH  22  23
ATOM     23  C   LIG    1       -0.074  -6.639   2.972  0.00  0.00    -0.080 A 
ATOM     24  C   LIG    1        0.870  -7.196   3.814  0.00  0.00    +0.000 A 
ATOM     25  C   LIG    1        0.545  -7.474   5.129  0.00  0.00    +0.000 A 
ATOM     26  C   LIG    1       -0.728  -7.205   5.598  0.00  0.00    -0.010 A 
ATOM     27  C   LIG    1       -1.673  -6.654   4.754  0.00  0.00    +0.000 A 
ATOM     28  C   LIG    1       -1.347  -6.371   3.441  0.00  0.00    +0.000 A 
ENDBRANCH  22  23
ENDBRANCH  19  22
ENDBRANCH  15  16
ENDBRANCH   2  15
TORSDOF 5
