REMARK  Name = ZINCtj0000004qZN.0
REMARK                            x       y       z     vdW  Elec       q    Type
REMARK                         _______ _______ _______ _____ _____    ______ ____
ROOT
ATOM      1  O   LIG    1       -0.523   5.042   2.078  0.00  0.00    -0.520 OA
ATOM      2  C   LIG    1       -0.480   3.835   2.199  0.00  0.00    +0.530 C 
ATOM      3  N   LIG    1       -0.867   3.042   1.180  0.00  0.00    -0.620 N 
ATOM      4  C   LIG    1       -0.714   1.581   1.261  0.00  0.00    +0.290 C 
ATOM      5  C   LIG    1        0.006   1.097  -0.002  0.00  0.00    +0.190 C 
ATOM      6  N   LIG    1       -0.712   1.582  -1.188  0.00  0.00    -0.530 NA
ATOM      7  C   LIG    1       -0.704   3.049  -1.252  0.00  0.00    +0.170 C 
ATOM      8  C   LIG    1       -1.454   3.614  -0.041  0.00  0.00    +0.290 C 
ENDROOT
BRANCH   2   9
ATOM      9  C   LIG    1        0.007   3.224   3.487  0.00  0.00    -0.020 C 
ATOM     10  C   LIG    1       -0.421   4.104   4.664  0.00  0.00    +0.050 C 
ATOM     11  C   LIG    1        0.044   3.466   5.975  0.00  0.00    +0.030 C 
ATOM     12  C   LIG    1        1.573   3.368   5.976  0.00  0.00    +0.290 C 
ATOM     13  N   LIG    1        2.001   2.647   4.770  0.00  0.00    -0.990 NA
ATOM     14  C   LIG    1        1.535   3.123   3.460  0.00  0.00    +0.300 C 
BRANCH  13  15
ATOM     15  S   LIG    1        2.991   1.325   4.884  0.00  0.00    +2.720 S 
ATOM     16  O   LIG    1        2.776   0.560   3.706  0.00  0.00    -0.950 OA
ATOM     17  O   LIG    1        2.812   0.802   6.193  0.00  0.00    -0.940 OA
BRANCH  15  18
ATOM     18  C   LIG    1        4.652   1.907   4.803  0.00  0.00    -0.800 A 
ATOM     19  C   LIG    1        5.391   2.272   5.851  0.00  0.00    +0.170 A 
ATOM     20  C   LIG    1        6.672   2.694   5.543  0.00  0.00    +0.000 A 
ATOM     21  C   LIG    1        6.971   2.681   4.243  0.00  0.00    +0.020 A 
ATOM     22  S   LIG    1        5.586   2.103   3.326  0.00  0.00    +0.200 S 
ENDBRANCH  15  18
ENDBRANCH  13  15
ENDBRANCH   2   9
BRANCH   6  23
ATOM     23  C   LIG    1       -0.154   0.998  -2.416  0.00  0.00    +0.190 C 
BRANCH  23  24
ATOM     24  C   LIG    1       -1.071   1.323  -3.596  0.00  0.00    +0.260 C 
BRANCH  24  25
ATOM     25  N   LIG    1       -0.514   0.739  -4.824  0.00  0.00    -0.390 N 
ATOM     26  C   LIG    1       -0.371  -0.732  -4.673  0.00  0.00    +0.260 C 
ATOM     27  C   LIG    1       -0.336  -1.236  -6.138  0.00  0.00    +0.070 C 
ATOM     28  C   LIG    1       -1.351  -0.311  -6.847  0.00  0.00    +0.070 C 
ATOM     29  C   LIG    1       -1.447   0.940  -5.954  0.00  0.00    +0.250 C 
ATOM     30  H   LIG    1        0.381   1.157  -5.033  0.00  0.00    +0.430 HD
ENDBRANCH  24  25
ENDBRANCH  23  24
ENDBRANCH   6  23
TORSDOF 6
