REMARK  Name = ZINCkj00000GcdUF.0
REMARK                            x       y       z     vdW  Elec       q    Type
REMARK                         _______ _______ _______ _____ _____    ______ ____
ROOT
ATOM      1  N   LIG    1       -4.676   1.633   1.213  0.00  0.00    -0.380 N 
ATOM      2  C   LIG    1       -5.344   2.139   0.003  0.00  0.00    +0.370 C 
ATOM      3  C   LIG    1       -6.815   1.822   0.110  0.00  0.00    -0.310 A 
ATOM      4  C   LIG    1       -7.750   1.794  -0.854  0.00  0.00    +0.310 A 
ATOM      5  N   LIG    1       -8.923   1.447  -0.276  0.00  0.00    -0.460 N 
ATOM      6  H   LIG    1       -9.775   1.347  -0.730  0.00  0.00    +0.450 HD
ATOM      7  N   LIG    1       -8.692   1.257   1.096  0.00  0.00    -0.240 NA
ATOM      8  C   LIG    1       -7.436   1.483   1.327  0.00  0.00    +0.080 A 
ATOM      9  C   LIG    1       -6.675   1.421   2.631  0.00  0.00    +0.010 C 
ATOM     10  C   LIG    1       -7.474   2.118   3.734  0.00  0.00    +0.090 C 
ATOM     11  C   LIG    1       -6.420  -0.037   3.015  0.00  0.00    +0.060 C 
ATOM     12  C   LIG    1       -5.338   2.146   2.418  0.00  0.00    +0.280 C 
ATOM     13  H   LIG    1       -4.714   0.625   1.215  0.00  0.00    +0.420 HD
ENDROOT
BRANCH   1  14
ATOM     14  C   LIG    1       -3.272   2.065   1.209  0.00  0.00    +0.260 C 
BRANCH  14  15
ATOM     15  C   LIG    1       -2.546   1.430   0.021  0.00  0.00    +0.150 C 
BRANCH  15  18
ATOM     16  N   LIG    1        1.058   1.903   0.002  0.00  0.00    -0.280 N 
ATOM     17  C   LIG    1       -0.013   1.076   0.008  0.00  0.00    +0.160 A 
ATOM     18  C   LIG    1       -1.106   1.874   0.017  0.00  0.00    -0.050 A 
ATOM     19  N   LIG    1       -0.656   3.134   0.024  0.00  0.00    -0.260 NA
ATOM     20  N   LIG    1        0.630   3.117   0.012  0.00  0.00    -0.060 NA
BRANCH  16  22
ATOM     21  C   LIG    1        3.176   2.143  -1.197  0.00  0.00    +0.070 C 
ATOM     22  C   LIG    1        2.463   1.488  -0.012  0.00  0.00    +0.330 C 
ENDBRANCH  16  22
ENDBRANCH  15  18
ENDBRANCH  14  15
ENDBRANCH   1  14
TORSDOF 4
