REMARK  Name = ZINCkj00000GcdUF.1
REMARK                            x       y       z     vdW  Elec       q    Type
REMARK                         _______ _______ _______ _____ _____    ______ ____
ROOT
ATOM      1  N   LIG    1        3.210   3.132   0.416  0.00  0.00    -0.380 N 
ATOM      2  C   LIG    1        1.794   3.182   0.012  0.00  0.00    +0.360 C 
ATOM      3  C   LIG    1        1.258   1.772  -0.000  0.00  0.00    -0.310 A 
ATOM      4  C   LIG    1       -0.016   1.349   0.009  0.00  0.00    +0.310 A 
ATOM      5  N   LIG    1        0.002  -0.004   0.002  0.00  0.00    -0.460 N 
ATOM      6  H   LIG    1       -0.775  -0.585   0.007  0.00  0.00    +0.450 HD
ATOM      7  N   LIG    1        1.343  -0.420  -0.015  0.00  0.00    -0.240 NA
ATOM      8  C   LIG    1        2.093   0.639  -0.019  0.00  0.00    +0.080 A 
ATOM      9  C   LIG    1        3.599   0.747  -0.041  0.00  0.00    +0.010 C 
ATOM     10  C   LIG    1        4.175  -0.225  -1.073  0.00  0.00    +0.090 C 
ATOM     11  C   LIG    1        4.164   0.429   1.345  0.00  0.00    +0.070 C 
ATOM     12  C   LIG    1        3.952   2.190  -0.430  0.00  0.00    +0.270 C 
ATOM     13  H   LIG    1        3.271   2.837   1.379  0.00  0.00    +0.420 HD
ENDROOT
BRANCH   1  14
ATOM     14  C   LIG    1        3.796   4.472   0.281  0.00  0.00    +0.270 C 
BRANCH  14  15
ATOM     15  C   LIG    1        3.107   5.431   1.254  0.00  0.00    +0.150 C 
BRANCH  15  18
ATOM     16  N   LIG    1        3.985   8.932   0.822  0.00  0.00    -0.280 N 
ATOM     17  C   LIG    1        3.048   7.957   0.852  0.00  0.00    +0.160 A 
ATOM     18  C   LIG    1        3.709   6.806   1.115  0.00  0.00    -0.050 A 
ATOM     19  N   LIG    1        5.003   7.127   1.223  0.00  0.00    -0.260 NA
ATOM     20  N   LIG    1        5.134   8.395   1.044  0.00  0.00    -0.060 NA
BRANCH  16  22
ATOM     21  C   LIG    1        4.319  11.182   1.720  0.00  0.00    +0.070 C 
ATOM     22  C   LIG    1        3.737  10.354   0.573  0.00  0.00    +0.330 C 
ENDBRANCH  16  22
ENDBRANCH  15  18
ENDBRANCH  14  15
ENDBRANCH   1  14
TORSDOF 4
