REMARK  Name = ZINCrH000004mNjo.0
REMARK                            x       y       z     vdW  Elec       q    Type
REMARK                         _______ _______ _______ _____ _____    ______ ____
ROOT
ATOM      1  N   LIG    1        3.556   6.718   1.670  0.00  0.00    -0.560 N 
ATOM      2  C   LIG    1        3.366   5.405   1.431  0.00  0.00    +0.500 C 
ATOM      3  O   LIG    1        3.341   4.618   2.354  0.00  0.00    -0.490 OA
ENDROOT
BRANCH   1   7
ATOM      4  C   LIG    1        3.751   8.118   5.593  0.00  0.00    +0.130 A 
ATOM      5  C   LIG    1        4.880   8.153   4.787  0.00  0.00    +0.000 A 
ATOM      6  C   LIG    1        4.816   7.690   3.488  0.00  0.00    +0.050 A 
ATOM      7  C   LIG    1        3.622   7.188   2.988  0.00  0.00    +0.100 A 
ATOM      8  C   LIG    1        2.491   7.157   3.794  0.00  0.00    +0.060 A 
ATOM      9  C   LIG    1        2.558   7.617   5.094  0.00  0.00    -0.070 A 
BRANCH   4  11
ATOM     10  C   LIG    1        2.614   8.509   7.645  0.00  0.00    +0.250 C 
ATOM     11  O   LIG    1        3.814   8.576   6.872  0.00  0.00    -0.310 OA
ENDBRANCH   4  11
ENDBRANCH   1   7
BRANCH   2  12
ATOM     12  C   LIG    1        3.184   4.915   0.018  0.00  0.00    +0.370 C 
BRANCH  12  13
ATOM     13  N   LIG    1        2.995   3.462   0.026  0.00  0.00    -0.390 N 
ATOM     14  N   LIG    1        3.998   2.485  -0.063  0.00  0.00    +0.000 NA
ATOM     15  N   LIG    1        3.462   1.317  -0.025  0.00  0.00    -0.210 NA
ATOM     16  C   LIG    1        2.122   1.419   0.087  0.00  0.00    -0.020 A 
ATOM     17  C   LIG    1        1.093   0.472   0.167  0.00  0.00    +0.110 A 
ATOM     18  C   LIG    1       -0.204   0.883   0.271  0.00  0.00    +0.010 A 
ATOM     19  C   LIG    1       -0.519   2.235   0.311  0.00  0.00    +0.080 A 
ATOM     20  C   LIG    1        0.473   3.186   0.234  0.00  0.00    +0.010 A 
ATOM     21  C   LIG    1        1.801   2.788   0.121  0.00  0.00    +0.100 A 
ENDBRANCH  12  13
ENDBRANCH   2  12
BRANCH   1  22
ATOM     22  C   LIG    1        3.695   7.653   0.551  0.00  0.00    +0.390 C 
BRANCH  22  23
ATOM     23  C   LIG    1        2.337   8.179   0.164  0.00  0.00    -0.220 A 
ATOM     24  C   LIG    1        1.762   9.271   0.670  0.00  0.00    +0.040 A 
ATOM     25  C   LIG    1        0.508   9.559   0.161  0.00  0.00    +0.000 A 
ATOM     26  C   LIG    1        0.064   8.701  -0.759  0.00  0.00    -0.020 A 
ATOM     27  S   LIG    1        1.270   7.450  -1.029  0.00  0.00    +0.090 S 
ENDBRANCH  22  23
ENDBRANCH   1  22
TORSDOF 6
