REMARK  Name = ZINCpk00000xIlLK.0
REMARK                            x       y       z     vdW  Elec       q    Type
REMARK                         _______ _______ _______ _____ _____    ______ ____
ROOT
ATOM      1  C   LIG    1        1.794  -1.801  -0.024  0.00  0.00    +0.400 C 
ENDROOT
BRANCH   1   2
ATOM      2  C   LIG    1        1.280  -0.384  -0.012  0.00  0.00    +0.160 A 
ATOM      3  N   LIG    1        2.003   0.709  -0.013  0.00  0.00    -0.290 NA
ATOM      4  N   LIG    1        1.198   1.716  -0.000  0.00  0.00    -0.140 N 
ATOM      5  N   LIG    1       -0.015   1.286   0.009  0.00  0.00    -0.050 NA
ATOM      6  N   LIG    1        0.002  -0.004   0.002  0.00  0.00    -0.270 NA
BRANCH   4   7
ATOM      7  C   LIG    1        1.601   3.124   0.003  0.00  0.00    +0.380 C 
BRANCH   7   8
ATOM      8  C   LIG    1        1.755   3.608   1.446  0.00  0.00    +0.340 C 
BRANCH   8   9
ATOM      9  N   LIG    1        2.158   5.016   1.449  0.00  0.00    -0.380 N 
ATOM     10  C   LIG    1        1.519   6.023   2.082  0.00  0.00    +0.240 A 
ATOM     11  C   LIG    1        2.207   7.163   1.842  0.00  0.00    -0.120 A 
ATOM     12  C   LIG    1        3.298   6.844   1.027  0.00  0.00    +0.250 A 
ATOM     13  N   LIG    1        3.269   5.557   0.791  0.00  0.00    -0.300 NA
ENDBRANCH   8   9
ENDBRANCH   7   8
ENDBRANCH   4   7
ENDBRANCH   1   2
BRANCH   1  16
ATOM     14  O   LIG    1        2.738  -4.029   1.165  0.00  0.00    -0.520 OA
ATOM     15  C   LIG    1        1.615  -3.699   1.493  0.00  0.00    +0.570 C 
ATOM     16  N   LIG    1        1.052  -2.598   0.955  0.00  0.00    -0.720 N 
ATOM     17  H   LIG    1        0.156  -2.334   1.217  0.00  0.00    +0.410 HD
BRANCH  15  18
ATOM     18  C   LIG    1        0.866  -4.504   2.482  0.00  0.00    -0.140 A 
ATOM     19  C   LIG    1       -0.421  -4.123   2.864  0.00  0.00    +0.040 A 
ATOM     20  C   LIG    1       -1.116  -4.881   3.784  0.00  0.00    +0.000 A 
ATOM     21  C   LIG    1       -0.536  -6.011   4.334  0.00  0.00    +0.040 A 
ATOM     22  C   LIG    1        0.741  -6.390   3.963  0.00  0.00    +0.000 A 
ATOM     23  C   LIG    1        1.445  -5.644   3.040  0.00  0.00    +0.080 A 
ENDBRANCH  15  18
ENDBRANCH   1  16
BRANCH   1  24
ATOM     24  C   LIG    1        1.605  -2.400  -1.419  0.00  0.00    -0.060 C 
ATOM     25  C   LIG    1        0.574  -3.521  -1.572  0.00  0.00    +0.030 C 
ATOM     26  C   LIG    1        2.068  -3.842  -1.637  0.00  0.00    +0.050 C 
ENDBRANCH   1  24
TORSDOF 7
