REMARK  Name = ZINCrD000000AVbw.1
REMARK                            x       y       z     vdW  Elec       q    Type
REMARK                         _______ _______ _______ _____ _____    ______ ____
ROOT
ATOM      1  C   LIG    1        3.579  -5.872  -0.063  0.00  0.00    +0.270 C 
ENDROOT
BRANCH   1   4
ATOM      2  O   LIG    1        4.803  -3.468  -0.062  0.00  0.00    -0.510 OA
ATOM      3  C   LIG    1        3.587  -3.435  -0.050  0.00  0.00    +0.600 C 
ATOM      4  N   LIG    1        2.881  -4.584  -0.049  0.00  0.00    -0.720 N 
ATOM      5  H   LIG    1        1.911  -4.557  -0.040  0.00  0.00    +0.410 HD
BRANCH   3   6
ATOM      6  C   LIG    1        2.887  -2.143  -0.036  0.00  0.00    -0.030 A 
ATOM      7  C   LIG    1        3.491  -0.927  -0.036  0.00  0.00    +0.070 A 
ATOM      8  C   LIG    1        2.413   0.062  -0.021  0.00  0.00    -0.150 A 
ATOM      9  C   LIG    1        2.373   1.458  -0.013  0.00  0.00    +0.070 A 
ATOM     10  C   LIG    1        1.167   2.100   0.002  0.00  0.00    -0.010 A 
ATOM     11  C   LIG    1       -0.017   1.374   0.010  0.00  0.00    +0.060 A 
ATOM     12  C   LIG    1        0.002  -0.004   0.002  0.00  0.00    +0.030 A 
ATOM     13  C   LIG    1        1.217  -0.679  -0.013  0.00  0.00    +0.070 A 
ATOM     14  O   LIG    1        1.546  -1.986  -0.023  0.00  0.00    -0.190 OA
ENDBRANCH   3   6
ENDBRANCH   1   4
BRANCH   1  15
ATOM     15  C   LIG    1        2.553  -7.007  -0.059  0.00  0.00    +0.020 C 
BRANCH  15  16
ATOM     16  C   LIG    1        3.282  -8.352  -0.073  0.00  0.00    +0.180 C 
BRANCH  16  17
ATOM     17  N   LIG    1        2.297  -9.443  -0.069  0.00  0.00    -0.540 NA
ATOM     18  C   LIG    1        1.545  -9.469   1.194  0.00  0.00    +0.190 C 
ATOM     19  C   LIG    1        0.479 -10.565   1.127  0.00  0.00    +0.200 C 
ATOM     20  N   LIG    1        1.126 -11.860   0.875  0.00  0.00    -0.490 N 
ATOM     21  C   LIG    1        1.878 -11.834  -0.387  0.00  0.00    +0.200 C 
ATOM     22  C   LIG    1        2.944 -10.738  -0.320  0.00  0.00    +0.200 C 
BRANCH  20  23
ATOM     23  C   LIG    1        0.190 -12.896   0.879  0.00  0.00    +0.110 A 
ATOM     24  C   LIG    1        0.069 -13.729  -0.227  0.00  0.00    -0.040 A 
ATOM     25  C   LIG    1       -0.855 -14.756  -0.218  0.00  0.00    +0.030 A 
ATOM     26  C   LIG    1       -1.666 -14.949   0.886  0.00  0.00    -0.030 A 
ATOM     27  C   LIG    1       -1.551 -14.119   1.986  0.00  0.00    +0.020 A 
ATOM     28  C   LIG    1       -0.626 -13.094   1.986  0.00  0.00    -0.020 A 
ENDBRANCH  20  23
ENDBRANCH  16  17
ENDBRANCH  15  16
ENDBRANCH   1  15
TORSDOF 6
