REMARK  Name = ZINCqH0000003QEF.0
REMARK                            x       y       z     vdW  Elec       q    Type
REMARK                         _______ _______ _______ _____ _____    ______ ____
ROOT
ATOM      1  C   LIG    1        4.957  -2.734   0.154  0.00  0.00    +0.310 C 
ENDROOT
BRANCH   1   4
ATOM      2  N   LIG    1        3.622  -0.661  -0.037  0.00  0.00    -0.660 N 
ATOM      3  H   LIG    1        4.454  -0.167  -0.107  0.00  0.00    +0.420 HD
ATOM      4  C   LIG    1        3.642  -2.005   0.057  0.00  0.00    +0.510 C 
ATOM      5  O   LIG    1        2.601  -2.628   0.064  0.00  0.00    -0.520 OA
BRANCH   2  11
ATOM      6  C   LIG    1        2.302   1.276   0.571  0.00  0.00    +0.110 A 
ATOM      7  C   LIG    1        1.091   1.948   0.572  0.00  0.00    -0.060 A 
ATOM      8  C   LIG    1       -0.018   1.376  -0.025  0.00  0.00    +0.040 A 
ATOM      9  C   LIG    1        0.078   0.134  -0.624  0.00  0.00    -0.010 A 
ATOM     10  C   LIG    1        1.283  -0.543  -0.629  0.00  0.00    +0.070 A 
ATOM     11  C   LIG    1        2.399   0.023  -0.032  0.00  0.00    +0.110 A 
BRANCH   6  12
ATOM     12  O   LIG    1        3.393   1.836   1.157  0.00  0.00    -0.320 OA
BRANCH  12  14
ATOM     13  C   LIG    1        4.545   3.587   2.360  0.00  0.00    +0.070 C 
ATOM     14  C   LIG    1        3.219   3.122   1.756  0.00  0.00    +0.180 C 
ENDBRANCH  12  14
ENDBRANCH   6  12
ENDBRANCH   2  11
ENDBRANCH   1   4
BRANCH   1  15
ATOM     15  N   LIG    1        4.711  -4.176   0.245  0.00  0.00    -0.730 N 
ATOM     16  H   LIG    1        3.802  -4.514   0.237  0.00  0.00    +0.410 HD
BRANCH  15  17
ATOM     17  C   LIG    1        5.788  -5.064   0.344  0.00  0.00    +0.220 A 
ATOM     18  C   LIG    1        7.089  -4.580   0.356  0.00  0.00    -0.050 A 
ATOM     19  C   LIG    1        8.153  -5.457   0.455  0.00  0.00    +0.010 A 
ATOM     20  C   LIG    1        7.924  -6.820   0.542  0.00  0.00    +0.060 A 
ATOM     21  C   LIG    1        6.620  -7.309   0.530  0.00  0.00    +0.130 A 
ATOM     22  C   LIG    1        5.554  -6.430   0.436  0.00  0.00    -0.090 A 
BRANCH  20  23
ATOM     23  O   LIG    1        8.973  -7.681   0.640  0.00  0.00    -0.310 OA
ATOM     24  C   LIG    1       10.283  -7.111   0.646  0.00  0.00    +0.230 C 
ENDBRANCH  20  23
BRANCH  21  25
ATOM     25  O   LIG    1        6.395  -8.647   0.617  0.00  0.00    -0.310 OA
BRANCH  25  26
ATOM     26  C   LIG    1        5.032  -9.077   0.598  0.00  0.00    +0.590 C 
ATOM     27  F   LIG    1        4.431  -8.671  -0.598  0.00  0.00    -0.200 F 
ATOM     28  F   LIG    1        4.349  -8.510   1.680  0.00  0.00    -0.200 F 
ENDBRANCH  25  26
ENDBRANCH  21  25
ENDBRANCH  15  17
ENDBRANCH   1  15
TORSDOF 9
