REMARK  Name = ZINCvU0000000GRd.0
REMARK                            x       y       z     vdW  Elec       q    Type
REMARK                         _______ _______ _______ _____ _____    ______ ____
ROOT
ATOM      1  O   LIG    1        2.526  -1.507   2.680  0.00  0.00    -0.520 OA
ATOM      2  C   LIG    1        3.524  -0.958   2.264  0.00  0.00    +0.540 C 
ATOM      3  N   LIG    1        3.513  -0.365   1.054  0.00  0.00    -0.600 N 
ATOM      4  C   LIG    1        4.615   0.425   0.467  0.00  0.00    +0.260 C 
ATOM      5  C   LIG    1        4.393   0.342  -1.063  0.00  0.00    +0.040 C 
ATOM      6  C   LIG    1        2.845   0.391  -1.156  0.00  0.00    +0.060 C 
ATOM      7  C   LIG    1        2.398  -0.395   0.095  0.00  0.00    +0.310 C 
ENDROOT
BRANCH   7   8
ATOM      8  C   LIG    1        1.183   0.256   0.703  0.00  0.00    +0.090 A 
ATOM      9  N   LIG    1        1.205   1.359   1.351  0.00  0.00    -0.450 NA
ATOM     10  C   LIG    1        0.040   1.826   1.839  0.00  0.00    +0.080 A 
ATOM     11  C   LIG    1       -0.222   2.996   2.580  0.00  0.00    +0.070 A 
ATOM     12  C   LIG    1       -1.490   3.288   2.983  0.00  0.00    +0.030 A 
ATOM     13  C   LIG    1       -2.545   2.442   2.675  0.00  0.00    +0.040 A 
ATOM     14  C   LIG    1       -2.319   1.289   1.957  0.00  0.00    +0.060 A 
ATOM     15  C   LIG    1       -1.030   0.977   1.532  0.00  0.00    -0.180 A 
ATOM     16  S   LIG    1       -0.396  -0.384   0.611  0.00  0.00    +0.120 S 
ENDBRANCH   7   8
BRANCH   2  17
ATOM     17  C   LIG    1        4.777  -0.939   3.101  0.00  0.00    -0.020 C 
ATOM     18  C   LIG    1        5.579  -2.220   2.852  0.00  0.00    +0.080 C 
ATOM     19  C   LIG    1        6.819  -2.223   3.749  0.00  0.00    +0.230 C 
ATOM     20  N   LIG    1        6.406  -2.148   5.156  0.00  0.00    -0.420 N 
ATOM     21  C   LIG    1        5.676  -0.904   5.430  0.00  0.00    +0.210 C 
ATOM     22  C   LIG    1        4.402  -0.861   4.583  0.00  0.00    +0.070 C 
BRANCH  20  23
ATOM     23  C   LIG    1        7.489  -2.279   5.995  0.00  0.00    +0.430 A 
ATOM     24  N   LIG    1        8.327  -3.285   5.987  0.00  0.00    -0.490 NA
ATOM     25  C   LIG    1        9.268  -3.077   6.949  0.00  0.00    +0.040 A 
ATOM     26  C   LIG    1       10.380  -3.801   7.381  0.00  0.00    +0.070 A 
ATOM     27  C   LIG    1       11.158  -3.310   8.407  0.00  0.00    +0.030 A 
ATOM     28  C   LIG    1       10.842  -2.103   9.011  0.00  0.00    +0.040 A 
ATOM     29  C   LIG    1        9.744  -1.377   8.592  0.00  0.00    +0.040 A 
ATOM     30  C   LIG    1        8.951  -1.856   7.563  0.00  0.00    +0.000 A 
ATOM     31  O   LIG    1        7.845  -1.390   6.939  0.00  0.00    -0.230 OA
ENDBRANCH  20  23
ENDBRANCH   2  17
TORSDOF 3
