REMARK  Name = ZINCrD00000l4FkJ.0
REMARK                            x       y       z     vdW  Elec       q    Type
REMARK                         _______ _______ _______ _____ _____    ______ ____
ROOT
ATOM      1  C   LIG    1        1.762  -1.218   1.237  0.00  0.00    +0.110 C 
ATOM      2  C   LIG    1        1.419  -0.406  -0.014  0.00  0.00    +0.170 C 
ATOM      3  N   LIG    1        0.002  -0.004   0.002  0.00  0.00    -0.720 N 
ATOM      4  H   LIG    1       -0.768  -0.594   0.006  0.00  0.00    +0.440 HD
ATOM      5  C   LIG    1       -0.016   1.341   0.009  0.00  0.00    +0.710 C 
ATOM      6  N   LIG    1        1.213   1.869   0.001  0.00  0.00    -0.570 N 
ATOM      7  O   LIG    1       -1.036   2.003   0.018  0.00  0.00    -0.530 OA
ATOM      8  C   LIG    1        2.164   0.914  -0.014  0.00  0.00    +0.540 C 
ATOM      9  O   LIG    1        3.365   1.077  -0.025  0.00  0.00    -0.450 OA
ENDROOT
BRANCH   2  10
ATOM     10  C   LIG    1        1.733  -1.196  -1.259  0.00  0.00    -0.080 A 
ATOM     11  C   LIG    1        0.759  -1.989  -1.836  0.00  0.00    +0.060 A 
ATOM     12  C   LIG    1        1.045  -2.714  -2.978  0.00  0.00    +0.030 A 
ATOM     13  C   LIG    1        2.305  -2.646  -3.544  0.00  0.00    +0.080 A 
ATOM     14  C   LIG    1        3.282  -1.849  -2.965  0.00  0.00    +0.080 A 
ATOM     15  F   LIG    1        4.513  -1.780  -3.516  0.00  0.00    -0.120 F 
ATOM     16  F   LIG    1        2.585  -3.354  -4.660  0.00  0.00    -0.120 F 
ATOM     17  C   LIG    1        2.991  -1.121  -1.825  0.00  0.00    +0.050 A 
ENDBRANCH   2  10
BRANCH   6  18
ATOM     18  C   LIG    1        1.491   3.307   0.005  0.00  0.00    +0.400 C 
BRANCH  18  19
ATOM     19  C   LIG    1        1.600   3.794   1.427  0.00  0.00    -0.100 A 
ATOM     20  C   LIG    1        0.475   4.249   2.088  0.00  0.00    +0.090 A 
ATOM     21  C   LIG    1        0.570   4.692   3.395  0.00  0.00    -0.020 A 
ATOM     22  C   LIG    1        1.796   4.690   4.041  0.00  0.00    +0.050 A 
ATOM     23  O   LIG    1        2.156   5.072   5.301  0.00  0.00    -0.300 OA
ATOM     24  C   LIG    1        3.587   5.232   5.260  0.00  0.00    +0.440 C 
ATOM     25  O   LIG    1        4.001   4.334   4.213  0.00  0.00    -0.300 OA
ATOM     26  C   LIG    1        2.930   4.237   3.372  0.00  0.00    +0.040 A 
ATOM     27 CL   LIG    1       -0.847   5.257   4.225  0.00  0.00    -0.040 Cl
ATOM     28  C   LIG    1        2.827   3.789   2.065  0.00  0.00    +0.080 A 
ENDBRANCH  18  19
ENDBRANCH   6  18
TORSDOF 3
