REMARK  Name = ZINCrD0000075UYG.0
REMARK                            x       y       z     vdW  Elec       q    Type
REMARK                         _______ _______ _______ _____ _____    ______ ____
ROOT
ATOM      1  O   LIG    1       -4.270   0.635   2.509  0.00  0.00    -0.520 OA
ATOM      2  C   LIG    1       -3.623   1.392   3.206  0.00  0.00    +0.560 C 
ATOM      3  N   LIG    1       -2.352   1.693   2.876  0.00  0.00    -0.600 N 
ATOM      4  C   LIG    1       -1.585   2.670   3.661  0.00  0.00    +0.260 C 
ATOM      5  C   LIG    1       -0.267   2.024   4.099  0.00  0.00    +0.030 C 
ATOM      6  C   LIG    1        0.469   1.491   2.868  0.00  0.00    +0.040 C 
ATOM      7  C   LIG    1       -0.387   0.424   2.182  0.00  0.00    -0.020 C 
ATOM      8  C   LIG    1       -1.706   1.052   1.722  0.00  0.00    +0.300 C 
ENDROOT
BRANCH   2   9
ATOM      9  C   LIG    1       -4.233   1.983   4.420  0.00  0.00    -0.130 A 
ATOM     10  C   LIG    1       -4.898   1.185   5.359  0.00  0.00    +0.090 A 
ATOM     11  C   LIG    1       -5.439   1.809   6.471  0.00  0.00    +0.230 A 
ATOM     12  N   LIG    1       -5.326   3.116   6.614  0.00  0.00    -0.230 NA
ATOM     13  N   LIG    1       -4.722   3.853   5.755  0.00  0.00    -0.240 NA
ATOM     14  C   LIG    1       -4.169   3.358   4.665  0.00  0.00    +0.250 A 
ENDBRANCH   2   9
BRANCH   7  15
ATOM     15  C   LIG    1        0.364  -0.131   0.970  0.00  0.00    +0.210 C 
BRANCH  15  16
ATOM     16  C   LIG    1       -0.424  -1.266   0.367  0.00  0.00    +0.170 A 
ATOM     17  N   LIG    1       -1.336  -1.171  -0.570  0.00  0.00    -0.470 NA
ATOM     18  C   LIG    1       -1.763  -2.428  -0.787  0.00  0.00    +0.180 A 
ATOM     19  N   LIG    1       -1.101  -3.208   0.014  0.00  0.00    -0.380 NA
ATOM     20  O   LIG    1       -0.322  -2.560   0.682  0.00  0.00    +0.080 OA
BRANCH  18  21
ATOM     21  C   LIG    1       -2.817  -2.854  -1.777  0.00  0.00    +0.110 C 
ATOM     22  C   LIG    1       -4.002  -3.474  -1.010  0.00  0.00    +0.020 C 
ATOM     23  C   LIG    1       -5.220  -3.426  -1.891  0.00  0.00    +0.000 C 
ATOM     24  C   LIG    1       -5.424  -4.729  -2.687  0.00  0.00    +0.000 C 
ATOM     25  C   LIG    1       -4.109  -5.295  -3.255  0.00  0.00    +0.000 C 
ATOM     26  C   LIG    1       -3.218  -4.222  -3.821  0.00  0.00    +0.030 C 
ATOM     27  C   LIG    1       -2.223  -3.784  -2.726  0.00  0.00    +0.010 C 
ENDBRANCH  18  21
ENDBRANCH  15  16
ENDBRANCH   7  15
TORSDOF 4
