REMARK  Name = ZINCqH00000508J2.0
REMARK                            x       y       z     vdW  Elec       q    Type
REMARK                         _______ _______ _______ _____ _____    ______ ____
ROOT
ATOM      1  O   LIG    1        2.426   5.424   1.478  0.00  0.00    -0.320 OA
ENDROOT
BRANCH   1   2
ATOM      2  C   LIG    1        2.504   4.080   1.446  0.00  0.00    +0.530 C 
ATOM      3  O   LIG    1        3.563   3.538   1.202  0.00  0.00    -0.460 OA
BRANCH   2   4
ATOM      4  C   LIG    1        1.297   3.262   1.709  0.00  0.00    +0.110 A 
ATOM      5  C   LIG    1        1.407   1.911   1.670  0.00  0.00    -0.030 A 
ATOM      6  C   LIG    1        0.198   1.107   1.915  0.00  0.00    +0.420 A 
ATOM      7  C   LIG    1       -1.084   1.840   1.892  0.00  0.00    -0.230 A 
ATOM      8  C   LIG    1       -2.306   1.174   1.857  0.00  0.00    +0.110 A 
ATOM      9  C   LIG    1       -3.475   1.901   1.835  0.00  0.00    +0.000 A 
ATOM     10  C   LIG    1       -3.436   3.288   1.852  0.00  0.00    +0.090 A 
ATOM     11  C   LIG    1       -2.233   3.960   1.896  0.00  0.00    +0.010 A 
ATOM     12  C   LIG    1       -1.040   3.246   1.923  0.00  0.00    +0.150 A 
ATOM     13  O   LIG    1        0.251  -0.093   2.120  0.00  0.00    -0.440 OA
ATOM     14  O   LIG    1        0.143   3.889   1.975  0.00  0.00    -0.210 OA
ENDBRANCH   2   4
ENDBRANCH   1   2
BRANCH   1  15
ATOM     15  C   LIG    1        3.648   6.162   1.211  0.00  0.00    +0.240 C 
BRANCH  15  16
ATOM     16  C   LIG    1        3.370   7.641   1.289  0.00  0.00    +0.400 C 
ATOM     17  O   LIG    1        2.252   8.034   1.544  0.00  0.00    -0.420 OA
BRANCH  16  22
ATOM     18  C   LIG    1        7.609  11.415   0.378  0.00  0.00    +0.100 C 
ATOM     19  C   LIG    1        6.498  10.426   0.617  0.00  0.00    -0.040 A 
ATOM     20  C   LIG    1        5.201  10.876   0.789  0.00  0.00    +0.000 A 
ATOM     21  C   LIG    1        4.178   9.977   1.008  0.00  0.00    -0.020 A 
ATOM     22  C   LIG    1        4.455   8.607   1.055  0.00  0.00    -0.180 A 
ATOM     23  C   LIG    1        5.770   8.160   0.885  0.00  0.00    +0.060 A 
ATOM     24  C   LIG    1        2.766  10.469   1.196  0.00  0.00    +0.100 C 
ATOM     25  C   LIG    1        6.780   9.071   0.662  0.00  0.00    -0.100 A 
ATOM     26  C   LIG    1        8.196   8.592   0.472  0.00  0.00    +0.090 C 
ENDBRANCH  16  22
ENDBRANCH  15  16
ENDBRANCH   1  15
TORSDOF 5
