REMARK  Name = ZINCpe00000bcW5J.0
REMARK                            x       y       z     vdW  Elec       q    Type
REMARK                         _______ _______ _______ _____ _____    ______ ____
ROOT
ATOM      1  C   LIG    1       -2.199   1.882  -0.662  0.00  0.00    -0.010 C 
ATOM      2  C   LIG    1       -0.779   1.607  -1.226  0.00  0.00    +0.040 C 
ATOM      3  C   LIG    1       -0.013   1.086   0.008  0.00  0.00    +0.270 C 
ATOM      4  N   LIG    1       -0.721   1.570   1.202  0.00  0.00    -0.600 N 
ATOM      5  C   LIG    1       -0.374   1.312   2.479  0.00  0.00    +0.590 C 
ATOM      6  O   LIG    1       -1.036   1.766   3.392  0.00  0.00    -0.520 OA
ATOM      7  C   LIG    1       -1.874   2.383   0.767  0.00  0.00    +0.280 C 
ENDROOT
BRANCH   5   8
ATOM      8  C   LIG    1        0.813   0.474   2.770  0.00  0.00    +0.070 A 
ATOM      9  C   LIG    1        1.172   0.207   4.089  0.00  0.00    +0.290 A 
ATOM     10  N   LIG    1        2.231  -0.540   4.348  0.00  0.00    -0.410 NA
ATOM     11  C   LIG    1        2.951  -1.035   3.358  0.00  0.00    +0.280 A 
ATOM     12  C   LIG    1        2.597  -0.770   2.035  0.00  0.00    +0.330 A 
ATOM     13  N   LIG    1        1.535  -0.028   1.771  0.00  0.00    -0.440 NA
BRANCH  12  14
ATOM     14  N   LIG    1        3.361  -1.295   0.989  0.00  0.00    -0.330 N 
ATOM     15  C   LIG    1        3.130  -1.117  -0.338  0.00  0.00    +0.250 A 
ATOM     16  C   LIG    1        4.093  -1.785  -1.014  0.00  0.00    -0.090 A 
ATOM     17  C   LIG    1        4.938  -2.389  -0.077  0.00  0.00    +0.280 A 
ATOM     18  N   LIG    1        4.505  -2.093   1.121  0.00  0.00    -0.280 NA
ENDBRANCH  12  14
ENDBRANCH   5   8
BRANCH   1  19
ATOM     19  C   LIG    1       -2.912   2.964  -1.476  0.00  0.00    +0.040 C 
BRANCH  19  20
ATOM     20  C   LIG    1       -4.348   3.119  -0.970  0.00  0.00    +0.250 C 
BRANCH  20  22
ATOM     21  C   LIG    1       -6.314   4.465  -1.479  0.00  0.00    +0.540 C 
ATOM     22  N   LIG    1       -5.030   4.155  -1.749  0.00  0.00    -0.730 N 
ATOM     23  H   LIG    1       -4.558   4.618  -2.459  0.00  0.00    +0.400 HD
ATOM     24  O   LIG    1       -6.905   3.885  -0.589  0.00  0.00    -0.540 OA
BRANCH  21  26
ATOM     25  C   LIG    1       -8.266   5.812  -1.995  0.00  0.00    +0.140 C 
ATOM     26  C   LIG    1       -6.999   5.506  -2.261  0.00  0.00    -0.090 C 
ENDBRANCH  21  26
ENDBRANCH  20  22
ENDBRANCH  19  20
ENDBRANCH   1  19
TORSDOF 6
