REMARK  Name = ZINCnE000005rrWF.1
REMARK                            x       y       z     vdW  Elec       q    Type
REMARK                         _______ _______ _______ _____ _____    ______ ____
ROOT
ATOM      1  S   LIG    1        2.588   4.329   0.000  0.00  0.00    +2.600 S 
ATOM      2  O   LIG    1        3.199   4.071  -1.257  0.00  0.00    -1.020 OA
ATOM      3  O   LIG    1        3.222   4.059   1.243  0.00  0.00    -1.030 OA
ENDROOT
BRANCH   1   4
ATOM      4  C   LIG    1        2.180   6.043   0.013  0.00  0.00    -0.610 A 
ATOM      5  C   LIG    1        2.036   6.691   1.201  0.00  0.00    +0.160 A 
ATOM      6  C   LIG    1        1.711   8.057   1.212  0.00  0.00    -0.130 A 
ATOM      7  C   LIG    1        1.553   8.763   2.420  0.00  0.00    +0.100 A 
ATOM      8  C   LIG    1        1.238  10.090   2.354  0.00  0.00    -0.050 A 
ATOM      9  C   LIG    1        1.081  10.707   1.114  0.00  0.00    +0.300 A 
ATOM     10  N   LIG    1        1.228  10.046  -0.008  0.00  0.00    -0.480 NA
ATOM     11  C   LIG    1        1.538   8.746  -0.014  0.00  0.00    +0.160 A 
ATOM     12  C   LIG    1        1.695   8.042  -1.221  0.00  0.00    +0.020 A 
ATOM     13  C   LIG    1        2.015   6.720  -1.195  0.00  0.00    +0.120 A 
ENDBRANCH   1   4
BRANCH   1  14
ATOM     14  N   LIG    1        1.163   3.486   0.009  0.00  0.00    -1.090 NA
BRANCH  14  19
ATOM     15  C   LIG    1        0.002  -0.004   0.002  0.00  0.00    +0.160 A 
ATOM     16  C   LIG    1        1.214  -0.681  -0.013  0.00  0.00    -0.200 A 
ATOM     17  C   LIG    1        2.402   0.025  -0.021  0.00  0.00    +0.080 A 
ATOM     18  C   LIG    1        2.387   1.406  -0.013  0.00  0.00    -0.190 A 
ATOM     19  C   LIG    1        1.177   2.090   0.002  0.00  0.00    +0.310 A 
ATOM     20  C   LIG    1       -0.017   1.382   0.010  0.00  0.00    -0.090 A 
BRANCH  15  21
ATOM     21  O   LIG    1       -1.165  -0.700   0.009  0.00  0.00    -0.320 OA
BRANCH  21  23
ATOM     22  C   LIG    1       -2.476  -2.730   0.010  0.00  0.00    +0.040 C 
ATOM     23  C   LIG    1       -1.071  -2.126   0.000  0.00  0.00    +0.180 C 
ENDBRANCH  21  23
ENDBRANCH  15  21
ENDBRANCH  14  19
ENDBRANCH   1  14
TORSDOF 5
