REMARK  Name = ZINCkj000005g0UF.1
REMARK                            x       y       z     vdW  Elec       q    Type
REMARK                         _______ _______ _______ _____ _____    ______ ____
ROOT
ATOM      1  N   LIG    1       -2.839   1.386  -2.398  0.00  0.00    -0.730 N 
ATOM      2  H   LIG    1       -2.567   2.221  -2.811  0.00  0.00    +0.400 HD
ATOM      3  C   LIG    1       -3.855   0.673  -2.923  0.00  0.00    +0.570 C 
ATOM      4  O   LIG    1       -4.195  -0.373  -2.406  0.00  0.00    -0.480 OA
ENDROOT
BRANCH   1   9
ATOM      5  N   LIG    1       -0.031   0.996   0.033  0.00  0.00    -0.380 N 
ATOM      6  C   LIG    1       -0.717   1.478   1.238  0.00  0.00    +0.260 C 
ATOM      7  C   LIG    1       -2.131   0.897   1.291  0.00  0.00    +0.070 C 
ATOM      8  C   LIG    1       -2.907   1.343   0.048  0.00  0.00    +0.030 C 
ATOM      9  C   LIG    1       -2.144   0.899  -1.204  0.00  0.00    +0.240 C 
ATOM     10  C   LIG    1       -0.730   1.480  -1.163  0.00  0.00    +0.250 C 
ATOM     11  H   LIG    1       -0.023  -0.013   0.032  0.00  0.00    +0.430 HD
BRANCH   5  13
ATOM     12  C   LIG    1        2.118   0.888   1.203  0.00  0.00    +0.080 C 
ATOM     13  C   LIG    1        1.351   1.495   0.026  0.00  0.00    +0.250 C 
ENDBRANCH   5  13
ENDBRANCH   1   9
BRANCH   3  14
ATOM     14  C   LIG    1       -4.554   1.163  -4.125  0.00  0.00    -0.180 A 
ATOM     15  C   LIG    1       -4.251   2.418  -4.665  0.00  0.00    +0.100 A 
ATOM     16  C   LIG    1       -4.936   2.831  -5.794  0.00  0.00    -0.030 A 
ATOM     17  C   LIG    1       -5.891   2.001  -6.354  0.00  0.00    +0.320 A 
ATOM     18  N   LIG    1       -6.162   0.821  -5.831  0.00  0.00    -0.510 NA
ATOM     19  C   LIG    1       -5.534   0.375  -4.754  0.00  0.00    +0.360 A 
BRANCH  19  20
ATOM     20  N   LIG    1       -5.846  -0.872  -4.243  0.00  0.00    -0.480 N 
ATOM     21  C   LIG    1       -5.403  -1.939  -5.150  0.00  0.00    +0.220 C 
ATOM     22  C   LIG    1       -7.285  -0.981  -3.965  0.00  0.00    +0.230 C 
ENDBRANCH  19  20
ENDBRANCH   3  14
TORSDOF 4
