REMARK  Name = ZINCkj000005g0UF.0
REMARK                            x       y       z     vdW  Elec       q    Type
REMARK                         _______ _______ _______ _____ _____    ______ ____
ROOT
ATOM      1  N   LIG    1        2.148  -0.511   1.130  0.00  0.00    -0.750 N 
ATOM      2  H   LIG    1        1.456  -0.977   0.636  0.00  0.00    +0.380 HD
ATOM      3  C   LIG    1        3.130  -1.209   1.735  0.00  0.00    +0.570 C 
ATOM      4  O   LIG    1        3.998  -0.625   2.354  0.00  0.00    -0.470 OA
ENDROOT
BRANCH   1   9
ATOM      5  N   LIG    1       -0.007   1.018   0.018  0.00  0.00    -0.390 N 
ATOM      6  C   LIG    1       -0.710   1.481   1.220  0.00  0.00    +0.250 C 
ATOM      7  C   LIG    1       -0.032   0.906   2.466  0.00  0.00    +0.060 C 
ATOM      8  C   LIG    1        1.425   1.377   2.510  0.00  0.00    +0.040 C 
ATOM      9  C   LIG    1        2.128   0.952   1.218  0.00  0.00    +0.270 C 
ATOM     10  C   LIG    1        1.370   1.525   0.019  0.00  0.00    +0.280 C 
ATOM     11  H   LIG    1        0.007   0.009   0.006  0.00  0.00    +0.410 HD
BRANCH   5  13
ATOM     12  C   LIG    1       -2.101   0.880  -1.245  0.00  0.00    +0.080 C 
ATOM     13  C   LIG    1       -0.708   1.510  -1.176  0.00  0.00    +0.250 C 
ENDBRANCH   5  13
ENDBRANCH   1   9
BRANCH   3  14
ATOM     14  C   LIG    1        3.150  -2.680   1.647  0.00  0.00    -0.180 A 
ATOM     15  C   LIG    1        2.098  -3.372   1.036  0.00  0.00    +0.090 A 
ATOM     16  C   LIG    1        2.165  -4.753   0.979  0.00  0.00    -0.030 A 
ATOM     17  C   LIG    1        3.258  -5.405   1.520  0.00  0.00    +0.320 A 
ATOM     18  N   LIG    1        4.240  -4.735   2.091  0.00  0.00    -0.510 NA
ATOM     19  C   LIG    1        4.229  -3.414   2.169  0.00  0.00    +0.360 A 
BRANCH  19  20
ATOM     20  N   LIG    1        5.283  -2.752   2.772  0.00  0.00    -0.480 N 
ATOM     21  C   LIG    1        6.505  -2.862   1.963  0.00  0.00    +0.220 C 
ATOM     22  C   LIG    1        5.507  -3.251   4.135  0.00  0.00    +0.230 C 
ENDBRANCH  19  20
ENDBRANCH   3  14
TORSDOF 4
