REMARK  Name = ZINCrH000004ow9U.0
REMARK                            x       y       z     vdW  Elec       q    Type
REMARK                         _______ _______ _______ _____ _____    ______ ____
ROOT
ATOM      1  N   LIG    1        7.680   0.914   0.782  0.00  0.00    -0.520 NA
ATOM      2  C   LIG    1        7.339   1.234  -0.610  0.00  0.00    +0.190 C 
ATOM      3  C   LIG    1        5.991   1.957  -0.653  0.00  0.00    +0.040 C 
ATOM      4  C   LIG    1        4.915   1.059  -0.037  0.00  0.00    +0.230 C 
ATOM      5  C   LIG    1        5.319   0.701   1.396  0.00  0.00    +0.030 C 
ATOM      6  C   LIG    1        6.686   0.013   1.379  0.00  0.00    +0.170 C 
ENDROOT
BRANCH   4   7
ATOM      7  N   LIG    1        3.634   1.769  -0.022  0.00  0.00    -0.720 N 
ATOM      8  H   LIG    1        3.617   2.739  -0.017  0.00  0.00    +0.400 HD
ATOM      9  C   LIG    1        2.479   1.075  -0.015  0.00  0.00    +0.560 C 
ATOM     10  O   LIG    1        2.500  -0.141  -0.021  0.00  0.00    -0.530 OA
BRANCH   9  11
ATOM     11  C   LIG    1        1.186   1.792   0.000  0.00  0.00    -0.140 A 
ATOM     12  C   LIG    1       -0.013   1.076   0.008  0.00  0.00    +0.080 A 
ATOM     13  C   LIG    1       -1.216   1.751   0.017  0.00  0.00    +0.000 A 
ATOM     14  C   LIG    1       -1.236   3.134   0.030  0.00  0.00    +0.040 A 
ATOM     15  C   LIG    1       -0.052   3.850   0.022  0.00  0.00    +0.000 A 
ATOM     16  C   LIG    1        1.158   3.187   0.008  0.00  0.00    +0.040 A 
ENDBRANCH   9  11
ENDBRANCH   4   7
BRANCH   1  18
ATOM     17  C   LIG    1       10.049   1.351   0.339  0.00  0.00    +0.080 C 
ATOM     18  C   LIG    1        9.031   0.342   0.875  0.00  0.00    +0.260 C 
BRANCH  18  19
ATOM     19  C   LIG    1        9.345   0.028   2.314  0.00  0.00    +0.170 A 
ATOM     20  N   LIG    1        9.123   0.804   3.337  0.00  0.00    -0.250 NA
ATOM     21  N   LIG    1        9.511   0.218   4.415  0.00  0.00    -0.270 NA
ATOM     22  C   LIG    1       10.007  -0.961   4.113  0.00  0.00    +0.240 A 
ATOM     23  O   LIG    1        9.911  -1.103   2.775  0.00  0.00    -0.220 OA
BRANCH  22  24
ATOM     24  C   LIG    1       10.564  -1.942   5.056  0.00  0.00    -0.150 A 
ATOM     25  C   LIG    1       10.651  -1.776   6.405  0.00  0.00    +0.100 A 
ATOM     26  C   LIG    1       11.212  -2.841   7.076  0.00  0.00    +0.020 A 
ATOM     27  C   LIG    1       11.583  -3.867   6.304  0.00  0.00    -0.010 A 
ATOM     28  S   LIG    1       11.216  -3.517   4.621  0.00  0.00    +0.170 S 
ENDBRANCH  22  24
ENDBRANCH  18  19
ENDBRANCH   1  18
TORSDOF 5
