REMARK  Name = ZINCpk00000xI0FN.0
REMARK                            x       y       z     vdW  Elec       q    Type
REMARK                         _______ _______ _______ _____ _____    ______ ____
ROOT
ATOM      1  C   LIG    1       -1.122  -2.129   0.166  0.00  0.00    +0.550 A 
ATOM      2  N   LIG    1        0.053  -2.733   0.325  0.00  0.00    -0.620 NA
ATOM      3  C   LIG    1        1.164  -2.027   0.477  0.00  0.00    +0.660 A 
ATOM      4  N   LIG    1        1.153  -0.703   0.476  0.00  0.00    -0.630 NA
ATOM      5  C   LIG    1        0.014  -0.031   0.321  0.00  0.00    +0.560 A 
ATOM      6  C   LIG    1       -1.174  -0.738   0.165  0.00  0.00    -0.310 A 
ENDROOT
BRANCH   5   7
ATOM      7  N   LIG    1        0.011   1.355   0.322  0.00  0.00    -0.820 N 
ATOM      8  H   LIG    1       -0.822   1.839   0.204  0.00  0.00    +0.410 HD
ATOM      9  H   LIG    1        0.843   1.842   0.435  0.00  0.00    +0.420 HD
ENDBRANCH   5   7
BRANCH   6  10
ATOM     10  N   LIG    1       -2.462  -0.028  -0.003  0.00  0.00    +0.040 N 
ATOM     11  O   LIG    1       -3.129   0.263   0.974  0.00  0.00    -0.140 OA
ATOM     12  O   LIG    1       -2.855   0.265  -1.118  0.00  0.00    -0.140 OA
ENDBRANCH   6  10
BRANCH   1  13
ATOM     13  N   LIG    1       -2.280  -2.876   0.008  0.00  0.00    -0.640 N 
ATOM     14  H   LIG    1       -3.143  -2.433  -0.024  0.00  0.00    +0.420 HD
BRANCH  13  19
ATOM     15  C   LIG    1       -1.975  -8.521  -0.454  0.00  0.00    +0.100 C 
ATOM     16  C   LIG    1       -2.056  -7.021  -0.332  0.00  0.00    -0.100 A 
ATOM     17  C   LIG    1       -3.147  -6.437   0.286  0.00  0.00    +0.030 A 
ATOM     18  C   LIG    1       -3.224  -5.063   0.400  0.00  0.00    -0.010 A 
ATOM     19  C   LIG    1       -2.205  -4.267  -0.106  0.00  0.00    +0.140 A 
ATOM     20  C   LIG    1       -1.113  -4.856  -0.731  0.00  0.00    +0.040 A 
ATOM     21  C   LIG    1       -1.039  -6.231  -0.837  0.00  0.00    +0.030 A 
ENDBRANCH  13  19
ENDBRANCH   1  13
BRANCH   3  22
ATOM     22  N   LIG    1        2.367  -2.691   0.640  0.00  0.00    -0.670 N 
ATOM     23  H   LIG    1        2.389  -3.661   0.643  0.00  0.00    +0.420 HD
BRANCH  22  24
ATOM     24  C   LIG    1        3.607  -1.929   0.809  0.00  0.00    +0.310 C 
BRANCH  24  25
ATOM     25  C   LIG    1        4.782  -2.896   0.969  0.00  0.00    +0.180 C 
BRANCH  25  26
ATOM     26  O   LIG    1        4.956  -3.638  -0.240  0.00  0.00    -0.380 OA
BRANCH  26  27
ATOM     27  C   LIG    1        6.034  -4.575  -0.197  0.00  0.00    +0.190 C 
BRANCH  27  28
ATOM     28  C   LIG    1        6.126  -5.308  -1.537  0.00  0.00    +0.190 C 
BRANCH  28  29
ATOM     29  O   LIG    1        6.474  -4.378  -2.565  0.00  0.00    -0.570 OA
ATOM     30  H   LIG    1        6.550  -4.775  -3.444  0.00  0.00    +0.380 HD
ENDBRANCH  28  29
ENDBRANCH  27  28
ENDBRANCH  26  27
ENDBRANCH  25  26
ENDBRANCH  24  25
ENDBRANCH  22  24
ENDBRANCH   3  22
TORSDOF 11
