REMARK  Name = ZINCpk00000eaFeY.0
REMARK                            x       y       z     vdW  Elec       q    Type
REMARK                         _______ _______ _______ _____ _____    ______ ____
ROOT
ATOM      1  O   LIG    1        0.434   0.724   2.106  0.00  0.00    -0.330 OA
ENDROOT
BRANCH   1   3
ATOM      2  C   LIG    1        0.802   0.225  -0.249  0.00  0.00    +0.070 C 
ATOM      3  C   LIG    1       -0.033   1.013   0.762  0.00  0.00    +0.200 C 
BRANCH   3   4
ATOM      4  C   LIG    1        0.108   2.488   0.488  0.00  0.00    +0.520 C 
ATOM      5  N   LIG    1       -0.359   3.007  -0.665  0.00  0.00    -0.690 N 
ATOM      6  H   LIG    1       -0.785   2.431  -1.318  0.00  0.00    +0.410 HD
ATOM      7  C   LIG    1       -0.233   4.327  -0.909  0.00  0.00    +0.700 C 
ATOM      8  N   LIG    1       -0.699   4.846  -2.063  0.00  0.00    -0.710 N 
ATOM      9  H   LIG    1       -1.126   4.269  -2.716  0.00  0.00    +0.400 HD
ATOM     10  O   LIG    1        0.301   5.048  -0.090  0.00  0.00    -0.520 OA
ATOM     11  O   LIG    1        0.640   3.208   1.306  0.00  0.00    -0.440 OA
BRANCH   8  12
ATOM     12  C   LIG    1       -0.562   6.280  -2.329  0.00  0.00    +0.230 C 
ATOM     13  C   LIG    1       -1.772   7.007  -2.920  0.00  0.00    +0.020 C 
ATOM     14  C   LIG    1       -0.546   6.728  -3.791  0.00  0.00    +0.020 C 
ENDBRANCH   8  12
ENDBRANCH   3   4
ENDBRANCH   1   3
BRANCH   1  15
ATOM     15  C   LIG    1       -0.141  -0.309   2.742  0.00  0.00    +0.470 C 
ATOM     16  O   LIG    1       -1.008  -0.949   2.195  0.00  0.00    -0.480 OA
BRANCH  15  17
ATOM     17  C   LIG    1        0.292  -0.669   4.140  0.00  0.00    +0.210 C 
ATOM     18  C   LIG    1       -0.059   0.475   5.094  0.00  0.00    +0.040 C 
BRANCH  17  19
ATOM     19  N   LIG    1       -0.399  -1.893   4.567  0.00  0.00    -0.520 NA
ATOM     20  C   LIG    1        0.241  -2.471   5.756  0.00  0.00    +0.200 C 
BRANCH  19  21
ATOM     21  C   LIG    1       -1.825  -1.634   4.810  0.00  0.00    +0.230 C 
BRANCH  21  22
ATOM     22  C   LIG    1       -2.547  -2.942   5.005  0.00  0.00    -0.080 A 
ATOM     23  C   LIG    1       -3.094  -3.598   3.918  0.00  0.00    +0.040 A 
ATOM     24  C   LIG    1       -3.752  -4.801   4.096  0.00  0.00    +0.000 A 
ATOM     25  C   LIG    1       -3.872  -5.343   5.362  0.00  0.00    +0.000 A 
ATOM     26  C   LIG    1       -3.329  -4.684   6.450  0.00  0.00    +0.000 A 
ATOM     27  C   LIG    1       -2.666  -3.484   6.271  0.00  0.00    +0.000 A 
ENDBRANCH  21  22
ENDBRANCH  19  21
ENDBRANCH  17  19
ENDBRANCH  15  17
ENDBRANCH   1  15
TORSDOF 8
