REMARK  Name = ZINCrH000004mtsD.0
REMARK                            x       y       z     vdW  Elec       q    Type
REMARK                         _______ _______ _______ _____ _____    ______ ____
ROOT
ATOM      1  C   LIG    1       -0.355   1.367   2.827  0.00  0.00    +0.570 C 
ATOM      2  N   LIG    1        0.754   1.749   2.164  0.00  0.00    -0.730 N 
ATOM      3  H   LIG    1        0.684   2.098   1.262  0.00  0.00    +0.400 HD
ATOM      4  O   LIG    1       -0.278   1.010   3.987  0.00  0.00    -0.520 OA
ENDROOT
BRANCH   1   8
ATOM      5  C   LIG    1       -4.121   1.406   0.863  0.00  0.00    +0.200 A 
ATOM      6  C   LIG    1       -2.963   1.713   0.155  0.00  0.00    -0.110 A 
ATOM      7  C   LIG    1       -1.742   1.706   0.789  0.00  0.00    +0.120 A 
ATOM      8  C   LIG    1       -1.661   1.380   2.146  0.00  0.00    -0.210 A 
ATOM      9  C   LIG    1       -2.830   1.072   2.858  0.00  0.00    +0.230 A 
ATOM     10  C   LIG    1       -4.053   1.087   2.211  0.00  0.00    -0.110 A 
BRANCH   5  12
ATOM     11  C   LIG    1       -5.322   1.757  -1.158  0.00  0.00    +0.240 C 
ATOM     12  O   LIG    1       -5.322   1.420   0.231  0.00  0.00    -0.310 OA
ENDBRANCH   5  12
BRANCH   9  13
ATOM     13  O   LIG    1       -2.762   0.759   4.177  0.00  0.00    -0.270 OA
BRANCH  13  14
ATOM     14  C   LIG    1       -4.000   0.572   4.864  0.00  0.00    +0.150 C 
ATOM     15  C   LIG    1       -3.798   0.829   6.359  0.00  0.00    +0.070 C 
ATOM     16  C   LIG    1       -4.487  -0.863   4.655  0.00  0.00    +0.020 C 
ENDBRANCH  13  14
ENDBRANCH   9  13
ENDBRANCH   1   8
BRANCH   2  17
ATOM     17  C   LIG    1        2.066   1.638   2.807  0.00  0.00    +0.300 C 
BRANCH  17  18
ATOM     18  C   LIG    1        3.158   2.025   1.807  0.00  0.00    -0.180 C 
ATOM     19  C   LIG    1        4.520   1.342   1.949  0.00  0.00    +0.040 C 
ATOM     20  C   LIG    1        3.592   0.967   0.790  0.00  0.00    +0.050 C 
BRANCH  18  21
ATOM     21  C   LIG    1        3.144   3.484   1.346  0.00  0.00    +0.300 C 
BRANCH  21  22
ATOM     22  C   LIG    1        3.449   4.383   2.517  0.00  0.00    -0.110 A 
ATOM     23  C   LIG    1        2.418   5.001   3.200  0.00  0.00    +0.010 A 
ATOM     24  C   LIG    1        2.697   5.831   4.270  0.00  0.00    +0.000 A 
ATOM     25  C   LIG    1        4.007   6.034   4.663  0.00  0.00    +0.000 A 
ATOM     26  C   LIG    1        5.038   5.415   3.980  0.00  0.00    +0.000 A 
ATOM     27  C   LIG    1        4.759   4.590   2.907  0.00  0.00    +0.010 A 
ENDBRANCH  21  22
BRANCH  21  28
ATOM     28  O   LIG    1        4.133   3.672   0.331  0.00  0.00    -0.550 OA
ATOM     29  H   LIG    1        5.034   3.472   0.618  0.00  0.00    +0.370 HD
ENDBRANCH  21  28
ENDBRANCH  18  21
ENDBRANCH  17  18
ENDBRANCH   2  17
TORSDOF 9
