REMARK  Name = ZINCrg00000SjSt0.0
REMARK                            x       y       z     vdW  Elec       q    Type
REMARK                         _______ _______ _______ _____ _____    ______ ____
ROOT
ATOM      1  C   LIG    1       -0.047   1.107  -2.471  0.00  0.00    +0.520 C 
ATOM      2  N   LIG    1       -0.524   1.433  -3.689  0.00  0.00    -0.520 N 
ATOM      3  H   LIG    1       -1.321   1.980  -3.768  0.00  0.00    +0.430 HD
ATOM      4  O   LIG    1        0.949   0.422  -2.373  0.00  0.00    -0.540 OA
ENDROOT
BRANCH   2   5
ATOM      5  N   LIG    1        0.132   0.981  -4.842  0.00  0.00    -0.520 N 
ATOM      6  H   LIG    1        0.929   0.433  -4.763  0.00  0.00    +0.430 HD
ATOM      7  C   LIG    1       -0.345   1.307  -6.060  0.00  0.00    +0.570 C 
ATOM      8  O   LIG    1       -1.343   1.992  -6.158  0.00  0.00    -0.530 OA
BRANCH   7   9
ATOM      9  C   LIG    1        0.347   0.830  -7.276  0.00  0.00    -0.130 A 
ATOM     10  C   LIG    1        1.494   0.042  -7.168  0.00  0.00    +0.050 A 
ATOM     11  C   LIG    1        2.133  -0.398  -8.307  0.00  0.00    +0.020 A 
ATOM     12  C   LIG    1        1.643  -0.064  -9.560  0.00  0.00    -0.060 A 
ATOM     13  C   LIG    1        2.158  -0.420 -10.939  0.00  0.00    +0.080 C 
ATOM     14  C   LIG    1        1.477   0.581 -11.896  0.00  0.00    +0.030 C 
ATOM     15  C   LIG    1        0.181   0.938 -11.137  0.00  0.00    +0.080 C 
ATOM     16  C   LIG    1        0.505   0.717  -9.674  0.00  0.00    -0.100 A 
ATOM     17  C   LIG    1       -0.146   1.160  -8.539  0.00  0.00    +0.100 A 
ENDBRANCH   7   9
ENDBRANCH   2   5
BRANCH   1  18
ATOM     18  C   LIG    1       -0.753   1.593  -1.232  0.00  0.00    +0.090 C 
BRANCH  18  19
ATOM     19  C   LIG    1       -0.013   1.086   0.008  0.00  0.00    +0.040 C 
BRANCH  19  20
ATOM     20  C   LIG    1       -0.729   1.579   1.267  0.00  0.00    +0.320 C 
BRANCH  20  26
ATOM     21  C   LIG    1        2.862   0.465   4.083  0.00  0.00    +0.090 C 
ATOM     22  C   LIG    1        1.400   0.890   4.232  0.00  0.00    +0.120 C 
ATOM     23  N   LIG    1        0.507  -0.278   4.131  0.00  0.00    -0.720 N 
ATOM     24  H   LIG    1        0.494  -1.049   4.720  0.00  0.00    +0.440 HD
ATOM     25  C   LIG    1       -0.287  -0.065   3.067  0.00  0.00    +0.700 C 
ATOM     26  N   LIG    1       -0.020   1.094   2.454  0.00  0.00    -0.580 N 
ATOM     27  O   LIG    1       -1.149  -0.840   2.702  0.00  0.00    -0.540 OA
ATOM     28  C   LIG    1        1.185   1.623   5.558  0.00  0.00    +0.090 C 
ATOM     29  C   LIG    1        0.977   1.762   3.066  0.00  0.00    +0.530 C 
ATOM     30  O   LIG    1        1.441   2.837   2.750  0.00  0.00    -0.460 OA
ENDBRANCH  20  26
ENDBRANCH  19  20
ENDBRANCH  18  19
ENDBRANCH   1  18
TORSDOF 6
