REMARK  Name = ZINCrD000000gKPK.0
REMARK                            x       y       z     vdW  Elec       q    Type
REMARK                         _______ _______ _______ _____ _____    ______ ____
ROOT
ATOM      1  C   LIG    1       -1.423   9.081  -0.231  0.00  0.00    +0.600 C 
ATOM      2  N   LIG    1       -1.364   7.862  -0.804  0.00  0.00    -0.720 N 
ATOM      3  H   LIG    1       -2.151   7.296  -0.821  0.00  0.00    +0.400 HD
ATOM      4  O   LIG    1       -0.437   9.791  -0.209  0.00  0.00    -0.500 OA
ENDROOT
BRANCH   1   9
ATOM      5  C   LIG    1       -4.245  10.740   1.389  0.00  0.00    -0.010 A 
ATOM      6  N   LIG    1       -4.755   9.581   1.017  0.00  0.00    -0.190 NA
ATOM      7  N   LIG    1       -3.868   8.872   0.416  0.00  0.00    -0.360 N 
ATOM      8  H   LIG    1       -4.017   7.985   0.052  0.00  0.00    +0.450 HD
ATOM      9  C   LIG    1       -2.683   9.551   0.369  0.00  0.00    -0.040 A 
ATOM     10  C   LIG    1       -2.895  10.757   0.984  0.00  0.00    +0.100 A 
BRANCH   5  11
ATOM     11  C   LIG    1       -4.957  11.820   2.100  0.00  0.00    +0.560 C 
ATOM     12  O   LIG    1       -4.373  12.845   2.390  0.00  0.00    -0.490 OA
BRANCH  11  13
ATOM     13  O   LIG    1       -6.255  11.669   2.429  0.00  0.00    -0.330 OA
BRANCH  13  15
ATOM     14  C   LIG    1       -6.831  14.029   2.257  0.00  0.00    +0.020 C 
ATOM     15  C   LIG    1       -6.891  12.772   3.127  0.00  0.00    +0.120 C 
ATOM     16  C   LIG    1       -6.161  13.029   4.446  0.00  0.00    +0.030 C 
ATOM     17  C   LIG    1       -8.352  12.419   3.413  0.00  0.00    +0.080 C 
ENDBRANCH  13  15
ENDBRANCH  11  13
ENDBRANCH   5  11
ENDBRANCH   1   9
BRANCH   2  18
ATOM     18  C   LIG    1       -0.111   7.394  -1.402  0.00  0.00    +0.230 C 
BRANCH  18  19
ATOM     19  C   LIG    1       -0.005   7.913  -2.837  0.00  0.00    +0.370 C 
ATOM     20  F   LIG    1       -1.086   7.436  -3.586  0.00  0.00    -0.200 F 
ATOM     21  F   LIG    1        1.191   7.466  -3.408  0.00  0.00    -0.190 F 
ENDBRANCH  18  19
BRANCH  18  22
ATOM     22  C   LIG    1       -0.090   5.864  -1.410  0.00  0.00    +0.050 C 
BRANCH  22  23
ATOM     23  C   LIG    1       -0.070   5.347   0.030  0.00  0.00    +0.070 C 
BRANCH  23  24
ATOM     24  C   LIG    1       -0.050   3.840   0.022  0.00  0.00    -0.090 A 
ATOM     25  C   LIG    1        1.156   3.165   0.008  0.00  0.00    +0.000 A 
ATOM     26  C   LIG    1        1.175   1.783   0.000  0.00  0.00    +0.000 A 
ATOM     27  C   LIG    1       -0.013   1.076   0.008  0.00  0.00    +0.000 A 
ATOM     28  C   LIG    1       -1.219   1.751   0.017  0.00  0.00    +0.000 A 
ATOM     29  C   LIG    1       -1.238   3.133   0.029  0.00  0.00    +0.000 A 
ENDBRANCH  23  24
ENDBRANCH  22  23
ENDBRANCH  18  22
ENDBRANCH   2  18
TORSDOF 9
