REMARK  Name = ZINCqH0000032dyv.0
REMARK                            x       y       z     vdW  Elec       q    Type
REMARK                         _______ _______ _______ _____ _____    ______ ____
ROOT
ATOM      1  N   LIG    1        5.905  -0.209  -0.042  0.00  0.00    -0.730 N 
ATOM      2  H   LIG    1        5.858  -1.178  -0.070  0.00  0.00    +0.400 HD
ATOM      3  C   LIG    1        4.783   0.514   0.143  0.00  0.00    +0.700 C 
ATOM      4  N   LIG    1        3.596  -0.108   0.288  0.00  0.00    -0.680 N 
ATOM      5  H   LIG    1        3.558  -1.076   0.334  0.00  0.00    +0.410 HD
ATOM      6  O   LIG    1        4.841   1.728   0.178  0.00  0.00    -0.570 OA
ENDROOT
BRANCH   4   7
ATOM      7  C   LIG    1        2.421   0.641   0.373  0.00  0.00    +0.170 A 
ATOM      8  C   LIG    1        2.425   1.874   0.988  0.00  0.00    +0.020 A 
ATOM      9  C   LIG    1        1.259   2.629   1.077  0.00  0.00    +0.040 A 
ATOM     10  C   LIG    1        0.085   2.172   0.564  0.00  0.00    +0.000 A 
ATOM     11  C   LIG    1        0.037   0.919  -0.071  0.00  0.00    -0.040 A 
ATOM     12  C   LIG    1       -1.161   0.421  -0.611  0.00  0.00    +0.030 A 
ATOM     13  C   LIG    1       -1.172  -0.796  -1.220  0.00  0.00    +0.000 A 
ATOM     14  C   LIG    1       -0.010  -1.560  -1.316  0.00  0.00    +0.000 A 
ATOM     15  C   LIG    1        1.168  -1.109  -0.803  0.00  0.00    +0.010 A 
ATOM     16  C   LIG    1        1.217   0.141  -0.169  0.00  0.00    -0.060 A 
ENDBRANCH   4   7
BRANCH   1  17
ATOM     17  C   LIG    1        7.195   0.467  -0.200  0.00  0.00    +0.300 C 
BRANCH  17  18
ATOM     18  C   LIG    1        8.278  -0.567  -0.515  0.00  0.00    +0.170 C 
BRANCH  18  19
ATOM     19  N   LIG    1        8.290  -1.597   0.532  0.00  0.00    -0.530 NA
ATOM     20  C   LIG    1        8.578  -1.008   1.848  0.00  0.00    +0.150 C 
ATOM     21  C   LIG    1        8.522  -2.104   2.915  0.00  0.00    +0.220 C 
ATOM     22  O   LIG    1        9.445  -3.142   2.574  0.00  0.00    -0.380 OA
ATOM     23  C   LIG    1        9.195  -3.739   1.298  0.00  0.00    +0.220 C 
ATOM     24  C   LIG    1        9.257  -2.659   0.215  0.00  0.00    +0.150 C 
ENDBRANCH  18  19
BRANCH  18  25
ATOM     25  C   LIG    1        9.642   0.123  -0.568  0.00  0.00    +0.000 C 
BRANCH  25  27
ATOM     26  C   LIG    1       10.962   1.931  -1.677  0.00  0.00    +0.010 C 
ATOM     27  C   LIG    1        9.660   1.129  -1.720  0.00  0.00    -0.020 C 
ATOM     28  C   LIG    1        9.567   0.381  -3.052  0.00  0.00    +0.010 C 
ENDBRANCH  25  27
ENDBRANCH  18  25
ENDBRANCH  17  18
ENDBRANCH   1  17
TORSDOF 6
