REMARK  Name = ZINCrH000004jayu.0
REMARK                            x       y       z     vdW  Elec       q    Type
REMARK                         _______ _______ _______ _____ _____    ______ ____
ROOT
ATOM      1  C   LIG    1        3.577   2.606   0.835  0.00  0.00    +0.010 C 
ATOM      2  C   LIG    1        3.322   1.966  -0.550  0.00  0.00    +0.080 C 
ATOM      3  C   LIG    1        1.848   1.627  -0.536  0.00  0.00    +0.520 C 
ATOM      4  N   LIG    1        1.230   2.290   0.456  0.00  0.00    -0.610 N 
ATOM      5  O   LIG    1        1.303   0.867  -1.309  0.00  0.00    -0.510 OA
ATOM      6  C   LIG    1        2.171   3.139   1.197  0.00  0.00    +0.300 C 
ENDROOT
BRANCH   1  15
ATOM      7  C   LIG    1        7.392  -1.295   4.487  0.00  0.00    -0.100 A 
ATOM      8  C   LIG    1        6.039  -1.120   4.715  0.00  0.00    +0.040 A 
ATOM      9  C   LIG    1        5.296  -0.305   3.887  0.00  0.00    +0.020 A 
ATOM     10  C   LIG    1        5.904   0.354   2.817  0.00  0.00    +0.140 A 
ATOM     11  C   LIG    1        7.259   0.168   2.595  0.00  0.00    -0.130 A 
ATOM     12  C   LIG    1        7.664   0.978   1.384  0.00  0.00    +0.090 C 
ATOM     13  C   LIG    1        6.365   1.660   0.923  0.00  0.00    +0.280 C 
ATOM     14  N   LIG    1        5.339   1.210   1.867  0.00  0.00    -0.550 N 
ATOM     15  C   LIG    1        4.041   1.573   1.829  0.00  0.00    +0.530 C 
ATOM     16  O   LIG    1        3.248   1.068   2.594  0.00  0.00    -0.500 OA
ATOM     17  C   LIG    1        8.000  -0.650   3.426  0.00  0.00    +0.050 A 
BRANCH   7  19
ATOM     18  C   LIG    1        8.765  -1.361   6.551  0.00  0.00    +0.030 C 
ATOM     19  C   LIG    1        8.201  -2.187   5.393  0.00  0.00    +0.060 C 
ENDBRANCH   7  19
ENDBRANCH   1  15
BRANCH   4  20
ATOM     20  C   LIG    1       -0.200   2.184   0.756  0.00  0.00    +0.300 C 
ATOM     21  C   LIG    1       -0.541   0.735   1.106  0.00  0.00    +0.040 C 
BRANCH  20  22
ATOM     22  C   LIG    1       -0.999   2.612  -0.448  0.00  0.00    -0.090 A 
ATOM     23  C   LIG    1       -0.539   3.637  -1.254  0.00  0.00    +0.000 A 
ATOM     24  C   LIG    1       -1.270   4.026  -2.361  0.00  0.00    +0.000 A 
ATOM     25  C   LIG    1       -2.465   3.397  -2.656  0.00  0.00    +0.000 A 
ATOM     26  C   LIG    1       -2.927   2.376  -1.847  0.00  0.00    +0.000 A 
ATOM     27  C   LIG    1       -2.194   1.984  -0.743  0.00  0.00    +0.020 A 
ENDBRANCH  20  22
ENDBRANCH   4  20
TORSDOF 4
