REMARK  Name = ZINCb80000002kQA.0
REMARK                            x       y       z     vdW  Elec       q    Type
REMARK                         _______ _______ _______ _____ _____    ______ ____
ROOT
ATOM      1  C   LIG    1       -1.420   5.727  -0.601  0.00  0.00    +0.150 C 
ATOM      2  C   LIG    1       -0.114   5.049  -0.276  0.00  0.00    +0.060 A 
ATOM      3  N   LIG    1        0.977   5.757  -0.181  0.00  0.00    -0.220 NA
ATOM      4  N   LIG    1        2.116   5.233   0.093  0.00  0.00    -0.450 N 
ATOM      5  H   LIG    1        2.897   5.805   0.152  0.00  0.00    +0.440 HD
ATOM      6  C   LIG    1        2.255   3.910   0.298  0.00  0.00    +0.490 A 
ATOM      7  C   LIG    1        1.120   3.075   0.212  0.00  0.00    -0.170 A 
ATOM      8  O   LIG    1        3.350   3.437   0.557  0.00  0.00    -0.520 OA
ATOM      9  C   LIG    1       -0.079   3.658  -0.085  0.00  0.00    -0.020 A 
ATOM     10  C   LIG    1       -1.333   2.830  -0.201  0.00  0.00    +0.130 C 
ENDROOT
BRANCH   7  11
ATOM     11  C   LIG    1        1.229   1.588   0.435  0.00  0.00    +0.270 C 
BRANCH  11  12
ATOM     12  O   LIG    1        1.838   1.340   1.704  0.00  0.00    -0.560 OA
ATOM     13  H   LIG    1        1.940   0.402   1.914  0.00  0.00    +0.380 HD
ENDBRANCH  11  12
ENDBRANCH   7  11
TORSDOF 2
