REMARK  Name = ZINCtV000002ALcr.0
REMARK                            x       y       z     vdW  Elec       q    Type
REMARK                         _______ _______ _______ _____ _____    ______ ____
ROOT
ATOM      1  N   LIG    1       -2.437   1.325   0.021  0.00  0.00    -0.650 N 
ATOM      2  H   LIG    1       -2.463   0.416   0.361  0.00  0.00    +0.410 HD
ATOM      3  C   LIG    1       -3.559   1.896  -0.459  0.00  0.00    +0.560 C 
ATOM      4  O   LIG    1       -3.508   2.995  -0.977  0.00  0.00    -0.500 OA
ENDROOT
BRANCH   1  10
ATOM      5  C   LIG    1       -0.017   1.364   0.023  0.00  0.00    +0.100 A 
ATOM      6  C   LIG    1        1.170   2.078   0.026  0.00  0.00    -0.050 A 
ATOM      7  C   LIG    1        1.145   3.461   0.040  0.00  0.00    +0.040 A 
ATOM      8  C   LIG    1       -0.062   4.134   0.051  0.00  0.00    -0.080 A 
ATOM      9  C   LIG    1       -1.251   3.428   0.049  0.00  0.00    +0.060 A 
ATOM     10  C   LIG    1       -1.234   2.042   0.029  0.00  0.00    +0.120 A 
BRANCH   8  11
ATOM     11  C   LIG    1       -0.083   5.641   0.067  0.00  0.00    -0.020 C 
ATOM     12  C   LIG    1       -0.806   6.128   1.324  0.00  0.00    +0.040 C 
ATOM     13  C   LIG    1       -0.815   6.154  -1.174  0.00  0.00    +0.040 C 
ATOM     14  C   LIG    1        1.353   6.170   0.068  0.00  0.00    +0.030 C 
ENDBRANCH   8  11
BRANCH   5  16
ATOM     15  C   LIG    1        1.291  -0.623  -0.003  0.00  0.00    +0.250 C 
ATOM     16  O   LIG    1        0.007   0.004   0.009  0.00  0.00    -0.320 OA
ENDBRANCH   5  16
ENDBRANCH   1  10
BRANCH   3  17
ATOM     17  C   LIG    1       -4.852   1.188  -0.356  0.00  0.00    -0.130 A 
ATOM     18  C   LIG    1       -4.913  -0.077   0.233  0.00  0.00    +0.140 A 
ATOM     19  C   LIG    1       -6.124  -0.731   0.330  0.00  0.00    -0.190 A 
ATOM     20  C   LIG    1       -7.274  -0.141  -0.163  0.00  0.00    +0.170 A 
ATOM     21  C   LIG    1       -7.220   1.110  -0.753  0.00  0.00    -0.190 A 
ATOM     22  C   LIG    1       -6.016   1.777  -0.852  0.00  0.00    +0.190 A 
BRANCH  21  23
ATOM     23  C   LIG    1       -8.477   1.744  -1.289  0.00  0.00    +0.510 C 
ATOM     24  F   LIG    1       -9.400   1.900  -0.249  0.00  0.00    -0.170 F 
ATOM     25  F   LIG    1       -9.027   0.926  -2.281  0.00  0.00    -0.170 F 
ATOM     26  F   LIG    1       -8.172   2.997  -1.833  0.00  0.00    -0.170 F 
ENDBRANCH  21  23
BRANCH  19  27
ATOM     27  C   LIG    1       -6.194  -2.093   0.971  0.00  0.00    +0.510 C 
ATOM     28  F   LIG    1       -7.448  -2.265   1.565  0.00  0.00    -0.170 F 
ATOM     29  F   LIG    1       -5.197  -2.201   1.946  0.00  0.00    -0.170 F 
ATOM     30  F   LIG    1       -6.000  -3.077  -0.004  0.00  0.00    -0.170 F 
ENDBRANCH  19  27
ENDBRANCH   3  17
TORSDOF 6
