REMARK  Name = ZINCrH000004tOKy.0
REMARK                            x       y       z     vdW  Elec       q    Type
REMARK                         _______ _______ _______ _____ _____    ______ ____
ROOT
ATOM      1  O   LIG    1        1.026   1.964   0.003  0.00  0.00    -0.520 OA
ATOM      2  C   LIG    1       -0.016   1.344   0.009  0.00  0.00    +0.520 C 
ATOM      3  N   LIG    1        0.002  -0.004   0.002  0.00  0.00    -0.610 N 
ATOM      4  C   LIG    1       -1.184  -0.879   0.015  0.00  0.00    +0.250 C 
ATOM      5  C   LIG    1       -0.698  -2.212  -0.614  0.00  0.00    +0.040 C 
ATOM      6  C   LIG    1        0.742  -2.315  -0.044  0.00  0.00    +0.050 C 
ATOM      7  C   LIG    1        1.208  -0.845  -0.014  0.00  0.00    +0.270 C 
ENDROOT
BRANCH   7   8
ATOM      8  C   LIG    1        2.026  -0.591   1.226  0.00  0.00    -0.080 A 
ATOM      9  C   LIG    1        1.395  -0.420   2.444  0.00  0.00    +0.030 A 
ATOM     10  C   LIG    1        2.139  -0.187   3.587  0.00  0.00    +0.010 A 
ATOM     11  C   LIG    1        3.520  -0.126   3.507  0.00  0.00    +0.070 A 
ATOM     12  O   LIG    1        4.266   0.104   4.626  0.00  0.00    -0.320 OA
ATOM     13  C   LIG    1        5.069  -0.988   5.077  0.00  0.00    +0.230 C 
ATOM     14  C   LIG    1        6.396  -1.025   4.335  0.00  0.00    -0.020 C 
ATOM     15  C   LIG    1        6.222  -1.303   2.850  0.00  0.00    +0.230 C 
ATOM     16  O   LIG    1        5.515  -0.236   2.215  0.00  0.00    -0.320 OA
ATOM     17  C   LIG    1        4.153  -0.298   2.284  0.00  0.00    +0.070 A 
ATOM     18  C   LIG    1        3.406  -0.537   1.143  0.00  0.00    +0.030 A 
ENDBRANCH   7   8
BRANCH   2  19
ATOM     19  C   LIG    1       -1.331   2.079   0.020  0.00  0.00    +0.290 C 
BRANCH  19  20
ATOM     20  N   LIG    1       -1.083   3.523   0.026  0.00  0.00    -0.730 N 
ATOM     21  H   LIG    1       -0.173   3.859   0.024  0.00  0.00    +0.420 HD
BRANCH  20  22
ATOM     22  C   LIG    1       -2.158   4.417   0.036  0.00  0.00    +0.190 A 
ATOM     23  C   LIG    1       -3.461   3.939   0.040  0.00  0.00    -0.050 A 
ATOM     24  C   LIG    1       -4.522   4.825   0.050  0.00  0.00    +0.050 A 
ATOM     25  C   LIG    1       -4.287   6.187   0.057  0.00  0.00    -0.020 A 
ATOM     26  C   LIG    1       -2.990   6.669   0.053  0.00  0.00    +0.040 A 
ATOM     27  C   LIG    1       -1.925   5.789   0.049  0.00  0.00    +0.020 A 
ATOM     28  F   LIG    1       -0.658   6.259   0.051  0.00  0.00    -0.140 F 
ENDBRANCH  20  22
ENDBRANCH  19  20
ENDBRANCH   2  19
TORSDOF 4
