REMARK  Name = ZINCqH0000006Rq4.0
REMARK                            x       y       z     vdW  Elec       q    Type
REMARK                         _______ _______ _______ _____ _____    ______ ____
ROOT
ATOM      1  N   LIG    1       -1.239   2.074   0.019  0.00  0.00    -0.660 N 
ATOM      2  H   LIG    1       -2.072   1.581  -0.045  0.00  0.00    +0.420 HD
ATOM      3  C   LIG    1       -1.258   3.417   0.128  0.00  0.00    +0.520 C 
ATOM      4  O   LIG    1       -0.218   4.040   0.127  0.00  0.00    -0.500 OA
ENDROOT
BRANCH   1   7
ATOM      5  C   LIG    1        2.298   1.283  -0.632  0.00  0.00    +0.120 A 
ATOM      6  C   LIG    1        1.091   1.964  -0.608  0.00  0.00    +0.010 A 
ATOM      7  C   LIG    1       -0.016   1.389  -0.002  0.00  0.00    +0.160 A 
ATOM      8  C   LIG    1        0.087   0.129   0.582  0.00  0.00    +0.080 A 
ATOM      9  C   LIG    1        1.296  -0.548   0.555  0.00  0.00    +0.000 A 
ATOM     10  C   LIG    1        2.399   0.027  -0.050  0.00  0.00    -0.050 A 
ATOM     11 CL   LIG    1        3.911  -0.824  -0.082  0.00  0.00    -0.050 Cl
BRANCH   5  13
ATOM     12  C   LIG    1        3.208   3.140  -1.806  0.00  0.00    +0.240 C 
ATOM     13  O   LIG    1        3.384   1.845  -1.227  0.00  0.00    -0.300 OA
ENDBRANCH   5  13
BRANCH   8  14
ATOM     14  O   LIG    1       -0.997  -0.436   1.178  0.00  0.00    -0.310 OA
ATOM     15  C   LIG    1       -0.818  -1.731   1.756  0.00  0.00    +0.250 C 
ENDBRANCH   8  14
ENDBRANCH   1   7
BRANCH   3  16
ATOM     16  C   LIG    1       -2.572   4.144   0.252  0.00  0.00    +0.100 C 
BRANCH  16  17
ATOM     17  C   LIG    1       -2.314   5.649   0.360  0.00  0.00    +0.080 C 
ATOM     18  S   LIG    1       -1.575   6.254  -1.187  0.00  0.00    -0.040 S 
ATOM     19  C   LIG    1       -2.965   6.252  -2.274  0.00  0.00    -0.150 A 
ATOM     20  C   LIG    1       -2.784   6.035  -3.631  0.00  0.00    +0.080 A 
ATOM     21  C   LIG    1       -3.873   6.040  -4.482  0.00  0.00    +0.000 A 
ATOM     22  C   LIG    1       -5.141   6.262  -3.978  0.00  0.00    +0.050 A 
ATOM     23  C   LIG    1       -5.328   6.477  -2.626  0.00  0.00    -0.010 A 
ATOM     24  C   LIG    1       -4.242   6.470  -1.757  0.00  0.00    +0.160 A 
ATOM     25  N   LIG    1       -4.461   6.666  -0.397  0.00  0.00    -0.650 N 
ATOM     26  H   LIG    1       -5.312   7.056  -0.141  0.00  0.00    +0.420 HD
ATOM     27  C   LIG    1       -3.616   6.370   0.586  0.00  0.00    +0.530 C 
ATOM     28  O   LIG    1       -3.908   6.696   1.718  0.00  0.00    -0.500 OA
ENDBRANCH  16  17
ENDBRANCH   3  16
TORSDOF 5
