REMARK  Name = ZINCrH00000tj1oP.0
REMARK                            x       y       z     vdW  Elec       q    Type
REMARK                         _______ _______ _______ _____ _____    ______ ____
ROOT
ATOM      1  N   LIG    1       -1.167   3.527   0.032  0.00  0.00    -0.500 N 
ATOM      2  C   LIG    1       -0.004   4.200   0.025  0.00  0.00    +0.420 A 
ATOM      3  N   LIG    1        1.154   3.597   0.010  0.00  0.00    -0.580 NA
ATOM      4  C   LIG    1        1.230   2.254   0.002  0.00  0.00    +0.520 A 
ATOM      5  C   LIG    1       -0.018   1.479   0.010  0.00  0.00    -0.220 A 
ATOM      6  O   LIG    1        2.313   1.691  -0.011  0.00  0.00    -0.490 OA
ATOM      7  C   LIG    1       -0.037   5.707   0.034  0.00  0.00    +0.180 C 
ATOM      8  C   LIG    1       -1.198   2.168   0.019  0.00  0.00    +0.160 A 
ATOM      9  C   LIG    1       -2.513   1.432   0.021  0.00  0.00    +0.150 C 
ENDROOT
BRANCH   5  10
ATOM     10  C   LIG    1        0.002  -0.004   0.002  0.00  0.00    -0.020 A 
ATOM     11  C   LIG    1       -0.482  -0.716   1.098  0.00  0.00    +0.010 A 
ATOM     12  C   LIG    1       -0.465  -2.096   1.083  0.00  0.00    +0.000 A 
ATOM     13  C   LIG    1        0.041  -2.772  -0.013  0.00  0.00    +0.000 A 
ATOM     14  C   LIG    1        0.527  -2.071  -1.101  0.00  0.00    +0.000 A 
ATOM     15  C   LIG    1        0.511  -0.691  -1.099  0.00  0.00    +0.030 A 
ENDBRANCH   5  10
BRANCH   1  16
ATOM     16  C   LIG    1       -2.427   4.273   0.048  0.00  0.00    +0.290 C 
BRANCH  16  17
ATOM     17  C   LIG    1       -2.880   4.541  -1.389  0.00  0.00    +0.070 C 
BRANCH  17  21
ATOM     18  C   LIG    1       -6.563   6.714  -1.342  0.00  0.00    +0.100 A 
ATOM     19  C   LIG    1       -6.573   5.329  -1.350  0.00  0.00    -0.030 A 
ATOM     20  C   LIG    1       -5.380   4.629  -1.370  0.00  0.00    +0.020 A 
ATOM     21  C   LIG    1       -4.177   5.308  -1.372  0.00  0.00    -0.090 A 
ATOM     22  C   LIG    1       -4.160   6.691  -1.365  0.00  0.00    -0.030 A 
ATOM     23  C   LIG    1       -5.351   7.398  -1.350  0.00  0.00    +0.100 A 
BRANCH  18  25
ATOM     24  C   LIG    1       -8.940   6.635  -1.321  0.00  0.00    +0.250 C 
ATOM     25  O   LIG    1       -7.735   7.404  -1.328  0.00  0.00    -0.310 OA
ENDBRANCH  18  25
BRANCH  23  26
ATOM     26  O   LIG    1       -5.336   8.758  -1.342  0.00  0.00    -0.300 OA
ATOM     27  C   LIG    1       -4.056   9.393  -1.350  0.00  0.00    +0.240 C 
ENDBRANCH  23  26
ENDBRANCH  17  21
ENDBRANCH  16  17
ENDBRANCH   1  16
TORSDOF 6
