REMARK  Name = ZINCvU000000053Q.0
REMARK                            x       y       z     vdW  Elec       q    Type
REMARK                         _______ _______ _______ _____ _____    ______ ____
ROOT
ATOM      1  O   LIG    1        5.575   0.194  -1.172  0.00  0.00    -0.530 OA
ATOM      2  C   LIG    1        4.484  -0.326  -1.275  0.00  0.00    +0.530 C 
ATOM      3  N   LIG    1        3.962  -0.563  -2.495  0.00  0.00    -0.610 N 
ATOM      4  C   LIG    1        2.634  -1.202  -2.674  0.00  0.00    +0.290 C 
ATOM      5  C   LIG    1        1.717  -0.060  -3.120  0.00  0.00    +0.010 C 
ATOM      6  C   LIG    1        1.466  -0.117  -4.634  0.00  0.00    +0.210 C 
ATOM      7  N   LIG    1        2.786  -0.066  -5.308  0.00  0.00    -0.490 N 
ATOM      8  C   LIG    1        2.640   0.468  -6.597  0.00  0.00    +0.100 A 
ATOM      9  C   LIG    1        1.607   0.321  -7.519  0.00  0.00    -0.020 A 
ATOM     10  C   LIG    1        1.680   0.949  -8.746  0.00  0.00    +0.040 A 
ATOM     11  C   LIG    1        2.777   1.728  -9.066  0.00  0.00    -0.030 A 
ATOM     12  C   LIG    1        3.806   1.879  -8.154  0.00  0.00    +0.040 A 
ATOM     13  C   LIG    1        3.739   1.254  -6.928  0.00  0.00    -0.150 A 
ATOM     14  C   LIG    1        4.695   1.235  -5.750  0.00  0.00    +0.090 C 
ATOM     15  C   LIG    1        3.814   0.664  -4.611  0.00  0.00    +0.150 C 
ATOM     16  C   LIG    1        4.666  -0.215  -3.712  0.00  0.00    +0.300 C 
ENDROOT
BRANCH   2  17
ATOM     17  C   LIG    1        3.711  -0.707  -0.039  0.00  0.00    +0.050 C 
BRANCH  17  18
ATOM     18  C   LIG    1        2.396   0.029  -0.022  0.00  0.00    -0.070 A 
ATOM     19  C   LIG    1        1.208  -0.679  -0.013  0.00  0.00    +0.010 A 
ATOM     20  C   LIG    1        0.002  -0.004   0.002  0.00  0.00    +0.010 A 
ATOM     21  C   LIG    1       -0.017   1.378   0.010  0.00  0.00    +0.000 A 
ATOM     22  C   LIG    1        1.171   2.086   0.002  0.00  0.00    +0.010 A 
ATOM     23  C   LIG    1        2.377   1.411  -0.015  0.00  0.00    +0.010 A 
ENDBRANCH  17  18
BRANCH  17  24
ATOM     24  C   LIG    1        4.521  -0.333   1.204  0.00  0.00    +0.110 C 
BRANCH  24  25
ATOM     25  C   LIG    1        3.806  -0.824   2.437  0.00  0.00    -0.080 A 
ATOM     26  C   LIG    1        2.892  -0.007   3.076  0.00  0.00    +0.040 A 
ATOM     27  C   LIG    1        2.232  -0.459   4.204  0.00  0.00    +0.020 A 
ATOM     28  C   LIG    1        2.494  -1.724   4.698  0.00  0.00    -0.040 A 
ATOM     29  C   LIG    1        3.413  -2.538   4.061  0.00  0.00    +0.020 A 
ATOM     30 CL   LIG    1        1.671  -2.288   6.119  0.00  0.00    -0.070 Cl
ATOM     31  C   LIG    1        4.068  -2.088   2.930  0.00  0.00    +0.030 A 
ENDBRANCH  24  25
ENDBRANCH  17  24
ENDBRANCH   2  17
TORSDOF 4
