REMARK  Name = ZINCvU0000000Fy1.0
REMARK                            x       y       z     vdW  Elec       q    Type
REMARK                         _______ _______ _______ _____ _____    ______ ____
ROOT
ATOM      1  C   LIG    1        4.355  -0.426  -3.079  0.00  0.00    -0.170 A 
ATOM      2  C   LIG    1        3.503  -0.074  -4.127  0.00  0.00    +0.060 A 
ATOM      3  C   LIG    1        4.002   0.055  -5.405  0.00  0.00    -0.010 A 
ATOM      4  C   LIG    1        5.347  -0.162  -5.656  0.00  0.00    +0.060 A 
ATOM      5  C   LIG    1        6.202  -0.510  -4.630  0.00  0.00    +0.020 A 
ATOM      6  C   LIG    1        5.718  -0.639  -3.335  0.00  0.00    +0.210 A 
ENDROOT
BRANCH   1   9
ATOM      7  N   LIG    1        2.525  -0.322  -1.460  0.00  0.00    -0.720 N 
ATOM      8  H   LIG    1        1.935  -0.054  -2.182  0.00  0.00    +0.400 HD
ATOM      9  C   LIG    1        3.827  -0.566  -1.708  0.00  0.00    +0.570 C 
ATOM     10  O   LIG    1        4.566  -0.902  -0.803  0.00  0.00    -0.540 OA
BRANCH   7  11
ATOM     11  C   LIG    1        2.000  -0.461  -0.099  0.00  0.00    +0.320 C 
BRANCH  11  16
ATOM     12  C   LIG    1       -3.640   0.796  -0.073  0.00  0.00    +0.090 C 
ATOM     13  C   LIG    1       -2.169   0.468  -0.079  0.00  0.00    -0.070 A 
ATOM     14  C   LIG    1       -1.751  -0.830  -0.304  0.00  0.00    +0.000 A 
ATOM     15  C   LIG    1       -0.402  -1.132  -0.305  0.00  0.00    +0.020 A 
ATOM     16  C   LIG    1        0.529  -0.133  -0.092  0.00  0.00    -0.120 A 
ATOM     17  C   LIG    1        0.112   1.166   0.128  0.00  0.00    +0.020 A 
ATOM     18  C   LIG    1       -1.237   1.467   0.134  0.00  0.00    +0.000 A 
ENDBRANCH  11  16
ENDBRANCH   7  11
ENDBRANCH   1   9
BRANCH   6  19
ATOM     19  N   LIG    1        6.579  -0.984  -2.297  0.00  0.00    -0.660 N 
ATOM     20  H   LIG    1        6.517  -0.528  -1.443  0.00  0.00    +0.420 HD
ATOM     21  C   LIG    1        7.501  -1.951  -2.479  0.00  0.00    +0.570 C 
ATOM     22  O   LIG    1        7.646  -2.453  -3.576  0.00  0.00    -0.520 OA
BRANCH  21  23
ATOM     23  C   LIG    1        8.333  -2.399  -1.346  0.00  0.00    -0.160 A 
ATOM     24  C   LIG    1        8.171  -1.819  -0.085  0.00  0.00    +0.110 A 
ATOM     25  C   LIG    1        8.946  -2.245   0.971  0.00  0.00    -0.060 A 
ATOM     26  C   LIG    1        9.895  -3.242   0.781  0.00  0.00    +0.140 A 
ATOM     27  C   LIG    1       10.063  -3.818  -0.473  0.00  0.00    +0.020 A 
ATOM     28  C   LIG    1        9.289  -3.402  -1.532  0.00  0.00    +0.130 A 
BRANCH  26  29
ATOM     29  O   LIG    1       10.661  -3.654   1.823  0.00  0.00    -0.310 OA
BRANCH  29  30
ATOM     30  C   LIG    1       10.436  -3.021   3.084  0.00  0.00    +0.600 C 
ATOM     31  F   LIG    1       10.673  -1.647   2.964  0.00  0.00    -0.160 F 
ATOM     32  F   LIG    1       11.304  -3.562   4.039  0.00  0.00    -0.130 F 
ATOM     33  F   LIG    1        9.113  -3.233   3.483  0.00  0.00    -0.160 F 
ENDBRANCH  29  30
ENDBRANCH  26  29
ENDBRANCH  21  23
ENDBRANCH   6  19
TORSDOF 7
