REMARK  Name = ZINCkj000005jmmu.0
REMARK                            x       y       z     vdW  Elec       q    Type
REMARK                         _______ _______ _______ _____ _____    ______ ____
ROOT
ATOM      1  C   LIG    1       -0.484  10.389  -0.003  0.00  0.00    +0.090 C 
ATOM      2  C   LIG    1        1.019  10.506   0.257  0.00  0.00    +0.230 C 
ATOM      3  C   LIG    1        1.641  11.466  -0.756  0.00  0.00    +0.270 C 
ATOM      4  N   LIG    1        3.101  11.470  -0.596  0.00  0.00    -0.510 N 
ATOM      5  C   LIG    1        3.643  10.144  -0.919  0.00  0.00    +0.270 C 
ATOM      6  C   LIG    1        3.120   9.119   0.092  0.00  0.00    +0.310 C 
ATOM      7  H   LIG    1        3.504  12.157  -1.214  0.00  0.00    +0.440 HD
ATOM      8  H   LIG    1        3.332  11.703   0.358  0.00  0.00    +0.430 HD
ATOM      9  N   LIG    1        1.651   9.186   0.107  0.00  0.00    -0.630 N 
ATOM     10  C   LIG    1        0.905   8.071  -0.019  0.00  0.00    +0.570 C 
ATOM     11  O   LIG    1       -0.304   8.156  -0.110  0.00  0.00    -0.490 OA
ENDROOT
BRANCH  10  12
ATOM     12  C   LIG    1        1.557   6.744  -0.048  0.00  0.00    -0.120 A 
ATOM     13  C   LIG    1        2.725   6.523   0.683  0.00  0.00    +0.020 A 
ATOM     14  C   LIG    1        3.332   5.283   0.654  0.00  0.00    +0.060 A 
ATOM     15  C   LIG    1        2.784   4.257  -0.092  0.00  0.00    +0.040 A 
ATOM     16  C   LIG    1        1.623   4.470  -0.827  0.00  0.00    +0.150 A 
ATOM     17  C   LIG    1        1.006   5.710  -0.805  0.00  0.00    +0.070 A 
BRANCH  16  18
ATOM     18  N   LIG    1        1.074   3.426  -1.587  0.00  0.00    -0.420 N 
ATOM     19  C   LIG    1        1.571   2.154  -1.704  0.00  0.00    +0.120 A 
ATOM     20  C   LIG    1        0.738   1.484  -2.523  0.00  0.00    +0.170 A 
ATOM     21  N   LIG    1       -0.238   2.321  -2.904  0.00  0.00    -0.480 NA
ATOM     22  C   LIG    1       -0.052   3.486  -2.345  0.00  0.00    +0.400 A 
ENDBRANCH  16  18
ENDBRANCH  10  12
TORSDOF 2
