REMARK  Name = ZINCrD000000BRrb.0
REMARK                            x       y       z     vdW  Elec       q    Type
REMARK                         _______ _______ _______ _____ _____    ______ ____
ROOT
ATOM      1  O   LIG    1        4.757  -3.352  -4.383  0.00  0.00    -0.520 OA
ATOM      2  C   LIG    1        4.830  -2.184  -4.699  0.00  0.00    +0.530 C 
ATOM      3  N   LIG    1        5.375  -1.838  -5.882  0.00  0.00    -0.720 N 
ATOM      4  H   LIG    1        5.433  -0.903  -6.135  0.00  0.00    +0.400 HD
ENDROOT
BRANCH   3   5
ATOM      5  C   LIG    1        5.881  -2.874  -6.786  0.00  0.00    +0.290 C 
ATOM      6  C   LIG    1        5.857  -2.351  -8.224  0.00  0.00    +0.010 C 
ATOM      7  C   LIG    1        6.653  -3.324  -9.104  0.00  0.00    +0.260 C 
ATOM      8  O   LIG    1        8.018  -3.295  -8.683  0.00  0.00    -0.310 OA
ATOM      9  C   LIG    1        8.275  -3.426  -7.356  0.00  0.00    +0.140 A 
ATOM     10  C   LIG    1        9.567  -3.759  -6.960  0.00  0.00    -0.020 A 
ATOM     11  C   LIG    1        9.870  -3.892  -5.620  0.00  0.00    +0.050 A 
ATOM     12  C   LIG    1        8.888  -3.694  -4.667  0.00  0.00    -0.040 A 
ATOM     13  C   LIG    1        7.604  -3.365  -5.057  0.00  0.00    +0.060 A 
ATOM     14  C   LIG    1        7.294  -3.231  -6.399  0.00  0.00    -0.180 A 
ENDBRANCH   3   5
BRANCH   2  15
ATOM     15  C   LIG    1        4.310  -1.118  -3.769  0.00  0.00    +0.000 C 
ATOM     16  C   LIG    1        5.445  -0.163  -3.332  0.00  0.00    +0.070 C 
ATOM     17  C   LIG    1        5.127   0.155  -1.888  0.00  0.00    +0.520 C 
ATOM     18  N   LIG    1        4.241  -0.732  -1.403  0.00  0.00    -0.610 N 
ATOM     19  O   LIG    1        5.602   1.077  -1.258  0.00  0.00    -0.520 OA
ATOM     20  C   LIG    1        3.878  -1.730  -2.416  0.00  0.00    +0.290 C 
BRANCH  18  21
ATOM     21  C   LIG    1        3.711  -0.710  -0.038  0.00  0.00    +0.360 C 
BRANCH  21  22
ATOM     22  C   LIG    1        2.545   0.243   0.033  0.00  0.00    -0.100 A 
ATOM     23  C   LIG    1        2.734   1.534   0.488  0.00  0.00    +0.060 A 
ATOM     24  C   LIG    1        1.665   2.408   0.553  0.00  0.00    +0.010 A 
ATOM     25  C   LIG    1        0.406   1.991   0.163  0.00  0.00    +0.030 A 
ATOM     26  C   LIG    1        0.216   0.700  -0.293  0.00  0.00    +0.020 A 
ATOM     27  C   LIG    1        1.285  -0.175  -0.357  0.00  0.00    -0.020 A 
ATOM     28 CL   LIG    1        1.047  -1.797  -0.929  0.00  0.00    -0.060 Cl
ENDBRANCH  21  22
ENDBRANCH  18  21
ENDBRANCH   2  15
TORSDOF 4
