REMARK  Name = ZINCqH00000390o6.1
REMARK                            x       y       z     vdW  Elec       q    Type
REMARK                         _______ _______ _______ _____ _____    ______ ____
ROOT
ATOM      1  C   LIG    1       -2.391   4.070  -4.527  0.00  0.00    +0.220 A 
ATOM      2  C   LIG    1       -3.756   3.776  -4.470  0.00  0.00    -0.080 A 
ATOM      3  C   LIG    1       -4.238   3.115  -3.354  0.00  0.00    +0.330 A 
ATOM      4  N   LIG    1       -3.398   2.786  -2.385  0.00  0.00    -0.510 NA
ATOM      5  C   LIG    1       -2.115   3.077  -2.469  0.00  0.00    +0.340 A 
ATOM      6  N   LIG    1       -1.612   3.709  -3.509  0.00  0.00    -0.520 NA
ENDROOT
BRANCH   1  11
ATOM      7  F   LIG    1       -0.236   6.740  -8.956  0.00  0.00    -0.130 F 
ATOM      8  C   LIG    1       -0.755   6.096  -7.888  0.00  0.00    +0.120 A 
ATOM      9  C   LIG    1       -2.125   5.903  -7.797  0.00  0.00    -0.020 A 
ATOM     10  C   LIG    1       -2.660   5.247  -6.708  0.00  0.00    +0.080 A 
ATOM     11  C   LIG    1       -1.821   4.776  -5.699  0.00  0.00    -0.070 A 
ATOM     12  C   LIG    1       -0.444   4.977  -5.792  0.00  0.00    +0.110 A 
ATOM     13  C   LIG    1        0.083   5.630  -6.887  0.00  0.00    -0.020 A 
ENDBRANCH   1  11
BRANCH   5  14
ATOM     14  C   LIG    1       -1.199   2.682  -1.340  0.00  0.00    +0.070 C 
ATOM     15  C   LIG    1       -1.235   1.161  -1.161  0.00  0.00    +0.060 C 
ATOM     16  C   LIG    1       -0.350   0.771   0.026  0.00  0.00    +0.170 C 
ATOM     17  N   LIG    1       -0.838   1.437   1.241  0.00  0.00    -0.530 NA
ATOM     18  C   LIG    1       -0.768   2.898   1.110  0.00  0.00    +0.160 C 
ATOM     19  C   LIG    1       -1.665   3.351  -0.044  0.00  0.00    +0.050 C 
BRANCH  17  20
ATOM     20  C   LIG    1       -0.099   0.979   2.425  0.00  0.00    +0.200 C 
BRANCH  20  21
ATOM     21  C   LIG    1       -0.571   1.758   3.654  0.00  0.00    +0.180 C 
BRANCH  21  22
ATOM     22  O   LIG    1       -1.957   1.495   3.881  0.00  0.00    -0.360 OA
BRANCH  22  23
ATOM     23  C   LIG    1       -2.501   2.178   5.013  0.00  0.00    +0.170 C 
BRANCH  23  24
ATOM     24  C   LIG    1       -3.982   1.824   5.159  0.00  0.00    +0.390 C 
ATOM     25  F   LIG    1       -4.116   0.443   5.340  0.00  0.00    -0.200 F 
ATOM     26  F   LIG    1       -4.671   2.212   4.005  0.00  0.00    -0.200 F 
ENDBRANCH  23  24
ENDBRANCH  22  23
ENDBRANCH  21  22
ENDBRANCH  20  21
ENDBRANCH  17  20
ENDBRANCH   5  14
TORSDOF 7
