REMARK  Name = ZINCrD00000F5LFr.0
REMARK                            x       y       z     vdW  Elec       q    Type
REMARK                         _______ _______ _______ _____ _____    ______ ____
ROOT
ATOM      1  C   LIG    1        1.029   3.466   0.011  0.00  0.00    +0.160 A 
ATOM      2  C   LIG    1       -0.188   4.150   0.020  0.00  0.00    +0.040 A 
ATOM      3  C   LIG    1       -0.199   5.530   0.033  0.00  0.00    +0.200 A 
ATOM      4  C   LIG    1        0.991   6.235   0.026  0.00  0.00    -0.670 A 
ATOM      5  C   LIG    1        2.201   5.562   0.011  0.00  0.00    +0.220 A 
ATOM      6  C   LIG    1        2.227   4.183   0.003  0.00  0.00    -0.020 A 
ENDROOT
BRANCH   4   7
ATOM      7  S   LIG    1        0.968   7.996   0.036  0.00  0.00    +2.710 S 
ATOM      8  O   LIG    1        2.217   8.412   0.571  0.00  0.00    -0.940 OA
ATOM      9  O   LIG    1       -0.282   8.378   0.594  0.00  0.00    -0.950 OA
BRANCH   7  10
ATOM     10  N   LIG    1        0.946   8.495  -1.543  0.00  0.00    -1.240 NA
ATOM     11  H   LIG    1        1.367   7.953  -2.229  0.00  0.00    +0.420 HD
ATOM     12  H   LIG    1        0.512   9.329  -1.782  0.00  0.00    +0.430 HD
ENDBRANCH   7  10
ENDBRANCH   4   7
BRANCH   6  13
ATOM     13  N   LIG    1        3.521   3.466  -0.013  0.00  0.00    +0.020 N 
ATOM     14  O   LIG    1        3.542   2.248  -0.019  0.00  0.00    -0.100 OA
ATOM     15  O   LIG    1        4.565   4.093  -0.019  0.00  0.00    -0.170 OA
ENDBRANCH   6  13
BRANCH   1  17
ATOM     16  N   LIG    1       -0.018   1.461   0.010  0.00  0.00    -0.180 NA
ATOM     17  N   LIG    1        1.048   2.095   0.003  0.00  0.00    -0.190 NA
BRANCH  16  19
ATOM     18  C   LIG    1        0.606  -0.499  -1.314  0.00  0.00    +0.070 C 
ATOM     19  C   LIG    1        0.002  -0.004   0.002  0.00  0.00    +0.210 C 
BRANCH  19  20
ATOM     20  C   LIG    1       -1.405  -0.526   0.137  0.00  0.00    -0.080 A 
ATOM     21  C   LIG    1       -2.442   0.101  -0.529  0.00  0.00    +0.030 A 
ATOM     22  C   LIG    1       -3.732  -0.381  -0.409  0.00  0.00    +0.010 A 
ATOM     23  C   LIG    1       -3.987  -1.484   0.384  0.00  0.00    -0.060 A 
ATOM     24  C   LIG    1       -2.951  -2.108   1.054  0.00  0.00    +0.010 A 
ATOM     25  C   LIG    1       -1.660  -1.629   0.930  0.00  0.00    +0.020 A 
BRANCH  23  26
ATOM     26  C   LIG    1       -5.394  -2.006   0.519  0.00  0.00    -0.030 C 
ATOM     27  C   LIG    1       -5.452  -3.452   0.023  0.00  0.00    +0.040 C 
ATOM     28  C   LIG    1       -6.341  -1.142  -0.317  0.00  0.00    +0.030 C 
ATOM     29  C   LIG    1       -5.819  -1.953   1.988  0.00  0.00    +0.040 C 
ENDBRANCH  23  26
ENDBRANCH  19  20
ENDBRANCH  16  19
ENDBRANCH   1  17
TORSDOF 7
