REMARK  Name = ZINCrH000004pDnv.0
REMARK                            x       y       z     vdW  Elec       q    Type
REMARK                         _______ _______ _______ _____ _____    ______ ____
ROOT
ATOM      1  C   LIG    1       -1.456   3.519   0.020  0.00  0.00    +0.180 A 
ATOM      2  N   LIG    1       -2.374   2.955  -0.715  0.00  0.00    -0.250 NA
ATOM      3  N   LIG    1       -2.605   3.686  -1.749  0.00  0.00    -0.250 NA
ATOM      4  C   LIG    1       -1.831   4.745  -1.713  0.00  0.00    +0.190 A 
ATOM      5  O   LIG    1       -1.088   4.658  -0.591  0.00  0.00    -0.220 OA
ENDROOT
BRANCH   4   6
ATOM      6  C   LIG    1       -1.782   5.830  -2.716  0.00  0.00    +0.030 A 
ATOM      7  C   LIG    1       -0.907   6.904  -2.544  0.00  0.00    +0.070 A 
ATOM      8  C   LIG    1       -0.863   7.910  -3.486  0.00  0.00    +0.120 A 
ATOM      9  C   LIG    1       -1.690   7.862  -4.594  0.00  0.00    -0.030 A 
ATOM     10  C   LIG    1       -2.563   6.803  -4.768  0.00  0.00    +0.120 A 
ATOM     11  C   LIG    1       -2.614   5.787  -3.835  0.00  0.00    +0.100 A 
BRANCH   9  12
ATOM     12  N   LIG    1       -1.641   8.948  -5.599  0.00  0.00    +0.020 N 
ATOM     13  O   LIG    1       -0.873   9.882  -5.449  0.00  0.00    -0.150 OA
ATOM     14  O   LIG    1       -2.368   8.908  -6.575  0.00  0.00    -0.150 OA
ENDBRANCH   9  12
ENDBRANCH   4   6
BRANCH   1  16
ATOM     15  C   LIG    1       -1.925   3.205   2.435  0.00  0.00    +0.080 C 
ATOM     16  C   LIG    1       -0.903   2.986   1.317  0.00  0.00    +0.260 C 
BRANCH  16  17
ATOM     17  N   LIG    1       -0.629   1.550   1.179  0.00  0.00    -0.520 NA
ATOM     18  C   LIG    1        0.278   1.293   0.051  0.00  0.00    +0.200 C 
BRANCH  17  19
ATOM     19  C   LIG    1       -0.087   0.995   2.426  0.00  0.00    +0.220 C 
BRANCH  19  20
ATOM     20  C   LIG    1       -0.286  -0.522   2.438  0.00  0.00    +0.210 C 
BRANCH  20  21
ATOM     21  O   LIG    1        0.519  -1.116   1.419  0.00  0.00    -0.310 OA
BRANCH  21  22
ATOM     22  C   LIG    1        0.459  -2.468   1.294  0.00  0.00    +0.130 A 
ATOM     23  C   LIG    1       -0.354  -3.208   2.139  0.00  0.00    -0.080 A 
ATOM     24  C   LIG    1       -0.418  -4.582   2.007  0.00  0.00    +0.040 A 
ATOM     25  C   LIG    1        0.336  -5.220   1.040  0.00  0.00    -0.040 A 
ATOM     26  C   LIG    1        1.152  -4.485   0.199  0.00  0.00    +0.050 A 
ATOM     27  C   LIG    1        1.215  -3.111   0.324  0.00  0.00    -0.020 A 
ENDBRANCH  21  22
ENDBRANCH  20  21
ENDBRANCH  19  20
ENDBRANCH  17  19
ENDBRANCH  16  17
ENDBRANCH   1  16
TORSDOF 8
