REMARK  Name = ZINCrg000000rwk2.0
REMARK                            x       y       z     vdW  Elec       q    Type
REMARK                         _______ _______ _______ _____ _____    ______ ____
ROOT
ATOM      1  C   LIG    1       -7.747  -3.225   2.403  0.00  0.00    -0.090 A 
ATOM      2  C   LIG    1       -6.910  -3.549   1.351  0.00  0.00    +0.040 A 
ATOM      3  C   LIG    1       -5.575  -3.194   1.396  0.00  0.00    +0.040 A 
ATOM      4  C   LIG    1       -5.076  -2.515   2.493  0.00  0.00    -0.100 A 
ATOM      5  C   LIG    1       -5.912  -2.197   3.547  0.00  0.00    +0.030 A 
ATOM      6  C   LIG    1       -7.248  -2.546   3.499  0.00  0.00    +0.030 A 
ENDROOT
BRANCH   1   8
ATOM      7  C   LIG    1       -9.872  -3.026   1.110  0.00  0.00    +0.090 C 
ATOM      8  C   LIG    1       -9.202  -3.612   2.354  0.00  0.00    +0.170 C 
ATOM      9  N   LIG    1       -9.898  -3.168   3.575  0.00  0.00    -0.720 N 
ATOM     10  H   LIG    1      -10.002  -2.254   3.883  0.00  0.00    +0.440 HD
ATOM     11  C   LIG    1      -10.360  -4.278   4.179  0.00  0.00    +0.710 C 
ATOM     12  N   LIG    1      -10.053  -5.392   3.506  0.00  0.00    -0.680 N 
ATOM     13  H   LIG    1      -10.302  -6.286   3.789  0.00  0.00    +0.440 HD
ATOM     14  O   LIG    1      -10.986  -4.269   5.221  0.00  0.00    -0.540 OA
ATOM     15  C   LIG    1       -9.355  -5.120   2.386  0.00  0.00    +0.540 C 
ATOM     16  O   LIG    1       -8.936  -5.915   1.572  0.00  0.00    -0.450 OA
ENDBRANCH   1   8
BRANCH   4  17
ATOM     17  C   LIG    1       -3.620  -2.129   2.541  0.00  0.00    +0.340 C 
BRANCH  17  18
ATOM     18  N   LIG    1       -3.448  -0.800   1.949  0.00  0.00    -0.740 N 
ATOM     19  H   LIG    1       -4.216  -0.320   1.603  0.00  0.00    +0.400 HD
ATOM     20  C   LIG    1       -2.221  -0.246   1.883  0.00  0.00    +0.700 C 
ATOM     21  N   LIG    1       -2.062   0.977   1.338  0.00  0.00    -0.730 N 
ATOM     22  H   LIG    1       -2.831   1.457   0.993  0.00  0.00    +0.400 HD
ATOM     23  O   LIG    1       -1.258  -0.848   2.316  0.00  0.00    -0.590 OA
BRANCH  21  24
ATOM     24  CA  LIG    1       -0.729   1.579   1.267  0.00  0.00    +0.280 C 
BRANCH  24  25
ATOM     25  C   LIG    1       -0.860   3.103   1.215  0.00  0.00    +0.000 C 
ATOM     26  C   LIG    1        0.539   3.753   1.193  0.00  0.00    +0.020 C 
ATOM     27  C   LIG    1        0.378   5.029   2.057  0.00  0.00    +0.010 C 
ATOM     28  C   LIG    1       -0.568   4.558   3.190  0.00  0.00    +0.000 C 
ATOM     29  C   LIG    1       -1.564   3.615   2.484  0.00  0.00    +0.010 C 
ENDBRANCH  24  25
BRANCH  24  30
ATOM     30  C   LIG    1       -0.013   1.086   0.008  0.00  0.00    +0.170 C 
BRANCH  30  31
ATOM     31  O   LIG    1       -0.704   1.559  -1.150  0.00  0.00    -0.570 OA
ATOM     32  H   LIG    1       -0.304   1.284  -1.986  0.00  0.00    +0.380 HD
ENDBRANCH  30  31
ENDBRANCH  24  30
ENDBRANCH  21  24
ENDBRANCH  17  18
ENDBRANCH   4  17
TORSDOF 7
