REMARK  Name = ZINCrD00000F5LDP.0
REMARK                            x       y       z     vdW  Elec       q    Type
REMARK                         _______ _______ _______ _____ _____    ______ ____
ROOT
ATOM      1  C   LIG    1        3.425   7.737  -0.397  0.00  0.00    +0.630 C 
ATOM      2  N   LIG    1        2.154   7.296  -0.313  0.00  0.00    -0.580 N 
ATOM      3  H   LIG    1        1.423   7.931  -0.265  0.00  0.00    +0.380 HD
ATOM      4  O   LIG    1        4.344   6.940  -0.458  0.00  0.00    -0.520 OA
ENDROOT
BRANCH   1  12
ATOM      5  C   LIG    1        4.236  15.310  -0.458  0.00  0.00    +0.140 C 
ATOM      6  C   LIG    1        4.498  13.826  -0.474  0.00  0.00    +0.190 A 
ATOM      7  C   LIG    1        5.804  13.365  -0.559  0.00  0.00    -0.040 A 
ATOM      8  C   LIG    1        6.044  12.010  -0.573  0.00  0.00    +0.020 A 
ATOM      9  C   LIG    1        4.945  11.124  -0.500  0.00  0.00    -0.180 A 
ATOM     10  C   LIG    1        3.657  11.666  -0.416  0.00  0.00    +0.110 A 
ATOM     11  S   LIG    1        2.463  10.375  -0.343  0.00  0.00    +0.160 S 
ATOM     12  C   LIG    1        3.692   9.129  -0.415  0.00  0.00    -0.370 A 
ATOM     13  C   LIG    1        4.933   9.671  -0.497  0.00  0.00    +0.320 A 
ATOM     14  C   LIG    1        7.452  11.480  -0.664  0.00  0.00    +0.120 C 
ATOM     15  N   LIG    1        3.488  12.991  -0.406  0.00  0.00    -0.470 NA
BRANCH  13  16
ATOM     16  N   LIG    1        6.088   8.906  -0.573  0.00  0.00    -0.830 N 
ATOM     17  H   LIG    1        6.084   7.989  -0.256  0.00  0.00    +0.420 HD
ATOM     18  H   LIG    1        6.900   9.288  -0.942  0.00  0.00    +0.400 HD
ENDBRANCH  13  16
ENDBRANCH   1  12
BRANCH   2  19
ATOM     19  N   LIG    1        1.890   5.920  -0.295  0.00  0.00    -0.220 NA
ATOM     20  C   LIG    1        0.666   5.495  -0.214  0.00  0.00    +0.140 C 
ATOM     21  C   LIG    1       -0.470   6.482  -0.140  0.00  0.00    +0.090 C 
BRANCH  20  22
ATOM     22  C   LIG    1        0.388   4.047  -0.196  0.00  0.00    -0.040 A 
ATOM     23  C   LIG    1       -0.928   3.588  -0.109  0.00  0.00    +0.070 A 
ATOM     24  C   LIG    1       -1.186   2.233  -0.098  0.00  0.00    +0.040 A 
ATOM     25  C   LIG    1       -0.141   1.323  -0.161  0.00  0.00    +0.050 A 
ATOM     26  O   LIG    1       -0.133  -0.042  -0.161  0.00  0.00    -0.310 OA
ATOM     27  C   LIG    1        1.218  -0.419   0.165  0.00  0.00    +0.430 C 
ATOM     28  O   LIG    1        2.006   0.692  -0.301  0.00  0.00    -0.310 OA
ATOM     29  C   LIG    1        1.176   1.775  -0.247  0.00  0.00    +0.030 A 
ATOM     30  C   LIG    1        1.441   3.131  -0.265  0.00  0.00    +0.090 A 
ENDBRANCH  20  22
ENDBRANCH   2  19
TORSDOF 4
