REMARK  Name = ZINCvU00000003O6.0
REMARK                            x       y       z     vdW  Elec       q    Type
REMARK                         _______ _______ _______ _____ _____    ______ ____
ROOT
ATOM      1  N   LIG    1       -3.750   5.613  -2.372  0.00  0.00    -0.740 N 
ATOM      2  H   LIG    1       -3.832   4.820  -2.924  0.00  0.00    +0.390 HD
ATOM      3  C   LIG    1       -3.378   5.500  -1.081  0.00  0.00    +0.710 C 
ATOM      4  N   LIG    1       -3.021   4.299  -0.585  0.00  0.00    -0.630 N 
ATOM      5  C   LIG    1       -2.509   4.178   0.786  0.00  0.00    +0.310 C 
ATOM      6  C   LIG    1       -1.161   3.450   0.747  0.00  0.00    +0.050 C 
ATOM      7  C   LIG    1       -1.329   2.115   0.018  0.00  0.00    +0.180 C 
ATOM      8  C   LIG    1       -1.782   2.371  -1.421  0.00  0.00    +0.000 C 
ATOM      9  C   LIG    1       -3.136   3.086  -1.406  0.00  0.00    +0.280 C 
ATOM     10  O   LIG    1       -3.365   6.483  -0.364  0.00  0.00    -0.580 OA
ENDROOT
BRANCH   7  11
ATOM     11  C   LIG    1       -0.013   1.381   0.007  0.00  0.00    -0.080 A 
ATOM     12  C   LIG    1        0.007  -0.001  -0.000  0.00  0.00    +0.010 A 
ATOM     13  C   LIG    1        1.214  -0.676  -0.016  0.00  0.00    +0.060 A 
ATOM     14  C   LIG    1        2.401   0.030  -0.024  0.00  0.00    -0.010 A 
ATOM     15  C   LIG    1        2.383   1.415  -0.016  0.00  0.00    +0.100 A 
ATOM     16  F   LIG    1        3.543   2.107  -0.024  0.00  0.00    -0.140 F 
ATOM     17  C   LIG    1        1.174   2.090  -0.001  0.00  0.00    -0.010 A 
ENDBRANCH   7  11
BRANCH   7  18
ATOM     18  O   LIG    1       -2.309   1.324   0.693  0.00  0.00    -0.540 OA
ATOM     19  H   LIG    1       -2.467   0.462   0.285  0.00  0.00    +0.380 HD
ENDBRANCH   7  18
BRANCH   1  20
ATOM     20  C   LIG    1       -4.031   6.934  -2.941  0.00  0.00    +0.310 C 
BRANCH  20  21
ATOM     21  C   LIG    1       -3.819   6.894  -4.432  0.00  0.00    -0.050 A 
ATOM     22  C   LIG    1       -4.221   5.788  -5.158  0.00  0.00    +0.010 A 
ATOM     23  C   LIG    1       -4.031   5.753  -6.527  0.00  0.00    +0.070 A 
ATOM     24  C   LIG    1       -3.430   6.820  -7.168  0.00  0.00    -0.180 A 
ATOM     25  C   LIG    1       -3.023   7.923  -6.442  0.00  0.00    +0.080 A 
ATOM     26  C   LIG    1       -3.218   7.960  -5.074  0.00  0.00    +0.030 A 
BRANCH  24  27
ATOM     27  C   LIG    1       -3.218   6.780  -8.660  0.00  0.00    +0.510 C 
ATOM     28  F   LIG    1       -3.263   8.081  -9.172  0.00  0.00    -0.180 F 
ATOM     29  F   LIG    1       -4.225   6.011  -9.253  0.00  0.00    -0.180 F 
ATOM     30  F   LIG    1       -1.971   6.211  -8.938  0.00  0.00    -0.180 F 
ENDBRANCH  24  27
ENDBRANCH  20  21
BRANCH  20  32
ATOM     31  C   LIG    1       -5.775   8.699  -3.236  0.00  0.00    +0.030 C 
ATOM     32  C   LIG    1       -5.481   7.319  -2.642  0.00  0.00    -0.010 C 
ATOM     33  C   LIG    1       -6.423   6.286  -3.263  0.00  0.00    +0.020 C 
ENDBRANCH  20  32
ENDBRANCH   1  20
TORSDOF 6
