REMARK  Name = ZINCpe000000WY7T.0
REMARK                            x       y       z     vdW  Elec       q    Type
REMARK                         _______ _______ _______ _____ _____    ______ ____
ROOT
ATOM      1  C   LIG    1        1.703  -0.065  -3.659  0.00  0.00    +0.210 C 
ENDROOT
BRANCH   1  12
ATOM      2  C   LIG    1       -4.344   0.966  -2.478  0.00  0.00    +0.020 C 
ATOM      3  C   LIG    1       -2.902   1.479  -2.494  0.00  0.00    -0.020 C 
ATOM      4  C   LIG    1       -2.170   0.908  -3.712  0.00  0.00    +0.020 C 
ATOM      5  C   LIG    1       -0.732   1.433  -3.742  0.00  0.00    +0.260 C 
ATOM      6  N   LIG    1       -0.087   1.143  -2.452  0.00  0.00    -0.610 N 
ATOM      7  C   LIG    1       -0.758   1.589  -1.227  0.00  0.00    +0.220 C 
ATOM      8  C   LIG    1       -0.018   1.077   0.008  0.00  0.00    +0.050 C 
ATOM      9  C   LIG    1       -0.741   1.568   1.265  0.00  0.00    -0.010 C 
ATOM     10  C   LIG    1       -2.182   1.050   1.269  0.00  0.00    +0.000 C 
ATOM     11  C   LIG    1       -2.917   1.542   0.019  0.00  0.00    +0.020 C 
ATOM     12  C   LIG    1        1.089   0.487  -2.398  0.00  0.00    +0.520 C 
ATOM     13  O   LIG    1        1.653   0.341  -1.334  0.00  0.00    -0.510 OA
ATOM     14  C   LIG    1       -2.185   1.032  -1.222  0.00  0.00    -0.020 C 
ENDBRANCH   1  12
BRANCH   1  15
ATOM     15  N   LIG    1        2.972  -0.730  -3.335  0.00  0.00    -0.470 NA
ATOM     16  C   LIG    1        4.040   0.262  -3.074  0.00  0.00    +0.280 C 
ATOM     17  C   LIG    1        5.314  -0.368  -3.589  0.00  0.00    +0.180 A 
ATOM     18  C   LIG    1        4.991  -1.385  -4.417  0.00  0.00    -0.280 A 
ATOM     19  C   LIG    1        6.024  -2.134  -5.028  0.00  0.00    +0.570 A 
ATOM     20  N   LIG    1        7.309  -1.818  -4.772  0.00  0.00    -0.650 N 
ATOM     21  H   LIG    1        8.024  -2.326  -5.187  0.00  0.00    +0.440 HD
ATOM     22  C   LIG    1        7.604  -0.799  -3.943  0.00  0.00    +0.710 A 
ATOM     23  O   LIG    1        8.768  -0.525  -3.722  0.00  0.00    -0.530 OA
ATOM     24  O   LIG    1        5.754  -3.055  -5.778  0.00  0.00    -0.510 OA
ATOM     25  N   LIG    1        6.631  -0.080  -3.356  0.00  0.00    -0.620 N 
ATOM     26  H   LIG    1        6.865   0.650  -2.761  0.00  0.00    +0.440 HD
ATOM     27  C   LIG    1        3.486  -1.489  -4.499  0.00  0.00    +0.280 C 
ENDBRANCH   1  15
TORSDOF 2
