REMARK  Name = ZINCrD00000hQ6rx.0
REMARK                            x       y       z     vdW  Elec       q    Type
REMARK                         _______ _______ _______ _____ _____    ______ ____
ROOT
ATOM      1  N   LIG    1       -0.020   1.094   2.454  0.00  0.00    -0.390 N 
ATOM      2  C   LIG    1        0.990   1.725   3.111  0.00  0.00    +0.260 A 
ATOM      3  N   LIG    1        1.377   0.985   4.131  0.00  0.00    -0.490 NA
ATOM      4  C   LIG    1        0.654  -0.134   4.183  0.00  0.00    +0.330 A 
ATOM      5  N   LIG    1        0.646  -1.229   5.032  0.00  0.00    -0.510 N 
ATOM      6  C   LIG    1        1.587  -1.293   6.153  0.00  0.00    +0.340 C 
ATOM      7  C   LIG    1       -0.236  -2.228   4.837  0.00  0.00    +0.710 A 
ATOM      8  O   LIG    1       -0.232  -3.179   5.594  0.00  0.00    -0.530 OA
ATOM      9  N   LIG    1       -1.115  -2.203   3.820  0.00  0.00    -0.650 N 
ATOM     10  H   LIG    1       -1.732  -2.942   3.704  0.00  0.00    +0.440 HD
ATOM     11  C   LIG    1       -1.151  -1.165   2.958  0.00  0.00    +0.600 A 
ATOM     12  O   LIG    1       -1.953  -1.155   2.041  0.00  0.00    -0.510 OA
ATOM     13  C   LIG    1       -0.254  -0.097   3.130  0.00  0.00    -0.150 A 
ENDROOT
BRANCH   1  14
ATOM     14  C   LIG    1       -0.729   1.579   1.267  0.00  0.00    +0.310 C 
BRANCH  14  15
ATOM     15  C   LIG    1       -0.013   1.086   0.008  0.00  0.00    +0.010 C 
BRANCH  15  16
ATOM     16  C   LIG    1       -0.753   1.593  -1.232  0.00  0.00    +0.020 C 
BRANCH  16  17
ATOM     17  C   LIG    1       -0.037   1.099  -2.490  0.00  0.00    +0.000 C 
BRANCH  17  19
ATOM     18  C   LIG    1       -0.060   1.113  -4.989  0.00  0.00    +0.000 C 
ATOM     19  C   LIG    1       -0.777   1.606  -3.730  0.00  0.00    -0.010 C 
ENDBRANCH  17  19
ENDBRANCH  16  17
ENDBRANCH  15  16
ENDBRANCH  14  15
ENDBRANCH   1  14
BRANCH   2  20
ATOM     20  S   LIG    1        1.674   3.287   2.668  0.00  0.00    +0.020 S 
BRANCH  20  21
ATOM     21  C   LIG    1        2.928   3.459   3.961  0.00  0.00    +0.100 C 
BRANCH  21  22
ATOM     22  C   LIG    1        3.674   4.783   3.776  0.00  0.00    +0.110 C 
BRANCH  22  23
ATOM     23  C   LIG    1        4.718   4.926   4.853  0.00  0.00    -0.080 A 
ATOM     24  C   LIG    1        4.399   5.545   6.047  0.00  0.00    +0.010 A 
ATOM     25  C   LIG    1        5.356   5.672   7.037  0.00  0.00    +0.000 A 
ATOM     26  C   LIG    1        6.635   5.189   6.828  0.00  0.00    +0.000 A 
ATOM     27  C   LIG    1        6.955   4.574   5.632  0.00  0.00    +0.000 A 
ATOM     28  C   LIG    1        5.997   4.443   4.644  0.00  0.00    +0.010 A 
ENDBRANCH  22  23
ENDBRANCH  21  22
ENDBRANCH  20  21
ENDBRANCH   2  20
TORSDOF 9
