REMARK  Name = ZINCrD000000BqBX.0
REMARK                            x       y       z     vdW  Elec       q    Type
REMARK                         _______ _______ _______ _____ _____    ______ ____
ROOT
ATOM      1  O   LIG    1       -0.052  -2.612   0.696  0.00  0.00    -0.580 OA
ATOM      2  C   LIG    1        0.042  -1.826   1.619  0.00  0.00    +0.710 C 
ATOM      3  N   LIG    1        0.162  -2.281   2.882  0.00  0.00    -0.630 N 
ATOM      4  C   LIG    1        0.168  -1.348   4.017  0.00  0.00    +0.270 C 
ATOM      5  C   LIG    1       -0.910  -1.791   5.019  0.00  0.00    +0.000 C 
ATOM      6  C   LIG    1       -0.669  -3.252   5.406  0.00  0.00    +0.150 C 
ATOM      7  C   LIG    1       -0.778  -4.135   4.161  0.00  0.00    +0.030 C 
ATOM      8  C   LIG    1        0.296  -3.720   3.150  0.00  0.00    +0.300 C 
ATOM      9  N   LIG    1        0.026  -0.500   1.380  0.00  0.00    -0.740 N 
ATOM     10  H   LIG    1        0.028   0.127   2.120  0.00  0.00    +0.400 HD
ENDROOT
BRANCH   6  11
ATOM     11  O   LIG    1       -1.649  -3.658   6.364  0.00  0.00    -0.370 OA
BRANCH  11  12
ATOM     12  C   LIG    1       -1.260  -3.436   7.721  0.00  0.00    +0.220 C 
BRANCH  12  13
ATOM     13  C   LIG    1       -2.361  -3.898   8.641  0.00  0.00    -0.090 A 
ATOM     14  C   LIG    1       -3.353  -3.016   9.029  0.00  0.00    +0.020 A 
ATOM     15  C   LIG    1       -4.365  -3.441   9.868  0.00  0.00    +0.000 A 
ATOM     16  C   LIG    1       -4.380  -4.745  10.328  0.00  0.00    +0.010 A 
ATOM     17  C   LIG    1       -3.386  -5.625   9.945  0.00  0.00    +0.000 A 
ATOM     18  C   LIG    1       -2.376  -5.201   9.101  0.00  0.00    +0.020 A 
ENDBRANCH  12  13
ENDBRANCH  11  12
ENDBRANCH   6  11
BRANCH   9  19
ATOM     19  C   LIG    1        0.006  -0.004   0.001  0.00  0.00    +0.340 C 
BRANCH  19  20
ATOM     20  C   LIG    1       -0.009   1.502   0.009  0.00  0.00    -0.100 A 
ATOM     21  C   LIG    1        1.182   2.204  -0.000  0.00  0.00    +0.050 A 
ATOM     22  C   LIG    1        1.174   3.587   0.006  0.00  0.00    +0.040 A 
ATOM     23  C   LIG    1       -0.029   4.272   0.024  0.00  0.00    +0.040 A 
ATOM     24  O   LIG    1       -0.310   5.608   0.033  0.00  0.00    -0.310 OA
ATOM     25  C   LIG    1       -1.681   5.710   0.462  0.00  0.00    +0.430 C 
ATOM     26  O   LIG    1       -2.262   4.458   0.050  0.00  0.00    -0.310 OA
ATOM     27  C   LIG    1       -1.230   3.565   0.034  0.00  0.00    +0.030 A 
ATOM     28  C   LIG    1       -1.214   2.180   0.020  0.00  0.00    +0.060 A 
ENDBRANCH  19  20
ENDBRANCH   9  19
TORSDOF 5
