REMARK  Name = ZINCrD000000gHjf.0
REMARK                            x       y       z     vdW  Elec       q    Type
REMARK                         _______ _______ _______ _____ _____    ______ ____
ROOT
ATOM      1  C   LIG    1       -8.414   1.055   0.032  0.00  0.00    +0.160 A 
ATOM      2  C   LIG    1       -8.766   2.387   0.213  0.00  0.00    +0.020 A 
ATOM      3  C   LIG    1       -7.794   3.369   0.211  0.00  0.00    +0.040 A 
ATOM      4  C   LIG    1       -6.467   3.033   0.028  0.00  0.00    +0.050 A 
ATOM      5  C   LIG    1       -6.105   1.700  -0.154  0.00  0.00    -0.010 A 
ATOM      6  C   LIG    1       -7.084   0.710  -0.157  0.00  0.00    +0.070 A 
ENDROOT
BRANCH   5   7
ATOM      7  C   LIG    1       -4.679   1.336  -0.351  0.00  0.00    +0.230 A 
ATOM      8  N   LIG    1       -4.205   0.130  -0.532  0.00  0.00    -0.350 NA
ATOM      9  O   LIG    1       -2.999   0.166  -0.662  0.00  0.00    +0.120 OA
ATOM     10  C   LIG    1       -2.567   1.434  -0.575  0.00  0.00    +0.230 A 
ATOM     11  N   LIG    1       -3.633   2.188  -0.371  0.00  0.00    -0.450 NA
BRANCH  10  12
ATOM     12  C   LIG    1       -1.173   1.895  -0.681  0.00  0.00    +0.170 A 
ATOM     13  C   LIG    1       -0.061   1.105  -0.889  0.00  0.00    +0.060 A 
ATOM     14  C   LIG    1        1.051   1.943  -0.930  0.00  0.00    +0.120 A 
ATOM     15  N   LIG    1        0.655   3.178  -0.752  0.00  0.00    -0.170 NA
ATOM     16  N   LIG    1       -0.736   3.186  -0.589  0.00  0.00    -0.390 N 
ATOM     17  H   LIG    1       -1.290   3.969  -0.441  0.00  0.00    +0.470 HD
BRANCH  14  18
ATOM     18  N   LIG    1        2.451   1.508  -1.140  0.00  0.00    +0.050 N 
ATOM     19  O   LIG    1        3.348   2.331  -1.157  0.00  0.00    -0.110 OA
ATOM     20  O   LIG    1        2.704   0.327  -1.295  0.00  0.00    -0.110 OA
ENDBRANCH  14  18
ENDBRANCH  10  12
ENDBRANCH   5   7
BRANCH   1  22
ATOM     21  C   LIG    1       -9.123  -1.163   0.519  0.00  0.00    +0.650 C 
ATOM     22  N   LIG    1       -9.401   0.063   0.035  0.00  0.00    -0.650 N 
ATOM     23  H   LIG    1      -10.285   0.258  -0.313  0.00  0.00    +0.420 HD
ATOM     24  O   LIG    1       -8.047  -1.380   1.042  0.00  0.00    -0.540 OA
BRANCH  21  25
ATOM     25  O   LIG    1      -10.036  -2.148   0.425  0.00  0.00    -0.360 OA
BRANCH  25  27
ATOM     26  C   LIG    1       -9.369  -3.303   2.462  0.00  0.00    +0.030 C 
ATOM     27  C   LIG    1       -9.668  -3.443   0.968  0.00  0.00    +0.140 C 
ATOM     28  C   LIG    1       -8.425  -3.965   0.246  0.00  0.00    +0.030 C 
ATOM     29  C   LIG    1      -10.823  -4.426   0.770  0.00  0.00    +0.080 C 
ENDBRANCH  25  27
ENDBRANCH  21  25
ENDBRANCH   1  22
TORSDOF 6
