REMARK  Name = ZINCqH0000032xKm.0
REMARK                            x       y       z     vdW  Elec       q    Type
REMARK                         _______ _______ _______ _____ _____    ______ ____
ROOT
ATOM      1  N   LIG    1       -0.020   1.094   2.454  0.00  0.00    -0.380 N 
ATOM      2  N   LIG    1        1.311   1.371   2.786  0.00  0.00    -0.240 NA
ATOM      3  C   LIG    1        1.617   0.781   3.906  0.00  0.00    +0.290 A 
ATOM      4  C   LIG    1        0.485   0.078   4.369  0.00  0.00    -0.190 A 
ATOM      5  C   LIG    1        0.231  -0.726   5.504  0.00  0.00    +0.020 A 
ATOM      6  C   LIG    1       -1.037  -1.276   5.643  0.00  0.00    +0.000 A 
ATOM      7  C   LIG    1       -2.007  -1.017   4.666  0.00  0.00    +0.260 A 
ATOM      8  N   LIG    1       -1.738  -0.259   3.612  0.00  0.00    -0.480 NA
ATOM      9  C   LIG    1       -0.548   0.294   3.434  0.00  0.00    +0.310 A 
ENDROOT
BRANCH   7  10
ATOM     10  C   LIG    1       -3.354  -1.600   4.813  0.00  0.00    -0.160 A 
ATOM     11  C   LIG    1       -4.377  -1.426   3.950  0.00  0.00    +0.060 A 
ATOM     12  C   LIG    1       -5.541  -2.076   4.298  0.00  0.00    +0.000 A 
ATOM     13  C   LIG    1       -5.484  -2.770   5.440  0.00  0.00    -0.040 A 
ATOM     14  S   LIG    1       -3.878  -2.624   6.143  0.00  0.00    +0.150 S 
ENDBRANCH   7  10
BRANCH   1  16
ATOM     15  C   LIG    1       -0.013   1.086   0.008  0.00  0.00    +0.050 C 
ATOM     16  C   LIG    1       -0.729   1.579   1.267  0.00  0.00    +0.280 C 
ATOM     17  C   LIG    1       -0.750   3.109   1.275  0.00  0.00    +0.050 C 
ENDBRANCH   1  16
BRANCH   5  18
ATOM     18  C   LIG    1        1.285  -0.975   6.514  0.00  0.00    +0.540 C 
ATOM     19  O   LIG    1        2.391  -0.484   6.374  0.00  0.00    -0.550 OA
BRANCH  18  20
ATOM     20  N   LIG    1        1.023  -1.739   7.580  0.00  0.00    -0.670 NA
ATOM     21  C   LIG    1        1.970  -1.962   8.487  0.00  0.00    +0.490 A 
ATOM     22  C   LIG    1        3.289  -1.464   8.460  0.00  0.00    -0.110 A 
ATOM     23  C   LIG    1        3.935  -1.916   9.556  0.00  0.00    +0.350 A 
ATOM     24  N   LIG    1        3.080  -2.687  10.287  0.00  0.00    -0.390 N 
ATOM     25  C   LIG    1        3.397  -3.362  11.548  0.00  0.00    +0.370 C 
ATOM     26  N   LIG    1        1.843  -2.717   9.628  0.00  0.00    -0.470 N 
ATOM     27  H   LIG    1        1.046  -3.186   9.922  0.00  0.00    +0.450 HD
ENDBRANCH  18  20
ENDBRANCH   5  18
TORSDOF 4
