REMARK  Name = ZINCnE000001NZ6R.0
REMARK                            x       y       z     vdW  Elec       q    Type
REMARK                         _______ _______ _______ _____ _____    ______ ____
ROOT
ATOM      1  N   LIG    1        5.393  -1.332   5.325  0.00  0.00    -0.680 NA
ATOM      2  C   LIG    1        4.410  -1.027   4.479  0.00  0.00    +0.360 A 
ATOM      3  N   LIG    1        3.084  -1.063   4.722  0.00  0.00    -0.410 NA
ATOM      4  N   LIG    1        2.258  -0.695   3.682  0.00  0.00    -0.270 NA
ATOM      5  C   LIG    1        2.820  -0.359   2.569  0.00  0.00    -0.020 A 
ATOM      6  S   LIG    1        4.564  -0.504   2.846  0.00  0.00    -0.090 S 
ENDROOT
BRANCH   5   7
ATOM      7  C   LIG    1        2.133   0.073   1.299  0.00  0.00    +0.100 C 
ATOM      8  C   LIG    1        0.718  -0.510   1.257  0.00  0.00    +0.010 C 
ATOM      9  C   LIG    1        0.002  -0.004   0.002  0.00  0.00    +0.200 C 
ATOM     10  O   LIG    1       -0.017   1.425   0.010  0.00  0.00    -0.390 OA
ATOM     11  C   LIG    1        1.279   2.026   0.001  0.00  0.00    +0.200 C 
ATOM     12  C   LIG    1        2.046   1.601   1.256  0.00  0.00    +0.010 C 
ENDBRANCH   5   7
BRANCH   1  14
ATOM     13  N   LIG    1        6.101  -2.033   7.424  0.00  0.00    -0.630 N 
ATOM     14  C   LIG    1        5.106  -1.725   6.569  0.00  0.00    +0.670 C 
ATOM     15  O   LIG    1        3.945  -1.804   6.931  0.00  0.00    -0.600 OA
ATOM     16  C   LIG    1        7.497  -1.938   6.990  0.00  0.00    +0.260 C 
BRANCH  13  22
ATOM     17  C   LIG    1        3.908  -0.701  11.650  0.00  0.00    +0.020 C 
ATOM     18  C   LIG    1        4.683  -1.807  10.932  0.00  0.00    -0.030 C 
ATOM     19  C   LIG    1        3.831  -3.077  10.882  0.00  0.00    +0.010 C 
ATOM     20  C   LIG    1        4.606  -4.184  10.164  0.00  0.00    +0.000 C 
ATOM     21  C   LIG    1        4.934  -3.734   8.739  0.00  0.00    -0.000 C 
ATOM     22  C   LIG    1        5.786  -2.464   8.789  0.00  0.00    +0.250 C 
ATOM     23  C   LIG    1        5.011  -1.358   9.507  0.00  0.00    +0.010 C 
ENDBRANCH  13  22
ENDBRANCH   1  14
TORSDOF 3
