REMARK  Name = ZINCtj00001lDHoE.1
REMARK                            x       y       z     vdW  Elec       q    Type
REMARK                         _______ _______ _______ _____ _____    ______ ____
ROOT
ATOM      1  C   LIG    1       -1.298   2.036   0.019  0.00  0.00    +0.560 C 
ATOM      2  O   LIG    1       -1.306   3.251   0.026  0.00  0.00    -0.480 OA
ENDROOT
BRANCH   1   5
ATOM      3  N   LIG    1        1.069  -0.710  -0.012  0.00  0.00    -0.350 N 
ATOM      4  N   LIG    1        0.002  -0.004   0.002  0.00  0.00    -0.150 NA
ATOM      5  C   LIG    1       -0.016   1.307   0.009  0.00  0.00    +0.050 A 
ATOM      6  C   LIG    1        1.259   2.043   0.001  0.00  0.00    -0.030 A 
ATOM      7  C   LIG    1        1.328   3.431   0.009  0.00  0.00    +0.070 A 
ATOM      8  C   LIG    1        2.561   4.048   0.001  0.00  0.00    +0.060 A 
ATOM      9  C   LIG    1        3.730   3.300  -0.015  0.00  0.00    +0.030 A 
ATOM     10  C   LIG    1        3.685   1.921  -0.022  0.00  0.00    +0.100 A 
ATOM     11  C   LIG    1        2.451   1.280  -0.015  0.00  0.00    -0.140 A 
ATOM     12  C   LIG    1        2.311  -0.182  -0.021  0.00  0.00    +0.520 A 
ATOM     13  O   LIG    1        3.293  -0.902  -0.034  0.00  0.00    -0.480 OA
BRANCH   3  14
ATOM     14  C   LIG    1        0.935  -2.168  -0.018  0.00  0.00    +0.320 C 
BRANCH  14  15
ATOM     15  C   LIG    1        0.903  -2.684   1.422  0.00  0.00    +0.000 C 
BRANCH  15  17
ATOM     16  C   LIG    1        0.731  -4.722   2.856  0.00  0.00    +0.020 C 
ATOM     17  C   LIG    1        0.763  -4.207   1.416  0.00  0.00    +0.020 C 
ENDBRANCH  15  17
ENDBRANCH  14  15
ENDBRANCH   3  14
ENDBRANCH   1   5
BRANCH   1  18
ATOM     18  O   LIG    1       -2.461   1.355   0.021  0.00  0.00    -0.320 OA
BRANCH  18  19
ATOM     19  C   LIG    1       -3.683   2.137   0.031  0.00  0.00    +0.400 C 
BRANCH  19  20
ATOM     20  C   LIG    1       -4.872   1.211   0.032  0.00  0.00    +0.490 C 
ATOM     21  N   LIG    1       -4.689  -0.097   0.018  0.00  0.00    -0.540 NA
ATOM     22  C   LIG    1       -5.737  -0.918   0.024  0.00  0.00    +0.670 C 
ATOM     23  N   LIG    1       -6.968  -0.421   0.032  0.00  0.00    -0.610 N 
ATOM     24  C   LIG    1       -7.149   0.896   0.041  0.00  0.00    +0.680 C 
ATOM     25  N   LIG    1       -8.426   1.417   0.050  0.00  0.00    -0.770 N 
ATOM     26  H   LIG    1       -9.193   0.823   0.050  0.00  0.00    +0.430 HD
ATOM     27  H   LIG    1       -8.557   2.378   0.056  0.00  0.00    +0.450 HD
ATOM     28  H   LIG    1       -7.733  -1.017   0.032  0.00  0.00    +0.440 HD
ATOM     29  N   LIG    1       -6.096   1.710   0.040  0.00  0.00    -0.570 NA
BRANCH  22  30
ATOM     30  N   LIG    1       -5.543  -2.285   0.015  0.00  0.00    -0.570 NA
ATOM     31  C   LIG    1       -6.467  -3.159   0.742  0.00  0.00    +0.340 C 
ATOM     32  C   LIG    1       -4.415  -2.860  -0.722  0.00  0.00    +0.360 C 
ENDBRANCH  22  30
ENDBRANCH  19  20
ENDBRANCH  18  19
ENDBRANCH   1  18
TORSDOF 8
