REMARK  Name = ZINCnE000007Lpch.2
REMARK                            x       y       z     vdW  Elec       q    Type
REMARK                         _______ _______ _______ _____ _____    ______ ____
ROOT
ATOM      1  N   LIG    1        1.759   1.798  -0.217  0.00  0.00    -0.520 NA
ENDROOT
BRANCH   1   2
ATOM      2  C   LIG    1        0.406   1.394  -0.621  0.00  0.00    +0.210 C 
ATOM      3  C   LIG    1       -0.598   1.835   0.446  0.00  0.00    +0.010 C 
BRANCH   2   4
ATOM      4  C   LIG    1        0.352  -0.127  -0.775  0.00  0.00    -0.020 C 
ATOM      5  C   LIG    1        0.031  -0.686  -2.163  0.00  0.00    -0.010 C 
ATOM      6  C   LIG    1       -1.013  -0.761  -1.047  0.00  0.00    +0.000 C 
ENDBRANCH   2   4
ENDBRANCH   1   2
BRANCH   1   7
ATOM      7  C   LIG    1        2.009   3.208  -0.546  0.00  0.00    +0.310 C 
BRANCH   7  11
ATOM      8  C   LIG    1        1.482   3.986  -5.614  0.00  0.00    +0.200 C 
ATOM      9  C   LIG    1        1.977   3.688  -4.222  0.00  0.00    -0.030 A 
ATOM     10  C   LIG    1        1.236   3.715  -3.051  0.00  0.00    -0.240 A 
ATOM     11  C   LIG    1        2.231   3.345  -2.030  0.00  0.00    +0.050 A 
ATOM     12  N   LIG    1        3.341   3.169  -2.681  0.00  0.00    -0.370 NA
ATOM     13  O   LIG    1        3.217   3.345  -3.867  0.00  0.00    +0.070 OA
BRANCH  10  14
ATOM     14  C   LIG    1       -0.188   4.033  -2.873  0.00  0.00    +0.560 C 
ATOM     15  O   LIG    1       -0.899   4.225  -3.850  0.00  0.00    -0.680 OA
ATOM     16  O   LIG    1       -0.663   4.105  -1.747  0.00  0.00    -0.670 OA
ENDBRANCH  10  14
ENDBRANCH   7  11
ENDBRANCH   1   7
BRANCH   1  17
ATOM     17  C   LIG    1        1.979   1.544   1.214  0.00  0.00    +0.220 C 
BRANCH  17  18
ATOM     18  C   LIG    1        2.140   0.064   1.442  0.00  0.00    -0.060 A 
ATOM     19  C   LIG    1        1.122  -0.660   2.033  0.00  0.00    +0.010 A 
ATOM     20  C   LIG    1        1.268  -2.019   2.239  0.00  0.00    -0.010 A 
ATOM     21  C   LIG    1        2.438  -2.653   1.863  0.00  0.00    -0.010 A 
ATOM     22  C   LIG    1        3.459  -1.928   1.276  0.00  0.00    +0.000 A 
ATOM     23  C   LIG    1        3.310  -0.570   1.066  0.00  0.00    +0.020 A 
ENDBRANCH  17  18
ENDBRANCH   1  17
TORSDOF 7
