REMARK  Name = ZINCnE00000rho1v.0
REMARK                            x       y       z     vdW  Elec       q    Type
REMARK                         _______ _______ _______ _____ _____    ______ ____
ROOT
ATOM      1  C   LIG    1       -3.892   6.519   2.722  0.00  0.00    +0.210 C 
ATOM      2  C   LIG    1       -4.538   7.892   2.482  0.00  0.00    +0.020 C 
ATOM      3  C   LIG    1       -5.841   7.706   1.701  0.00  0.00    +0.000 C 
ATOM      4  C   LIG    1       -5.537   7.073   0.341  0.00  0.00    +0.010 C 
ATOM      5  C   LIG    1       -4.901   5.696   0.554  0.00  0.00    +0.260 C 
ATOM      6  N   LIG    1       -3.727   5.847   1.426  0.00  0.00    -0.610 N 
ATOM      7  C   LIG    1       -2.524   5.373   1.045  0.00  0.00    +0.500 C 
ATOM      8  O   LIG    1       -1.545   5.585   1.729  0.00  0.00    -0.490 OA
ENDROOT
BRANCH   1   9
ATOM      9  C   LIG    1       -2.523   6.702   3.382  0.00  0.00    +0.080 C 
BRANCH   9  10
ATOM     10  C   LIG    1       -2.701   7.374   4.745  0.00  0.00    -0.090 C 
BRANCH  10  12
ATOM     11  O   LIG    1       -0.372   6.992   4.910  0.00  0.00    -0.690 OA
ATOM     12  C   LIG    1       -1.370   7.440   5.449  0.00  0.00    +0.490 C 
ATOM     13  O   LIG    1       -1.291   7.942   6.557  0.00  0.00    -0.710 OA
ENDBRANCH  10  12
ENDBRANCH   9  10
ENDBRANCH   1   9
BRANCH   7  14
ATOM     14  C   LIG    1       -2.395   4.580  -0.230  0.00  0.00    +0.090 C 
BRANCH  14  15
ATOM     15  C   LIG    1       -0.958   4.171  -0.423  0.00  0.00    +0.020 C 
ATOM     16  C   LIG    1       -0.650   2.893  -0.592  0.00  0.00    -0.010 C 
BRANCH  16  17
ATOM     17  C   LIG    1        0.760   2.491  -0.782  0.00  0.00    -0.020 A 
ATOM     18  C   LIG    1        1.768   3.456  -0.790  0.00  0.00    +0.020 A 
ATOM     19  C   LIG    1        3.082   3.077  -0.975  0.00  0.00    +0.040 A 
ATOM     20  C   LIG    1        3.402   1.743  -1.150  0.00  0.00    -0.030 A 
ATOM     21  C   LIG    1        2.407   0.779  -1.143  0.00  0.00    +0.100 A 
ATOM     22  F   LIG    1        2.727  -0.522  -1.315  0.00  0.00    -0.140 F 
ATOM     23  C   LIG    1        1.088   1.147  -0.960  0.00  0.00    -0.010 A 
ENDBRANCH  16  17
ENDBRANCH  14  15
ENDBRANCH   7  14
TORSDOF 6
