REMARK  Name = ZINCpe00000GLZVv.0
REMARK                            x       y       z     vdW  Elec       q    Type
REMARK                         _______ _______ _______ _____ _____    ______ ____
ROOT
ATOM      1  C   LIG    1       -1.258   1.894   0.128  0.00  0.00    -0.220 C 
ATOM      2  C   LIG    1       -2.421   1.240  -0.086  0.00  0.00    +0.200 C 
ATOM      3  N   LIG    1       -3.603   1.917  -0.182  0.00  0.00    -0.640 N 
ATOM      4  H   LIG    1       -4.413   1.405  -0.332  0.00  0.00    +0.430 HD
ATOM      5  C   LIG    1       -3.706   3.248  -0.086  0.00  0.00    +0.710 C 
ATOM      6  N   LIG    1       -2.633   4.038   0.121  0.00  0.00    -0.710 N 
ATOM      7  H   LIG    1       -2.731   5.001   0.187  0.00  0.00    +0.440 HD
ATOM      8  O   LIG    1       -4.803   3.762  -0.190  0.00  0.00    -0.560 OA
ATOM      9  C   LIG    1       -1.310   3.404   0.245  0.00  0.00    +0.280 C 
ATOM     10  C   LIG    1       -0.402   3.992  -0.837  0.00  0.00    +0.040 C 
ENDROOT
BRANCH   1  11
ATOM     11  C   LIG    1       -0.034   1.193   0.233  0.00  0.00    +0.540 C 
ATOM     12  O   LIG    1        0.452   0.978   1.328  0.00  0.00    -0.480 OA
BRANCH  11  13
ATOM     13  O   LIG    1        0.592   0.758  -0.880  0.00  0.00    -0.350 OA
BRANCH  13  15
ATOM     14  C   LIG    1        2.380  -0.357  -2.063  0.00  0.00    +0.070 C 
ATOM     15  C   LIG    1        1.822   0.053  -0.699  0.00  0.00    +0.200 C 
ENDBRANCH  13  15
ENDBRANCH  11  13
ENDBRANCH   1  11
BRANCH   2  16
ATOM     16  C   LIG    1       -2.414  -0.262  -0.215  0.00  0.00    +0.310 C 
BRANCH  16  17
ATOM     17  O   LIG    1       -3.143  -0.846   0.896  0.00  0.00    -0.330 OA
BRANCH  17  18
ATOM     18  C   LIG    1       -3.231  -2.192   0.930  0.00  0.00    +0.560 C 
ATOM     19  O   LIG    1       -2.712  -2.858   0.055  0.00  0.00    -0.450 OA
BRANCH  18  20
ATOM     20  C   LIG    1       -3.952  -2.851   2.022  0.00  0.00    +0.010 A 
ATOM     21  C   LIG    1       -4.117  -4.198   2.177  0.00  0.00    +0.090 A 
ATOM     22  C   LIG    1       -4.864  -4.381   3.350  0.00  0.00    +0.110 A 
ATOM     23  C   LIG    1       -5.120  -3.153   3.854  0.00  0.00    +0.050 A 
ATOM     24  O   LIG    1       -4.565  -2.234   3.054  0.00  0.00    -0.120 OA
BRANCH  23  25
ATOM     25  N   LIG    1       -5.884  -2.870   5.090  0.00  0.00    +0.050 N 
ATOM     26  O   LIG    1       -6.054  -1.720   5.452  0.00  0.00    -0.110 OA
ATOM     27  O   LIG    1       -6.342  -3.789   5.746  0.00  0.00    -0.110 OA
ENDBRANCH  23  25
ENDBRANCH  18  20
ENDBRANCH  17  18
ENDBRANCH  16  17
ENDBRANCH   2  16
TORSDOF 8
