REMARK  Name = ZINCrD0000073vnj.0
REMARK                            x       y       z     vdW  Elec       q    Type
REMARK                         _______ _______ _______ _____ _____    ______ ____
ROOT
ATOM      1  C   LIG    1        1.152  -4.920   0.179  0.00  0.00    +0.200 C 
ATOM      2  C   LIG    1        1.948  -4.768  -1.119  0.00  0.00    +0.080 C 
ENDROOT
BRANCH   1   5
ATOM      3  N   LIG    1       -0.072  -2.779  -0.013  0.00  0.00    -0.650 N 
ATOM      4  H   LIG    1        0.784  -2.331  -0.100  0.00  0.00    +0.420 HD
ATOM      5  C   LIG    1       -0.123  -4.122   0.082  0.00  0.00    +0.520 C 
ATOM      6  O   LIG    1       -1.195  -4.690   0.090  0.00  0.00    -0.490 OA
BRANCH   3  11
ATOM      7  C   LIG    1       -3.558  -1.797   0.654  0.00  0.00    +0.120 A 
ATOM      8  C   LIG    1       -3.596  -0.542   0.065  0.00  0.00    -0.060 A 
ATOM      9  C   LIG    1       -2.466  -0.028  -0.545  0.00  0.00    -0.010 A 
ATOM     10  C   LIG    1       -1.297  -0.769  -0.578  0.00  0.00    +0.070 A 
ATOM     11  C   LIG    1       -1.256  -2.030   0.014  0.00  0.00    +0.160 A 
ATOM     12  C   LIG    1       -2.388  -2.541   0.630  0.00  0.00    +0.030 A 
BRANCH   7  14
ATOM     13  C   LIG    1       -5.839  -1.478   1.246  0.00  0.00    +0.250 C 
ATOM     14  O   LIG    1       -4.669  -2.298   1.258  0.00  0.00    -0.310 OA
ENDBRANCH   7  14
BRANCH  10  15
ATOM     15  O   LIG    1       -0.188  -0.264  -1.182  0.00  0.00    -0.320 OA
ATOM     16  C   LIG    1       -0.302   1.034  -1.768  0.00  0.00    +0.250 C 
ENDBRANCH  10  15
ENDBRANCH   3  11
ENDBRANCH   1   5
BRANCH   1  17
ATOM     17  O   LIG    1        0.832  -6.321   0.390  0.00  0.00    -0.330 OA
BRANCH  17  18
ATOM     18  C   LIG    1        1.721  -7.053   1.090  0.00  0.00    +0.540 C 
ATOM     19  O   LIG    1        2.736  -6.535   1.513  0.00  0.00    -0.490 OA
BRANCH  18  20
ATOM     20  C   LIG    1        1.464  -8.477   1.342  0.00  0.00    +0.030 A 
ATOM     21  C   LIG    1        2.281  -9.316   2.032  0.00  0.00    +0.070 A 
ATOM     22  C   LIG    1        1.673 -10.594   2.047  0.00  0.00    -0.130 A 
ATOM     23  C   LIG    1        2.042 -11.829   2.597  0.00  0.00    +0.070 A 
ATOM     24  C   LIG    1        1.226 -12.912   2.443  0.00  0.00    -0.020 A 
ATOM     25  C   LIG    1        0.031 -12.803   1.745  0.00  0.00    +0.050 A 
ATOM     26  C   LIG    1       -0.354 -11.601   1.195  0.00  0.00    +0.000 A 
ATOM     27  C   LIG    1        0.461 -10.481   1.338  0.00  0.00    +0.120 A 
ATOM     28  N   LIG    1        0.349  -9.177   0.920  0.00  0.00    -0.570 N 
ATOM     29  H   LIG    1       -0.390  -8.808   0.411  0.00  0.00    +0.430 HD
ENDBRANCH  18  20
ENDBRANCH  17  18
ENDBRANCH   1  17
TORSDOF 7
