REMARK  Name = ZINCqH0000051xVT.0
REMARK                            x       y       z     vdW  Elec       q    Type
REMARK                         _______ _______ _______ _____ _____    ______ ____
ROOT
ATOM      1  C   LIG    1       -0.013   1.086   0.008  0.00  0.00    +0.320 C 
ENDROOT
BRANCH   1   5
ATOM      2  O   LIG    1       -0.303   3.712  -3.973  0.00  0.00    -0.520 OA
ATOM      3  C   LIG    1       -0.821   2.925  -3.197  0.00  0.00    +0.510 A 
ATOM      4  C   LIG    1       -0.126   2.480  -2.066  0.00  0.00    -0.130 A 
ATOM      5  C   LIG    1       -0.742   1.585  -1.213  0.00  0.00    +0.210 A 
ATOM      6  N   LIG    1       -1.973   1.170  -1.464  0.00  0.00    -0.520 NA
ATOM      7  C   LIG    1       -2.643   1.594  -2.534  0.00  0.00    +0.400 A 
ATOM      8  C   LIG    1       -3.950   1.128  -2.763  0.00  0.00    +0.060 A 
ATOM      9  C   LIG    1       -4.634   1.562  -3.859  0.00  0.00    +0.150 A 
ATOM     10  C   LIG    1       -4.025   2.466  -4.741  0.00  0.00    -0.150 A 
ATOM     11  C   LIG    1       -2.768   2.904  -4.504  0.00  0.00    +0.330 A 
ATOM     12 BR   LIG    1       -4.965   3.076  -6.265  0.00  0.00    +0.010 Br
ATOM     13  N   LIG    1       -2.076   2.475  -3.412  0.00  0.00    -0.430 N 
ENDBRANCH   1   5
BRANCH   1  14
ATOM     14  O   LIG    1       -0.692   1.554   1.203  0.00  0.00    -0.340 OA
BRANCH  14  15
ATOM     15  C   LIG    1       -0.166   1.194   2.384  0.00  0.00    +0.470 C 
ATOM     16  O   LIG    1        0.829   0.510   2.418  0.00  0.00    -0.500 OA
BRANCH  15  17
ATOM     17  C   LIG    1       -0.817   1.643   3.667  0.00  0.00    -0.040 C 
ATOM     18  C   LIG    1       -0.836   3.171   3.721  0.00  0.00    +0.050 C 
ATOM     19  C   LIG    1       -1.497   3.627   5.024  0.00  0.00    +0.000 C 
ATOM     20  C   LIG    1       -2.931   3.096   5.081  0.00  0.00    +0.020 C 
ATOM     21  C   LIG    1       -2.912   1.568   5.027  0.00  0.00    +0.000 C 
ATOM     22  C   LIG    1       -2.119   1.025   6.217  0.00  0.00    +0.020 C 
ATOM     23  C   LIG    1       -0.685   1.555   6.160  0.00  0.00    -0.010 C 
ATOM     24  C   LIG    1       -0.705   3.084   6.215  0.00  0.00    +0.020 C 
ATOM     25  C   LIG    1       -2.251   1.112   3.724  0.00  0.00    +0.050 C 
ATOM     26  C   LIG    1       -0.025   1.100   4.858  0.00  0.00    +0.050 C 
ENDBRANCH  15  17
ENDBRANCH  14  15
ENDBRANCH   1  14
TORSDOF 4
