REMARK  Name = ZINCpk00000eavvp.0
REMARK                            x       y       z     vdW  Elec       q    Type
REMARK                         _______ _______ _______ _____ _____    ______ ____
ROOT
ATOM      1  N   LIG    1        3.588   2.123  -0.019  0.00  0.00    -0.560 N 
ATOM      2  C   LIG    1        4.916   1.505   0.076  0.00  0.00    +0.300 C 
ATOM      3  C   LIG    1        5.909   2.587  -0.407  0.00  0.00    +0.000 C 
ATOM      4  C   LIG    1        5.130   3.887  -0.097  0.00  0.00    +0.100 C 
ATOM      5  C   LIG    1        3.678   3.461  -0.109  0.00  0.00    +0.520 C 
ATOM      6  O   LIG    1        2.733   4.217  -0.188  0.00  0.00    -0.500 OA
ENDROOT
BRANCH   1  11
ATOM      7  C   LIG    1       -0.017   1.383   0.025  0.00  0.00    +0.160 A 
ATOM      8  C   LIG    1        0.002  -0.004   0.002  0.00  0.00    -0.100 A 
ATOM      9  C   LIG    1        1.207  -0.680  -0.029  0.00  0.00    +0.080 A 
ATOM     10  C   LIG    1        2.396   0.022  -0.036  0.00  0.00    -0.060 A 
ATOM     11  C   LIG    1        2.384   1.411  -0.013  0.00  0.00    +0.200 A 
ATOM     12  C   LIG    1        1.175   2.092   0.018  0.00  0.00    -0.030 A 
BRANCH   7  14
ATOM     13  C   LIG    1       -2.390   1.253   0.050  0.00  0.00    +0.250 C 
ATOM     14  O   LIG    1       -1.202   2.047   0.049  0.00  0.00    -0.310 OA
ENDBRANCH   7  14
ENDBRANCH   1  11
BRANCH   3  15
ATOM     15  C   LIG    1        7.192   2.527   0.381  0.00  0.00    +0.530 C 
ATOM     16  N   LIG    1        8.138   3.470   0.201  0.00  0.00    -0.610 N 
ATOM     17  C   LIG    1        7.919   4.553  -0.761  0.00  0.00    +0.280 C 
ATOM     18  O   LIG    1        7.374   1.631   1.177  0.00  0.00    -0.530 OA
BRANCH  16  19
ATOM     19  C   LIG    1        9.386   3.412   0.966  0.00  0.00    +0.370 C 
BRANCH  19  20
ATOM     20  C   LIG    1       10.405   2.603   0.205  0.00  0.00    -0.270 A 
ATOM     21  C   LIG    1       10.598   1.268   0.307  0.00  0.00    +0.260 A 
ATOM     22  N   LIG    1       11.596   0.931  -0.537  0.00  0.00    -0.380 N 
ATOM     23  N   LIG    1       12.037   2.100  -1.171  0.00  0.00    -0.300 NA
ATOM     24  C   LIG    1       12.128  -0.417  -0.748  0.00  0.00    +0.360 C 
ATOM     25  C   LIG    1       11.322   3.101  -0.726  0.00  0.00    +0.240 A 
ENDBRANCH  19  20
ENDBRANCH  16  19
ENDBRANCH   3  15
TORSDOF 5
