REMARK  Name = ZINCpe000000Yn0i.0
REMARK                            x       y       z     vdW  Elec       q    Type
REMARK                         _______ _______ _______ _____ _____    ______ ____
ROOT
ATOM      1  N   LIG    1       -2.370  -0.354  -4.191  0.00  0.00    -0.530 NA
ATOM      2  C   LIG    1       -1.238  -1.206  -3.807  0.00  0.00    +0.170 C 
ATOM      3  C   LIG    1       -1.603  -1.995  -2.545  0.00  0.00    +0.310 C 
ATOM      4  N   LIG    1       -2.046  -1.046  -1.512  0.00  0.00    -1.000 NA
ATOM      5  C   LIG    1       -3.089  -0.071  -1.865  0.00  0.00    +0.300 C 
ATOM      6  C   LIG    1       -2.662   0.646  -3.155  0.00  0.00    +0.170 C 
ENDROOT
BRANCH   4   7
ATOM      7  S   LIG    1       -1.393  -1.080   0.010  0.00  0.00    +2.720 S 
ATOM      8  O   LIG    1       -2.354  -0.485   0.871  0.00  0.00    -0.960 OA
ATOM      9  O   LIG    1       -0.886  -2.393   0.200  0.00  0.00    -0.960 OA
BRANCH   7  10
ATOM     10  C   LIG    1        0.002  -0.004   0.002  0.00  0.00    -0.800 A 
ATOM     11  C   LIG    1        1.312  -0.368  -0.012  0.00  0.00    +0.380 A 
ATOM     12  N   LIG    1        2.084   0.720  -0.014  0.00  0.00    -0.550 NA
ATOM     13  C   LIG    1        1.346   1.817  -0.001  0.00  0.00    +0.280 A 
ATOM     14  N   LIG    1        1.641   3.156   0.004  0.00  0.00    -0.490 N 
ATOM     15  H   LIG    1        2.568   3.443  -0.004  0.00  0.00    +0.430 HD
ATOM     16  C   LIG    1        0.661   4.074   0.019  0.00  0.00    +0.340 A 
ATOM     17  C   LIG    1       -0.653   3.718   0.030  0.00  0.00    -0.040 A 
ATOM     18  C   LIG    1       -1.019   2.377   0.030  0.00  0.00    +0.170 A 
ATOM     19  C   LIG    1       -0.017   1.409   0.010  0.00  0.00    -0.090 A 
ENDBRANCH   7  10
ENDBRANCH   4   7
BRANCH   1  20
ATOM     20  C   LIG    1       -2.128   0.289  -5.490  0.00  0.00    +0.270 C 
BRANCH  20  26
ATOM     21  C   LIG    1       -4.978  -0.151  -6.723  0.00  0.00    +0.330 C 
ATOM     22  N   LIG    1       -4.425   1.130  -6.277  0.00  0.00    -0.450 N 
ATOM     23  C   LIG    1       -5.045   2.329  -6.320  0.00  0.00    +0.390 A 
ATOM     24  N   LIG    1       -4.240   3.234  -5.837  0.00  0.00    -0.490 NA
ATOM     25  C   LIG    1       -3.091   2.651  -5.465  0.00  0.00    +0.140 A 
ATOM     26  C   LIG    1       -3.184   1.335  -5.737  0.00  0.00    -0.020 A 
ENDBRANCH  20  26
ENDBRANCH   1  20
TORSDOF 4
