REMARK  Name = ZINCqH0000008lWS.0
REMARK                            x       y       z     vdW  Elec       q    Type
REMARK                         _______ _______ _______ _____ _____    ______ ____
ROOT
ATOM      1  N   LIG    1       -1.078   3.336  -0.862  0.00  0.00    -0.720 N 
ATOM      2  H   LIG    1       -0.185   3.665  -1.050  0.00  0.00    +0.410 HD
ATOM      3  C   LIG    1       -2.148   3.942  -1.413  0.00  0.00    +0.540 C 
ATOM      4  O   LIG    1       -3.265   3.531  -1.179  0.00  0.00    -0.520 OA
ENDROOT
BRANCH   1   6
ATOM      5  C   LIG    1       -1.538   2.667   1.445  0.00  0.00    +0.060 C 
ATOM      6  C   LIG    1       -1.263   2.181   0.020  0.00  0.00    +0.350 C 
BRANCH   6   7
ATOM      7  C   LIG    1       -0.016   1.336   0.009  0.00  0.00    +0.020 A 
ATOM      8  C   LIG    1        0.002  -0.004   0.002  0.00  0.00    -0.020 A 
ATOM      9  C   LIG    1        1.417  -0.394  -0.014  0.00  0.00    -0.130 A 
ATOM     10  C   LIG    1        2.092  -1.614  -0.027  0.00  0.00    +0.060 A 
ATOM     11  C   LIG    1        3.469  -1.629  -0.039  0.00  0.00    +0.000 A 
ATOM     12  C   LIG    1        4.182  -0.440  -0.040  0.00  0.00    +0.050 A 
ATOM     13  C   LIG    1        3.527   0.773  -0.028  0.00  0.00    +0.020 A 
ATOM     14  C   LIG    1        2.139   0.812  -0.014  0.00  0.00    +0.060 A 
ATOM     15  O   LIG    1        1.240   1.816   0.000  0.00  0.00    -0.190 OA
ENDBRANCH   6   7
ENDBRANCH   1   6
BRANCH   3  16
ATOM     16  C   LIG    1       -1.958   5.129  -2.321  0.00  0.00    +0.110 C 
BRANCH  16  17
ATOM     17  S   LIG    1       -3.571   5.714  -2.897  0.00  0.00    +0.080 S 
BRANCH  17  18
ATOM     18  C   LIG    1       -3.064   7.065  -3.908  0.00  0.00    +0.140 A 
ATOM     19  N   LIG    1       -1.830   7.462  -4.124  0.00  0.00    -0.300 NA
ATOM     20  N   LIG    1       -1.828   8.474  -4.919  0.00  0.00    -0.280 NA
ATOM     21  C   LIG    1       -3.047   8.776  -5.256  0.00  0.00    +0.190 A 
ATOM     22  C   LIG    1       -3.493   9.878  -6.182  0.00  0.00    +0.160 C 
ATOM     23  C   LIG    1       -4.651  10.640  -5.529  0.00  0.00    +0.030 C 
ATOM     24  C   LIG    1       -5.973   9.971  -5.890  0.00  0.00    +0.020 C 
ATOM     25  C   LIG    1       -5.795   8.459  -6.017  0.00  0.00    +0.030 C 
ATOM     26  C   LIG    1       -5.337   7.878  -4.676  0.00  0.00    +0.290 C 
ATOM     27  N   LIG    1       -3.875   7.894  -4.620  0.00  0.00    -0.460 N 
ENDBRANCH  17  18
ENDBRANCH  16  17
ENDBRANCH   3  16
TORSDOF 5
