REMARK  Name = ZINCvU00000006P9.0
REMARK                            x       y       z     vdW  Elec       q    Type
REMARK                         _______ _______ _______ _____ _____    ______ ____
ROOT
ATOM      1  O   LIG    1       -1.276   2.702  -0.190  0.00  0.00    -0.580 OA
ATOM      2  C   LIG    1       -1.256   1.494  -0.050  0.00  0.00    +0.720 C 
ATOM      3  N   LIG    1       -2.413   0.806   0.029  0.00  0.00    -0.610 N 
ATOM      4  N   LIG    1       -0.079   0.843   0.025  0.00  0.00    -0.660 N 
ATOM      5  H   LIG    1       -0.061  -0.126   0.049  0.00  0.00    +0.410 HD
ENDROOT
BRANCH   4   6
ATOM      6  C   LIG    1        1.121   1.567   0.064  0.00  0.00    +0.160 A 
ATOM      7  C   LIG    1        1.130   2.873   0.530  0.00  0.00    +0.060 A 
ATOM      8  C   LIG    1        2.315   3.583   0.572  0.00  0.00    +0.000 A 
ATOM      9  C   LIG    1        3.491   2.998   0.141  0.00  0.00    +0.020 A 
ATOM     10  C   LIG    1        3.489   1.698  -0.330  0.00  0.00    -0.040 A 
ATOM     11  C   LIG    1        2.306   0.978  -0.371  0.00  0.00    +0.080 A 
BRANCH  11  12
ATOM     12  O   LIG    1        2.303  -0.300  -0.834  0.00  0.00    -0.260 OA
BRANCH  12  13
ATOM     13  C   LIG    1        3.497  -0.871  -1.142  0.00  0.00    +0.090 A 
ATOM     14  C   LIG    1        3.787  -1.209  -2.456  0.00  0.00    +0.010 A 
ATOM     15  C   LIG    1        5.003  -1.784  -2.768  0.00  0.00    +0.030 A 
ATOM     16  C   LIG    1        5.928  -2.033  -1.770  0.00  0.00    +0.010 A 
ATOM     17  C   LIG    1        5.639  -1.701  -0.459  0.00  0.00    +0.030 A 
ATOM     18  C   LIG    1        4.426  -1.121  -0.143  0.00  0.00    -0.010 A 
ENDBRANCH  12  13
ENDBRANCH  11  12
ENDBRANCH   4   6
BRANCH   3  19
ATOM     19  C   LIG    1       -2.390  -0.649   0.198  0.00  0.00    +0.290 C 
BRANCH  19  20
ATOM     20  C   LIG    1       -2.382  -0.989   1.690  0.00  0.00    +0.140 C 
ATOM     21  C   LIG    1       -2.286  -2.522   1.891  0.00  0.00    +0.020 C 
ATOM     22  C   LIG    1       -1.657  -2.595   3.309  0.00  0.00    +0.010 C 
ATOM     23  C   LIG    1       -0.732  -1.359   3.321  0.00  0.00    +0.190 C 
ATOM     24  O   LIG    1       -1.206  -0.454   2.317  0.00  0.00    -0.370 OA
ENDBRANCH  19  20
ENDBRANCH   3  19
BRANCH   3  25
ATOM     25  C   LIG    1       -3.693   1.514  -0.053  0.00  0.00    +0.360 C 
BRANCH  25  26
ATOM     26  C   LIG    1       -4.132   1.593  -1.493  0.00  0.00    -0.140 A 
ATOM     27  C   LIG    1       -3.937   2.756  -2.212  0.00  0.00    +0.050 A 
ATOM     28  C   LIG    1       -4.335   2.827  -3.534  0.00  0.00    +0.000 A 
ATOM     29  C   LIG    1       -4.938   1.739  -4.137  0.00  0.00    +0.030 A 
ATOM     30  C   LIG    1       -5.140   0.575  -3.420  0.00  0.00    -0.020 A 
ATOM     31  C   LIG    1       -4.737   0.499  -2.095  0.00  0.00    +0.120 A 
BRANCH  31  32
ATOM     32  O   LIG    1       -4.936  -0.644  -1.388  0.00  0.00    -0.500 OA
ATOM     33  H   LIG    1       -5.784  -0.679  -0.926  0.00  0.00    +0.390 HD
ENDBRANCH  31  32
ENDBRANCH  25  26
ENDBRANCH   3  25
TORSDOF 8
