REMARK  Name = ZINC660000003Xb0.0
REMARK                            x       y       z     vdW  Elec       q    Type
REMARK                         _______ _______ _______ _____ _____    ______ ____
ROOT
ATOM      1  C   LIG    1       -1.187   1.624   0.017  0.00  0.00    +0.510 C 
ATOM      2  O   LIG    1       -1.204   2.837   0.023  0.00  0.00    -0.520 OA
ATOM      3  N   LIG    1       -0.011   0.966   0.007  0.00  0.00    -0.850 N 
ATOM      4  H   LIG    1        0.822   1.462   0.002  0.00  0.00    +0.410 HD
ATOM      5  H   LIG    1        0.002  -0.004   0.002  0.00  0.00    +0.400 HD
ENDROOT
BRANCH   1   7
ATOM      6  C   LIG    1       -3.447   1.474  -0.994  0.00  0.00    +0.090 C 
ATOM      7  C   LIG    1       -2.482   0.853   0.018  0.00  0.00    +0.090 C 
ATOM      8 CL   LIG    1       -3.216   0.914   1.664  0.00  0.00    -0.140 Cl
ENDBRANCH   1   7
TORSDOF 1
