REMARK  Name = ZINCrD000003UmNY.0
REMARK                            x       y       z     vdW  Elec       q    Type
REMARK                         _______ _______ _______ _____ _____    ______ ____
ROOT
ATOM      1  C   LIG    1       -1.734   4.259  -1.368  0.00  0.00    +0.570 C 
ATOM      2  N   LIG    1       -0.613   3.514  -1.446  0.00  0.00    -0.610 N 
ATOM      3  C   LIG    1        0.704   4.155  -1.561  0.00  0.00    +0.270 C 
ATOM      4  C   LIG    1        1.614   3.613  -0.454  0.00  0.00    +0.020 C 
ATOM      5  C   LIG    1        1.649   2.085  -0.530  0.00  0.00    +0.030 C 
ATOM      6  C   LIG    1        0.240   1.529  -0.312  0.00  0.00    -0.030 C 
ATOM      7  C   LIG    1       -0.685   2.047  -1.417  0.00  0.00    +0.280 C 
ATOM      8  O   LIG    1       -2.823   3.718  -1.346  0.00  0.00    -0.530 OA
ENDROOT
BRANCH   1  15
ATOM      9  C   LIG    1       -2.997   5.687   0.809  0.00  0.00    +0.090 C 
ATOM     10  C   LIG    1       -2.245   6.433  -0.264  0.00  0.00    -0.040 A 
ATOM     11  C   LIG    1       -2.149   7.808  -0.212  0.00  0.00    +0.010 A 
ATOM     12  C   LIG    1       -1.464   8.494  -1.199  0.00  0.00    +0.040 A 
ATOM     13  C   LIG    1       -0.867   7.807  -2.241  0.00  0.00    +0.000 A 
ATOM     14  C   LIG    1       -0.951   6.431  -2.301  0.00  0.00    +0.040 A 
ATOM     15  C   LIG    1       -1.640   5.733  -1.309  0.00  0.00    -0.130 A 
ENDBRANCH   1  15
BRANCH   6  16
ATOM     16  C   LIG    1        0.282   0.001  -0.356  0.00  0.00    +0.270 C 
BRANCH  16  17
ATOM     17  N   LIG    1       -1.042  -0.534  -0.029  0.00  0.00    -0.730 N 
ATOM     18  H   LIG    1       -1.774   0.071   0.171  0.00  0.00    +0.400 HD
ATOM     19  C   LIG    1       -1.245  -1.866  -0.006  0.00  0.00    +0.520 C 
ATOM     20  O   LIG    1       -0.330  -2.623  -0.256  0.00  0.00    -0.530 OA
BRANCH  19  21
ATOM     21  C   LIG    1       -2.607  -2.416   0.330  0.00  0.00    +0.120 C 
BRANCH  21  22
ATOM     22  C   LIG    1       -2.566  -3.921   0.287  0.00  0.00    -0.040 A 
ATOM     23  C   LIG    1       -2.251  -4.637   1.427  0.00  0.00    +0.010 A 
ATOM     24  C   LIG    1       -2.213  -6.019   1.389  0.00  0.00    +0.040 A 
ATOM     25  C   LIG    1       -2.490  -6.686   0.211  0.00  0.00    -0.010 A 
ATOM     26  C   LIG    1       -2.806  -5.970  -0.932  0.00  0.00    +0.100 A 
ATOM     27  F   LIG    1       -3.077  -6.621  -2.084  0.00  0.00    -0.140 F 
ATOM     28  C   LIG    1       -2.849  -4.587  -0.891  0.00  0.00    -0.010 A 
ENDBRANCH  21  22
ENDBRANCH  19  21
ENDBRANCH  16  17
ENDBRANCH   6  16
TORSDOF 5
