REMARK  Name = ZINCvU00000008mD.0
REMARK                            x       y       z     vdW  Elec       q    Type
REMARK                         _______ _______ _______ _____ _____    ______ ____
ROOT
ATOM      1  C   LIG    1       -2.578  -0.024   0.026  0.00  0.00    +0.240 C 
ENDROOT
BRANCH   1   2
ATOM      2  C   LIG    1       -1.262  -0.759   0.010  0.00  0.00    +0.400 C 
ATOM      3  O   LIG    1       -1.244  -1.971   0.003  0.00  0.00    -0.420 OA
BRANCH   2   4
ATOM      4  C   LIG    1        0.002  -0.004   0.002  0.00  0.00    -0.170 A 
ATOM      5  C   LIG    1       -0.017   1.395   0.010  0.00  0.00    +0.070 A 
ATOM      6  C   LIG    1        1.170   2.099   0.002  0.00  0.00    +0.030 A 
ATOM      7  C   LIG    1        2.377   1.429  -0.013  0.00  0.00    -0.060 A 
ATOM      8  C   LIG    1        3.804   1.922  -0.024  0.00  0.00    +0.170 C 
ATOM      9  C   LIG    1        4.672   0.687  -0.040  0.00  0.00    -0.090 A 
ATOM     10  C   LIG    1        6.040   0.518  -0.055  0.00  0.00    +0.030 A 
ATOM     11  C   LIG    1        6.580  -0.756  -0.069  0.00  0.00    +0.020 A 
ATOM     12  C   LIG    1        5.749  -1.862  -0.066  0.00  0.00    +0.010 A 
ATOM     13  C   LIG    1        4.379  -1.702  -0.051  0.00  0.00    +0.030 A 
ATOM     14  C   LIG    1        3.827  -0.420  -0.037  0.00  0.00    -0.060 A 
ATOM     15  C   LIG    1        2.415   0.036  -0.021  0.00  0.00    -0.070 A 
ATOM     16  C   LIG    1        1.222  -0.683  -0.013  0.00  0.00    +0.110 A 
ENDBRANCH   2   4
ENDBRANCH   1   2
BRANCH   1  17
ATOM     17  O   LIG    1       -3.667  -0.984   0.030  0.00  0.00    -0.330 OA
BRANCH  17  18
ATOM     18  C   LIG    1       -4.920  -0.487   0.045  0.00  0.00    +0.520 C 
ATOM     19  O   LIG    1       -5.096   0.715   0.053  0.00  0.00    -0.510 OA
BRANCH  18  23
ATOM     20  C   LIG    1       -8.247  -3.129   0.062  0.00  0.00    +0.150 A 
ATOM     21  C   LIG    1       -6.956  -3.639   0.047  0.00  0.00    -0.040 A 
ATOM     22  C   LIG    1       -5.875  -2.785   0.041  0.00  0.00    +0.100 A 
ATOM     23  C   LIG    1       -6.076  -1.402   0.050  0.00  0.00    -0.130 A 
ATOM     24  C   LIG    1       -7.376  -0.889   0.071  0.00  0.00    +0.040 A 
ATOM     25  C   LIG    1       -8.456  -1.750   0.071  0.00  0.00    +0.090 A 
BRANCH  25  26
ATOM     26  O   LIG    1       -9.722  -1.254   0.085  0.00  0.00    -0.300 OA
ATOM     27  C   LIG    1       -9.861   0.168   0.093  0.00  0.00    +0.240 C 
ENDBRANCH  25  26
BRANCH  20  28
ATOM     28  O   LIG    1       -9.310  -3.975   0.068  0.00  0.00    -0.300 OA
BRANCH  28  29
ATOM     29  C   LIG    1       -9.024  -5.375   0.058  0.00  0.00    +0.190 C 
BRANCH  29  31
ATOM     30  C   LIG    1      -10.030  -7.662   0.055  0.00  0.00    +0.040 C 
ATOM     31  C   LIG    1      -10.336  -6.163   0.066  0.00  0.00    +0.040 C 
ENDBRANCH  29  31
ENDBRANCH  28  29
ENDBRANCH  20  28
ENDBRANCH  18  23
ENDBRANCH  17  18
ENDBRANCH   1  17
TORSDOF 9
