REMARK  Name = ZINCtV00001bB3zC.0
REMARK                            x       y       z     vdW  Elec       q    Type
REMARK                         _______ _______ _______ _____ _____    ______ ____
ROOT
ATOM      1  C   LIG    1        3.574   7.358  -0.310  0.00  0.00    +0.280 C 
ATOM      2  C   LIG    1        3.612   6.003  -0.059  0.00  0.00    -0.140 C 
ENDROOT
BRANCH   1   9
ATOM      3  C   LIG    1        4.934   9.435  -0.126  0.00  0.00    +0.190 A 
ATOM      4  C   LIG    1        6.118  10.121  -0.348  0.00  0.00    -0.060 A 
ATOM      5  C   LIG    1        7.178   9.491  -0.971  0.00  0.00    +0.120 A 
ATOM      6  C   LIG    1        7.070   8.170  -1.380  0.00  0.00    -0.130 A 
ATOM      7  C   LIG    1        5.905   7.468  -1.165  0.00  0.00    +0.120 A 
ATOM      8 BR   LIG    1        8.533   7.327  -2.232  0.00  0.00    -0.030 Br
ATOM      9  C   LIG    1        4.819   8.095  -0.539  0.00  0.00    -0.140 A 
BRANCH   3  10
ATOM     10  O   LIG    1        3.893  10.052   0.485  0.00  0.00    -0.300 OA
BRANCH  10  11
ATOM     11  C   LIG    1        4.084  11.414   0.875  0.00  0.00    +0.230 C 
BRANCH  11  13
ATOM     12  C   LIG    1        2.910  12.623   2.641  0.00  0.00    +0.050 C 
ATOM     13  C   LIG    1        2.830  11.929   1.533  0.00  0.00    -0.050 C 
ENDBRANCH  11  13
ENDBRANCH  10  11
ENDBRANCH   3  10
ENDBRANCH   1   9
BRANCH   2  14
ATOM     14  C   LIG    1        2.359   5.238   0.035  0.00  0.00    +0.580 C 
ATOM     15  N   LIG    1        2.396   3.913   0.280  0.00  0.00    -0.670 N 
ATOM     16  H   LIG    1        3.243   3.477   0.460  0.00  0.00    +0.420 HD
ATOM     17  O   LIG    1        1.290   5.801  -0.109  0.00  0.00    -0.500 OA
BRANCH  15  18
ATOM     18  C   LIG    1        1.212   3.168   0.274  0.00  0.00    +0.160 A 
ATOM     19  C   LIG    1        0.022   3.748   0.695  0.00  0.00    +0.110 A 
ATOM     20  C   LIG    1       -1.145   3.010   0.688  0.00  0.00    -0.160 A 
ATOM     21  C   LIG    1       -1.132   1.696   0.257  0.00  0.00    +0.080 A 
ATOM     22  C   LIG    1        0.052   1.113  -0.157  0.00  0.00    +0.060 A 
ATOM     23  C   LIG    1        1.223   1.845  -0.153  0.00  0.00    -0.040 A 
ATOM     24 CL   LIG    1        2.707   1.115  -0.679  0.00  0.00    -0.050 Cl
BRANCH  20  25
ATOM     25  C   LIG    1       -2.436   3.639   1.144  0.00  0.00    +0.510 C 
ATOM     26  F   LIG    1       -2.164   4.615   2.108  0.00  0.00    -0.170 F 
ATOM     27  F   LIG    1       -3.264   2.656   1.696  0.00  0.00    -0.170 F 
ATOM     28  F   LIG    1       -3.079   4.230   0.051  0.00  0.00    -0.170 F 
ENDBRANCH  20  25
ENDBRANCH  15  18
ENDBRANCH   2  14
BRANCH   2  29
ATOM     29  C   LIG    1        4.870   5.341   0.110  0.00  0.00    +0.230 C 
ATOM     30  N   LIG    1        5.868   4.815   0.244  0.00  0.00    -0.390 NA
ENDBRANCH   2  29
TORSDOF 8
