REMARK  Name = ZINCfA000000ywS1.1
REMARK                            x       y       z     vdW  Elec       q    Type
REMARK                         _______ _______ _______ _____ _____    ______ ____
ROOT
ATOM      1  C   LIG    1        0.131   1.400  -4.876  0.00  0.00    +0.080 C 
ATOM      2  C   LIG    1       -0.659   1.782  -3.623  0.00  0.00    +0.100 C 
ATOM      3  C   LIG    1       -2.077   1.212  -3.718  0.00  0.00    +0.050 C 
ATOM      4  C   LIG    1       -2.834   1.534  -2.426  0.00  0.00    +0.060 C 
ATOM      5  C   LIG    1       -2.060   0.969  -1.233  0.00  0.00    +0.250 C 
ATOM      6  N   LIG    1       -0.723   1.572  -1.182  0.00  0.00    -0.380 N 
ATOM      7  H   LIG    1       -0.810   2.576  -1.133  0.00  0.00    +0.430 HD
ATOM      8  F   LIG    1       -0.723   3.176  -3.518  0.00  0.00    -0.190 F 
ATOM      9  C   LIG    1        0.034   1.208  -2.385  0.00  0.00    +0.260 C 
ENDROOT
BRANCH   6  10
ATOM     10  C   LIG    1       -0.013   1.086   0.008  0.00  0.00    +0.320 C 
BRANCH  10  11
ATOM     11  C   LIG    1       -0.718   1.572   1.248  0.00  0.00    -0.160 A 
ATOM     12  C   LIG    1       -0.360   2.779   1.819  0.00  0.00    +0.040 A 
ATOM     13  C   LIG    1       -1.010   3.227   2.953  0.00  0.00    +0.030 A 
ATOM     14  C   LIG    1       -2.012   2.463   3.523  0.00  0.00    +0.060 A 
ATOM     15  C   LIG    1       -2.366   1.254   2.955  0.00  0.00    +0.030 A 
ATOM     16  C   LIG    1       -1.719   0.808   1.818  0.00  0.00    +0.030 A 
ENDBRANCH  10  11
ENDBRANCH   6  10
TORSDOF 2
