REMARK  Name = ZINCfA000000ywS1.0
REMARK                            x       y       z     vdW  Elec       q    Type
REMARK                         _______ _______ _______ _____ _____    ______ ____
ROOT
ATOM      1  C   LIG    1        0.120  -0.065   2.499  0.00  0.00    +0.060 C 
ATOM      2  C   LIG    1        0.810  -0.500   1.205  0.00  0.00    +0.110 C 
ATOM      3  C   LIG    1        0.002  -0.004   0.002  0.00  0.00    +0.050 C 
ATOM      4  C   LIG    1       -0.019   1.527   0.010  0.00  0.00    +0.070 C 
ATOM      5  C   LIG    1        1.419   2.051  -0.001  0.00  0.00    +0.250 C 
ATOM      6  N   LIG    1        2.130   1.564   1.187  0.00  0.00    -0.380 N 
ATOM      7  H   LIG    1        1.632   1.849   2.017  0.00  0.00    +0.420 HD
ATOM      8  F   LIG    1        0.895  -1.896   1.166  0.00  0.00    -0.170 F 
ATOM      9  C   LIG    1        2.217   0.099   1.149  0.00  0.00    +0.250 C 
ENDROOT
BRANCH   6  10
ATOM     10  C   LIG    1        3.485   2.132   1.213  0.00  0.00    +0.320 C 
BRANCH  10  11
ATOM     11  C   LIG    1        3.399   3.628   1.375  0.00  0.00    -0.160 A 
ATOM     12  C   LIG    1        3.334   4.442   0.259  0.00  0.00    +0.030 A 
ATOM     13  C   LIG    1        3.250   5.813   0.408  0.00  0.00    +0.030 A 
ATOM     14  C   LIG    1        3.242   6.372   1.673  0.00  0.00    +0.060 A 
ATOM     15  C   LIG    1        3.312   5.559   2.788  0.00  0.00    +0.030 A 
ATOM     16  C   LIG    1        3.390   4.186   2.639  0.00  0.00    +0.040 A 
ENDBRANCH  10  11
ENDBRANCH   6  10
TORSDOF 2
