REMARK  Name = ZINCkj00000dDfXB.0
REMARK                            x       y       z     vdW  Elec       q    Type
REMARK                         _______ _______ _______ _____ _____    ______ ____
ROOT
ATOM      1  C   LIG    1       -1.186  -0.333  -4.522  0.00  0.00    +0.010 A 
ATOM      2  N   LIG    1       -2.117  -1.259  -4.420  0.00  0.00    -0.250 NA
ATOM      3  N   LIG    1       -2.312  -1.817  -5.561  0.00  0.00    -0.300 N 
ATOM      4  C   LIG    1       -1.492  -1.279  -6.489  0.00  0.00    +0.150 A 
ATOM      5  C   LIG    1       -0.755  -0.327  -5.870  0.00  0.00    +0.010 A 
ENDROOT
BRANCH   3   6
ATOM      6  C   LIG    1       -3.279  -2.887  -5.816  0.00  0.00    +0.270 C 
ATOM      7  C   LIG    1       -4.584  -2.281  -6.342  0.00  0.00    +0.050 C 
ATOM      8  C   LIG    1       -5.561  -3.412  -6.679  0.00  0.00    +0.080 C 
ATOM      9  C   LIG    1       -4.909  -4.355  -7.693  0.00  0.00    +0.270 C 
ATOM     10  N   LIG    1       -3.682  -4.921  -7.122  0.00  0.00    -0.500 N 
ATOM     11  H   LIG    1       -3.284  -5.583  -7.772  0.00  0.00    +0.440 HD
ATOM     12  H   LIG    1       -3.900  -5.392  -6.257  0.00  0.00    +0.430 HD
ATOM     13  C   LIG    1       -2.713  -3.849  -6.862  0.00  0.00    +0.270 C 
ENDBRANCH   3   6
BRANCH   1  16
ATOM     14  C   LIG    1       -1.957  -0.810  -1.851  0.00  0.00    +0.290 C 
ATOM     15  N   LIG    1       -1.098   0.333  -2.169  0.00  0.00    -0.600 N 
ATOM     16  C   LIG    1       -0.682   0.531  -3.435  0.00  0.00    +0.600 C 
ATOM     17  O   LIG    1        0.108   1.422  -3.683  0.00  0.00    -0.520 OA
BRANCH  15  18
ATOM     18  C   LIG    1       -0.691   1.260  -1.110  0.00  0.00    +0.260 C 
ATOM     19  C   LIG    1        0.084   0.488  -0.050  0.00  0.00    +0.030 C 
ATOM     20  C   LIG    1       -0.573   0.577   1.343  0.00  0.00    +0.130 C 
ATOM     21  S   LIG    1       -1.526   2.145   1.239  0.00  0.00    -0.270 S 
ATOM     22  C   LIG    1       -1.948   1.949  -0.541  0.00  0.00    +0.120 C 
ENDBRANCH  15  18
ENDBRANCH   1  16
TORSDOF 3
