REMARK  Name = ZINCnE000001I0A4.0
REMARK                            x       y       z     vdW  Elec       q    Type
REMARK                         _______ _______ _______ _____ _____    ______ ____
ROOT
ATOM      1  N   LIG    1        1.734   4.860  -1.371  0.00  0.00    -0.680 NA
ATOM      2  C   LIG    1        1.247   5.988  -1.818  0.00  0.00    +0.440 A 
ATOM      3  N   LIG    1        0.483   6.883  -1.116  0.00  0.00    -0.530 NA
ATOM      4  N   LIG    1        0.195   7.936  -1.997  0.00  0.00    -0.300 NA
ATOM      5  C   LIG    1        0.751   7.674  -3.131  0.00  0.00    +0.090 A 
ATOM      6  O   LIG    1        1.405   6.497  -3.057  0.00  0.00    -0.290 OA
ENDROOT
BRANCH   1   7
ATOM      7  C   LIG    1        1.476   4.447   0.010  0.00  0.00    +0.310 C 
BRANCH   7  11
ATOM      8  C   LIG    1       -1.103   1.863   0.017  0.00  0.00    -0.040 A 
ATOM      9  C   LIG    1       -0.013   1.076   0.008  0.00  0.00    -0.070 A 
ATOM     10  C   LIG    1        1.111   1.934   0.002  0.00  0.00    -0.090 A 
ATOM     11  C   LIG    1        0.640   3.193   0.012  0.00  0.00    +0.030 A 
ATOM     12  O   LIG    1       -0.702   3.144   0.024  0.00  0.00    -0.170 OA
BRANCH   8  14
ATOM     13  C   LIG    1       -3.011   1.219   1.464  0.00  0.00    +0.030 C 
ATOM     14  C   LIG    1       -2.533   1.387   0.021  0.00  0.00    +0.130 C 
ENDBRANCH   8  14
ENDBRANCH   7  11
ENDBRANCH   1   7
BRANCH   5  15
ATOM     15  C   LIG    1        0.684   8.553  -4.353  0.00  0.00    +0.180 C 
BRANCH  15  16
ATOM     16  C   LIG    1       -0.143   9.801  -4.039  0.00  0.00    +0.220 C 
BRANCH  16  17
ATOM     17  O   LIG    1       -0.206  10.635  -5.198  0.00  0.00    -0.320 OA
BRANCH  17  18
ATOM     18  C   LIG    1       -0.909  11.793  -5.087  0.00  0.00    +0.140 A 
ATOM     19  C   LIG    1       -1.530  12.117  -3.890  0.00  0.00    -0.080 A 
ATOM     20  C   LIG    1       -2.240  13.297  -3.778  0.00  0.00    +0.040 A 
ATOM     21  C   LIG    1       -2.340  14.150  -4.862  0.00  0.00    -0.050 A 
ATOM     22  C   LIG    1       -1.726  13.826  -6.058  0.00  0.00    +0.050 A 
ATOM     23  C   LIG    1       -1.011  12.650  -6.173  0.00  0.00    -0.030 A 
ENDBRANCH  17  18
ENDBRANCH  16  17
ENDBRANCH  15  16
ENDBRANCH   5  15
TORSDOF 7
