REMARK  Name = ZINCpe000027pHj8.0
REMARK                            x       y       z     vdW  Elec       q    Type
REMARK                         _______ _______ _______ _____ _____    ______ ____
ROOT
ATOM      1  C   LIG    1        0.475  -4.821   1.082  0.00  0.00    +0.230 C 
ATOM      2  C   LIG    1        1.475  -5.963   0.827  0.00  0.00    +0.040 C 
ATOM      3  C   LIG    1        2.208  -5.468   2.087  0.00  0.00    +0.290 C 
ATOM      4  N   LIG    1        1.567  -4.165   1.826  0.00  0.00    -0.640 N 
ATOM      5  C   LIG    1        1.862  -2.888   2.141  0.00  0.00    +0.580 C 
ATOM      6  O   LIG    1        1.094  -1.995   1.839  0.00  0.00    -0.520 OA
ENDROOT
BRANCH   5   7
ATOM      7  C   LIG    1        3.118  -2.573   2.854  0.00  0.00    -0.170 A 
ATOM      8  C   LIG    1        3.923  -3.595   3.356  0.00  0.00    +0.280 A 
ATOM      9  N   LIG    1        5.043  -3.319   3.991  0.00  0.00    -0.470 NA
ATOM     10  C   LIG    1        5.451  -2.079   4.179  0.00  0.00    +0.270 A 
ATOM     11  C   LIG    1        4.708  -1.003   3.711  0.00  0.00    +0.050 A 
ATOM     12  C   LIG    1        3.522  -1.244   3.030  0.00  0.00    +0.100 A 
BRANCH  11  13
ATOM     13  O   LIG    1        5.139   0.270   3.911  0.00  0.00    -0.490 OA
ATOM     14  H   LIG    1        5.705   0.610   3.204  0.00  0.00    +0.400 HD
ENDBRANCH  11  13
ENDBRANCH   5   7
BRANCH   1  15
ATOM     15  C   LIG    1        0.056  -4.073  -0.185  0.00  0.00    +0.310 C 
BRANCH  15  17
ATOM     16  C   LIG    1       -0.006  -5.827  -2.018  0.00  0.00    +0.290 C 
ATOM     17  N   LIG    1       -0.706  -4.974  -1.054  0.00  0.00    -0.600 N 
ATOM     18  C   LIG    1       -2.050  -5.018  -0.967  0.00  0.00    +0.560 C 
ATOM     19  O   LIG    1       -2.637  -4.246  -0.234  0.00  0.00    -0.520 OA
BRANCH  18  20
ATOM     20  C   LIG    1       -2.811  -6.004  -1.764  0.00  0.00    -0.170 A 
ATOM     21  C   LIG    1       -2.345  -6.418  -3.012  0.00  0.00    +0.290 A 
ATOM     22  N   LIG    1       -3.019  -7.297  -3.724  0.00  0.00    -0.470 NA
ATOM     23  C   LIG    1       -4.152  -7.820  -3.295  0.00  0.00    +0.270 A 
ATOM     24  C   LIG    1       -4.684  -7.461  -2.064  0.00  0.00    +0.050 A 
ATOM     25  C   LIG    1       -4.009  -6.538  -1.277  0.00  0.00    +0.100 A 
BRANCH  24  26
ATOM     26  O   LIG    1       -5.852  -8.008  -1.635  0.00  0.00    -0.490 OA
ATOM     27  H   LIG    1       -6.639  -7.510  -1.895  0.00  0.00    +0.400 HD
ENDBRANCH  24  26
ENDBRANCH  18  20
ENDBRANCH  15  17
ENDBRANCH   1  15
TORSDOF 6
