REMARK  Name = ZINCvU00000006Rg.0
REMARK                            x       y       z     vdW  Elec       q    Type
REMARK                         _______ _______ _______ _____ _____    ______ ____
ROOT
ATOM      1  C   LIG    1        3.366   0.314  -4.617  0.00  0.00    -0.150 A 
ATOM      2  C   LIG    1        2.103   0.282  -5.212  0.00  0.00    +0.120 A 
ATOM      3  C   LIG    1        0.985   0.050  -4.438  0.00  0.00    +0.010 A 
ATOM      4  C   LIG    1        1.114  -0.157  -3.076  0.00  0.00    +0.170 A 
ATOM      5  C   LIG    1        2.362  -0.121  -2.479  0.00  0.00    -0.690 A 
ATOM      6  C   LIG    1        3.488   0.110  -3.241  0.00  0.00    +0.210 A 
ENDROOT
BRANCH   1   9
ATOM      7  N   LIG    1        4.447   0.757  -6.768  0.00  0.00    -0.620 N 
ATOM      8  H   LIG    1        3.571   0.736  -7.183  0.00  0.00    +0.420 HD
ATOM      9  C   LIG    1        4.568   0.561  -5.440  0.00  0.00    +0.560 C 
ATOM     10  O   LIG    1        5.666   0.588  -4.919  0.00  0.00    -0.490 OA
BRANCH   7  17
ATOM     11  C   LIG    1       10.755   2.016 -10.850  0.00  0.00    +0.110 C 
ATOM     12  C   LIG    1        9.351   1.800 -10.349  0.00  0.00    -0.070 A 
ATOM     13  C   LIG    1        8.285   1.834 -11.235  0.00  0.00    +0.020 A 
ATOM     14  C   LIG    1        7.001   1.639 -10.791  0.00  0.00    -0.030 A 
ATOM     15  C   LIG    1        6.746   1.400  -9.425  0.00  0.00    +0.100 A 
ATOM     16  N   LIG    1        5.565   1.183  -8.812  0.00  0.00    -0.500 NA
ATOM     17  C   LIG    1        5.573   0.989  -7.539  0.00  0.00    +0.310 A 
ATOM     18  S   LIG    1        7.217   1.054  -6.920  0.00  0.00    +0.180 S 
ATOM     19  C   LIG    1        7.830   1.368  -8.542  0.00  0.00    -0.210 A 
ATOM     20  C   LIG    1        5.856   1.680 -11.771  0.00  0.00    +0.100 C 
ATOM     21  C   LIG    1        9.126   1.568  -9.010  0.00  0.00    +0.050 A 
ENDBRANCH   7  17
ENDBRANCH   1   9
BRANCH   5  22
ATOM     22  S   LIG    1        2.513  -0.378  -0.742  0.00  0.00    +2.690 S 
ATOM     23  O   LIG    1        1.361  -1.108  -0.343  0.00  0.00    -0.940 OA
ATOM     24  O   LIG    1        3.840  -0.835  -0.518  0.00  0.00    -0.940 OA
BRANCH  22  25
ATOM     25  N   LIG    1        2.401   1.106  -0.015  0.00  0.00    -1.050 N 
ATOM     26  H   LIG    1        3.139   1.442   0.518  0.00  0.00    +0.430 HD
BRANCH  25  27
ATOM     27  C   LIG    1        1.243   1.875  -0.170  0.00  0.00    +0.120 A 
ATOM     28  C   LIG    1        0.002   1.258  -0.237  0.00  0.00    +0.020 A 
ATOM     29  C   LIG    1       -1.140   2.019  -0.397  0.00  0.00    +0.040 A 
ATOM     30  C   LIG    1       -1.049   3.396  -0.478  0.00  0.00    +0.040 A 
ATOM     31  C   LIG    1        0.186   4.017  -0.411  0.00  0.00    +0.010 A 
ATOM     32  C   LIG    1        1.333   3.260  -0.258  0.00  0.00    +0.080 A 
ATOM     33  F   LIG    1        2.539   3.866  -0.193  0.00  0.00    -0.130 F 
ENDBRANCH  25  27
ENDBRANCH  22  25
ENDBRANCH   5  22
TORSDOF 5
