REMARK  Name = ZINCrg00000yzsg5.0
REMARK                            x       y       z     vdW  Elec       q    Type
REMARK                         _______ _______ _______ _____ _____    ______ ____
ROOT
ATOM      1  N   LIG    1       -2.315   1.688  -1.536  0.00  0.00    -0.460 N 
ATOM      2  C   LIG    1       -3.446   1.120  -1.019  0.00  0.00    +0.150 A 
ATOM      3  N   LIG    1       -3.097   0.467   0.053  0.00  0.00    -0.260 NA
ATOM      4  N   LIG    1       -1.831   0.579   0.244  0.00  0.00    -0.310 NA
ATOM      5  C   LIG    1       -1.302   1.322  -0.699  0.00  0.00    +0.360 A 
ENDROOT
BRANCH   5   6
ATOM      6  N   LIG    1        0.035   1.666  -0.823  0.00  0.00    -0.440 N 
ATOM      7  C   LIG    1        0.195   3.122  -0.943  0.00  0.00    +0.280 C 
ATOM      8  C   LIG    1       -0.057   3.777   0.386  0.00  0.00    +0.480 C 
ATOM      9  N   LIG    1       -0.046   3.100   1.540  0.00  0.00    -0.600 N 
ATOM     10  C   LIG    1        0.180   1.659   1.614  0.00  0.00    +0.210 C 
ATOM     11  C   LIG    1        1.109   1.347   2.789  0.00  0.00    +0.050 C 
ATOM     12  C   LIG    1       -0.268   3.838   2.786  0.00  0.00    +0.290 C 
ATOM     13  O   LIG    1       -0.280   4.968   0.413  0.00  0.00    -0.540 OA
ATOM     14  C   LIG    1        0.818   1.161   0.316  0.00  0.00    +0.270 C 
ENDBRANCH   5   6
BRANCH   1  16
ATOM     15  C   LIG    1       -2.579   3.962  -2.397  0.00  0.00    +0.050 C 
ATOM     16  C   LIG    1       -2.212   2.517  -2.740  0.00  0.00    +0.300 C 
ENDBRANCH   1  16
BRANCH   2  17
ATOM     17  C   LIG    1       -4.839   1.230  -1.584  0.00  0.00    +0.430 C 
BRANCH  17  18
ATOM     18  N   LIG    1       -5.117   0.064  -2.426  0.00  0.00    -0.540 N 
ATOM     19  C   LIG    1       -4.968   0.051  -3.761  0.00  0.00    +0.530 C 
ATOM     20  C   LIG    1       -5.356  -1.331  -4.240  0.00  0.00    +0.140 C 
ATOM     21  C   LIG    1       -5.744  -2.063  -2.976  0.00  0.00    -0.140 A 
ATOM     22  C   LIG    1       -6.189  -3.342  -2.734  0.00  0.00    +0.060 A 
ATOM     23  C   LIG    1       -6.473  -3.741  -1.439  0.00  0.00    +0.000 A 
ATOM     24  C   LIG    1       -6.308  -2.852  -0.393  0.00  0.00    +0.040 A 
ATOM     25  C   LIG    1       -5.862  -1.568  -0.633  0.00  0.00    +0.010 A 
ATOM     26  O   LIG    1       -4.592   0.974  -4.453  0.00  0.00    -0.500 OA
ATOM     27  C   LIG    1       -5.574  -1.159  -1.934  0.00  0.00    +0.140 A 
ENDBRANCH  17  18
ENDBRANCH   2  17
TORSDOF 4
