REMARK  Name = ZINCpk00000kUO3G.0
REMARK                            x       y       z     vdW  Elec       q    Type
REMARK                         _______ _______ _______ _____ _____    ______ ____
ROOT
ATOM      1  S   LIG    1        5.657   1.165  -1.744  0.00  0.00    +2.700 S 
ATOM      2  O   LIG    1        5.930   2.360  -1.025  0.00  0.00    -0.950 OA
ATOM      3  O   LIG    1        5.810   1.054  -3.153  0.00  0.00    -0.960 OA
ENDROOT
BRANCH   1  11
ATOM      4  C   LIG    1        8.067  -3.924  -3.028  0.00  0.00    +0.310 C 
ATOM      5  N   LIG    1        8.305  -3.383  -1.688  0.00  0.00    -0.490 N 
ATOM      6  C   LIG    1        9.053  -3.989  -0.716  0.00  0.00    +0.240 A 
ATOM      7  C   LIG    1        9.069  -3.229   0.391  0.00  0.00    -0.060 A 
ATOM      8  C   LIG    1        8.265  -2.039   0.105  0.00  0.00    -0.060 A 
ATOM      9  C   LIG    1        7.913  -0.906   0.840  0.00  0.00    +0.040 A 
ATOM     10  C   LIG    1        7.130   0.057   0.269  0.00  0.00    +0.080 A 
ATOM     11  C   LIG    1        6.672  -0.087  -1.033  0.00  0.00    -0.660 A 
ATOM     12  C   LIG    1        7.007  -1.197  -1.777  0.00  0.00    +0.130 A 
ATOM     13  C   LIG    1        7.808  -2.187  -1.218  0.00  0.00    +0.070 A 
ENDBRANCH   1  11
BRANCH   1  14
ATOM     14  N   LIG    1        4.084   0.769  -1.413  0.00  0.00    -1.110 NA
ATOM     15  H   LIG    1        3.477   0.545  -2.136  0.00  0.00    +0.420 HD
BRANCH  14  16
ATOM     16  C   LIG    1        3.608   0.755  -0.027  0.00  0.00    +0.390 C 
BRANCH  16  17
ATOM     17  C   LIG    1        2.102   0.732  -0.013  0.00  0.00    +0.080 A 
ATOM     18  N   LIG    1        1.315   1.782  -0.001  0.00  0.00    -0.270 NA
ATOM     19  N   LIG    1       -0.016   1.335   0.009  0.00  0.00    -0.350 N 
ATOM     20  C   LIG    1        0.002  -0.004   0.002  0.00  0.00    +0.090 A 
ATOM     21  C   LIG    1       -1.153  -0.975   0.004  0.00  0.00    +0.100 C 
ATOM     22  C   LIG    1       -0.608  -2.350  -0.406  0.00  0.00    +0.240 C 
ATOM     23  O   LIG    1        0.574  -2.643   0.344  0.00  0.00    -0.380 OA
ATOM     24  C   LIG    1        1.716  -1.855  -0.019  0.00  0.00    +0.300 C 
ATOM     25  C   LIG    1       -1.211   2.183   0.020  0.00  0.00    +0.360 C 
ATOM     26  C   LIG    1        1.302  -0.405  -0.011  0.00  0.00    -0.270 A 
ENDBRANCH  16  17
ENDBRANCH  14  16
ENDBRANCH   1  14
TORSDOF 4
