REMARK  Name = ZINCb70000003YPQ.0
REMARK                            x       y       z     vdW  Elec       q    Type
REMARK                         _______ _______ _______ _____ _____    ______ ____
ROOT
ATOM      1  C   LIG    1       -0.013   1.086   0.008  0.00  0.00    +0.090 C 
ATOM      2  C   LIG    1       -0.729   1.579   1.267  0.00  0.00    -0.520 C 
ATOM      3  C   LIG    1       -0.703   3.114   1.327  0.00  0.00    +0.020 C 
ATOM      4  C   LIG    1        0.079   3.634   2.535  0.00  0.00    +0.060 C 
ATOM      5  C   LIG    1       -0.039   2.600   3.684  0.00  0.00    -0.280 C 
ATOM      6  C   LIG    1       -2.171   1.070   1.289  0.00  0.00    +0.120 C 
ATOM      7  S   LIG    1        0.165   1.020   2.766  0.00  0.00    +2.390 S 
ATOM      8  O   LIG    1        1.537   0.822   2.457  0.00  0.00    -0.910 OA
ATOM      9  O   LIG    1       -0.579  -0.005   3.410  0.00  0.00    -0.910 OA
ENDROOT
BRANCH   3  10
ATOM     10  C   LIG    1       -0.055   3.650   0.048  0.00  0.00    +0.290 C 
BRANCH  10  11
ATOM     11  N   LIG    1       -0.132   5.117   0.038  0.00  0.00    -0.640 N 
ATOM     12  H   LIG    1        0.355   5.485   0.842  0.00  0.00    +0.430 HD
ATOM     13  H   LIG    1       -1.099   5.403   0.071  0.00  0.00    +0.440 HD
ATOM     14  H   LIG    1        0.295   5.470  -0.805  0.00  0.00    +0.440 HD
ENDBRANCH  10  11
ENDBRANCH   3  10
TORSDOF 2
