REMARK  Name = ZINCpe00000gN3xt.0
REMARK                            x       y       z     vdW  Elec       q    Type
REMARK                         _______ _______ _______ _____ _____    ______ ____
ROOT
ATOM      1  C   LIG    1       -2.706   0.481   2.208  0.00  0.00    +0.520 C 
ATOM      2  N   LIG    1       -2.141   1.172   1.198  0.00  0.00    -0.610 N 
ATOM      3  C   LIG    1       -0.731   1.581   1.267  0.00  0.00    +0.260 C 
ATOM      4  C   LIG    1       -0.013   1.086   0.008  0.00  0.00    +0.010 C 
ATOM      5  C   LIG    1       -0.754   1.593  -1.231  0.00  0.00    +0.050 C 
ATOM      6  C   LIG    1       -2.180   1.036  -1.238  0.00  0.00    -0.030 C 
ATOM      7  C   LIG    1       -2.923   1.530   0.007  0.00  0.00    +0.310 C 
ATOM      8  O   LIG    1       -3.871   0.149   2.139  0.00  0.00    -0.500 OA
ENDROOT
BRANCH   6   9
ATOM      9  C   LIG    1       -2.898   1.510  -2.475  0.00  0.00    -0.080 A 
ATOM     10  C   LIG    1       -2.249   2.328  -3.381  0.00  0.00    +0.000 A 
ATOM     11  C   LIG    1       -2.908   2.760  -4.517  0.00  0.00    -0.010 A 
ATOM     12  C   LIG    1       -4.218   2.381  -4.744  0.00  0.00    +0.000 A 
ATOM     13  C   LIG    1       -4.868   1.567  -3.835  0.00  0.00    +0.000 A 
ATOM     14  C   LIG    1       -4.209   1.132  -2.700  0.00  0.00    +0.050 A 
ENDBRANCH   6   9
BRANCH   1  15
ATOM     15  C   LIG    1       -1.891   0.121   3.423  0.00  0.00    +0.220 C 
BRANCH  15  16
ATOM     16  O   LIG    1       -2.707  -0.604   4.346  0.00  0.00    -0.350 OA
BRANCH  16  17
ATOM     17  C   LIG    1       -2.026  -0.996   5.540  0.00  0.00    +0.310 C 
BRANCH  17  23
ATOM     18  C   LIG    1       -3.864   0.206   7.739  0.00  0.00    +0.370 C 
ATOM     19  N   LIG    1       -3.763  -1.211   7.382  0.00  0.00    -0.370 N 
ATOM     20  N   LIG    1       -4.473  -2.277   7.958  0.00  0.00    -0.310 NA
ATOM     21  C   LIG    1       -4.079  -3.365   7.352  0.00  0.00    +0.420 A 
ATOM     22  N   LIG    1       -3.173  -3.043   6.430  0.00  0.00    -0.520 NA
ATOM     23  C   LIG    1       -2.975  -1.750   6.435  0.00  0.00    +0.270 A 
ENDBRANCH  17  23
ENDBRANCH  16  17
ENDBRANCH  15  16
ENDBRANCH   1  15
BRANCH   6  24
ATOM     24  C   LIG    1       -2.130  -0.493  -1.230  0.00  0.00    +0.190 C 
BRANCH  24  25
ATOM     25  O   LIG    1       -3.461  -1.012  -1.237  0.00  0.00    -0.560 OA
ATOM     26  H   LIG    1       -3.506  -1.978  -1.233  0.00  0.00    +0.380 HD
ENDBRANCH  24  25
ENDBRANCH   6  24
TORSDOF 7
