REMARK  Name = ZINCpk00000y6weG.0
REMARK                            x       y       z     vdW  Elec       q    Type
REMARK                         _______ _______ _______ _____ _____    ______ ____
ROOT
ATOM      1  C   LIG    1       -2.500   4.664  -1.794  0.00  0.00    +0.580 C 
ATOM      2  N   LIG    1       -2.909   4.379  -0.541  0.00  0.00    -0.700 N 
ATOM      3  H   LIG    1       -2.660   4.961   0.194  0.00  0.00    +0.410 HD
ATOM      4  O   LIG    1       -2.811   3.935  -2.715  0.00  0.00    -0.520 OA
ENDROOT
BRANCH   2   5
ATOM      5  C   LIG    1       -3.728   3.191  -0.290  0.00  0.00    +0.230 C 
ATOM      6  C   LIG    1       -4.554   3.399   0.981  0.00  0.00    +0.060 C 
ATOM      7  C   LIG    1       -3.618   3.667   2.162  0.00  0.00    +0.040 C 
ATOM      8  C   LIG    1       -2.707   2.453   2.371  0.00  0.00    +0.220 C 
ATOM      9  N   LIG    1       -2.017   2.156   1.108  0.00  0.00    -0.610 N 
ATOM     10  C   LIG    1       -0.673   2.057   1.067  0.00  0.00    +0.510 C 
ATOM     11  O   LIG    1       -0.030   2.106   2.094  0.00  0.00    -0.520 OA
ATOM     12  C   LIG    1        0.030   1.884  -0.255  0.00  0.00    +0.110 C 
ATOM     13  C   LIG    1       -2.818   1.977  -0.110  0.00  0.00    +0.290 C 
BRANCH   8  14
ATOM     14  C   LIG    1       -1.677   2.762   3.459  0.00  0.00    +0.470 C 
ATOM     15  F   LIG    1       -0.948   1.605   3.753  0.00  0.00    -0.160 F 
ATOM     16  F   LIG    1       -2.334   3.205   4.611  0.00  0.00    -0.190 F 
ATOM     17  F   LIG    1       -0.806   3.759   3.006  0.00  0.00    -0.170 F 
ENDBRANCH   8  14
ENDBRANCH   2   5
BRANCH   1  20
ATOM     18  C   LIG    1       -0.583   7.746  -1.271  0.00  0.00    +0.570 A 
ATOM     19  N   LIG    1       -1.323   6.673  -1.047  0.00  0.00    -0.560 NA
ATOM     20  C   LIG    1       -1.670   5.868  -2.049  0.00  0.00    +0.170 A 
ATOM     21  C   LIG    1       -1.236   6.169  -3.339  0.00  0.00    -0.070 A 
ATOM     22  C   LIG    1       -0.466   7.308  -3.529  0.00  0.00    +0.220 A 
ATOM     23  C   LIG    1        0.021   7.678  -4.906  0.00  0.00    +0.160 C 
ATOM     24  N   LIG    1       -0.161   8.061  -2.487  0.00  0.00    -0.550 NA
BRANCH  18  26
ATOM     25  C   LIG    1        0.579   9.756  -0.432  0.00  0.00    +0.300 C 
ATOM     26  N   LIG    1       -0.240   8.562  -0.206  0.00  0.00    -0.700 N 
ATOM     27  H   LIG    1       -0.542   8.343   0.690  0.00  0.00    +0.420 HD
ENDBRANCH  18  26
ENDBRANCH   1  20
TORSDOF 4
