REMARK  Name = ZINCqH0000002DqY.0
REMARK                            x       y       z     vdW  Elec       q    Type
REMARK                         _______ _______ _______ _____ _____    ______ ____
ROOT
ATOM      1  C   LIG    1       -4.017   1.951   0.768  0.00  0.00    +0.140 A 
ATOM      2  N   LIG    1       -3.921   3.179   0.315  0.00  0.00    -0.280 NA
ATOM      3  N   LIG    1       -5.030   3.804   0.494  0.00  0.00    -0.270 NA
ATOM      4  C   LIG    1       -5.904   3.013   1.073  0.00  0.00    +0.280 A 
ATOM      5  N   LIG    1       -5.284   1.799   1.261  0.00  0.00    -0.430 N 
ENDROOT
BRANCH   4   6
ATOM      6  C   LIG    1       -7.290   3.358   1.445  0.00  0.00    -0.110 A 
ATOM      7  C   LIG    1       -8.236   2.510   1.924  0.00  0.00    +0.260 A 
ATOM      8  N   LIG    1       -9.395   3.195   2.153  0.00  0.00    -0.580 N 
ATOM      9  H   LIG    1      -10.213   2.803   2.498  0.00  0.00    +0.420 HD
ATOM     10  C   LIG    1       -9.235   4.524   1.825  0.00  0.00    +0.100 A 
ATOM     11  C   LIG    1      -10.084   5.625   1.869  0.00  0.00    -0.010 A 
ATOM     12  C   LIG    1       -9.629   6.861   1.466  0.00  0.00    +0.040 A 
ATOM     13  C   LIG    1       -8.327   7.023   1.014  0.00  0.00    -0.010 A 
ATOM     14  C   LIG    1       -7.470   5.946   0.964  0.00  0.00    +0.070 A 
ATOM     15  C   LIG    1       -7.914   4.690   1.373  0.00  0.00    -0.070 A 
ENDBRANCH   4   6
BRANCH   5  16
ATOM     16  C   LIG    1       -5.860   0.595   1.867  0.00  0.00    +0.190 C 
ATOM     17  C   LIG    1       -4.893  -0.506   2.307  0.00  0.00    +0.070 C 
ATOM     18  C   LIG    1       -5.772  -0.708   1.069  0.00  0.00    +0.060 C 
ENDBRANCH   5  16
BRANCH   1  19
ATOM     19  S   LIG    1       -2.752   0.725   0.740  0.00  0.00    +0.080 S 
BRANCH  19  20
ATOM     20  C   LIG    1       -1.422   1.664  -0.050  0.00  0.00    -0.010 C 
ATOM     21  C   LIG    1       -1.826   2.016  -1.483  0.00  0.00    +0.090 C 
BRANCH  20  24
ATOM     22  N   LIG    1        1.040   1.435  -0.133  0.00  0.00    -0.720 N 
ATOM     23  H   LIG    1        1.098   2.403  -0.159  0.00  0.00    +0.400 HD
ATOM     24  C   LIG    1       -0.165   0.833  -0.072  0.00  0.00    +0.540 C 
ATOM     25  O   LIG    1       -0.237  -0.377  -0.041  0.00  0.00    -0.520 OA
BRANCH  22  26
ATOM     26  C   LIG    1        2.261   0.627  -0.161  0.00  0.00    +0.260 C 
BRANCH  26  28
ATOM     27  C   LIG    1        4.757   0.704  -0.259  0.00  0.00    +0.030 C 
ATOM     28  C   LIG    1        3.481   1.548  -0.230  0.00  0.00    +0.000 C 
ENDBRANCH  26  28
ENDBRANCH  22  26
ENDBRANCH  20  24
ENDBRANCH  19  20
ENDBRANCH   1  19
TORSDOF 7
