REMARK  Name = ZINCqH0000038b6e.0
REMARK                            x       y       z     vdW  Elec       q    Type
REMARK                         _______ _______ _______ _____ _____    ______ ____
ROOT
ATOM      1  C   LIG    1        3.609   5.889  -0.002  0.00  0.00    +0.010 A 
ATOM      2  N   LIG    1        4.273   6.180  -1.064  0.00  0.00    -0.430 NA
ATOM      3  C   LIG    1        5.485   6.707  -0.866  0.00  0.00    +0.010 A 
ATOM      4  C   LIG    1        5.814   6.836   0.439  0.00  0.00    -0.010 A 
ATOM      5  S   LIG    1        4.516   6.266   1.395  0.00  0.00    +0.290 S 
ENDROOT
BRANCH   3   6
ATOM      6  C   LIG    1        6.380   7.105  -1.965  0.00  0.00    +0.610 C 
ATOM      7  N   LIG    1        5.986   6.948  -3.245  0.00  0.00    -0.500 N 
ATOM      8  H   LIG    1        5.114   6.573  -3.441  0.00  0.00    +0.440 HD
ATOM      9  O   LIG    1        7.474   7.575  -1.719  0.00  0.00    -0.510 OA
BRANCH   7  10
ATOM     10  N   LIG    1        6.838   7.327  -4.291  0.00  0.00    -0.300 N 
ATOM     11  C   LIG    1        8.079   7.869  -4.164  0.00  0.00    +0.520 A 
ATOM     12  N   LIG    1        8.590   8.096  -5.339  0.00  0.00    -0.480 NA
ATOM     13  C   LIG    1        7.707   7.724  -6.301  0.00  0.00    +0.060 A 
ATOM     14  C   LIG    1        7.735   7.751  -7.697  0.00  0.00    +0.070 A 
ATOM     15  C   LIG    1        6.661   7.294  -8.408  0.00  0.00    +0.010 A 
ATOM     16  C   LIG    1        5.539   6.802  -7.758  0.00  0.00    +0.030 A 
ATOM     17  C   LIG    1        5.489   6.766  -6.381  0.00  0.00    +0.010 A 
ATOM     18  C   LIG    1        6.570   7.225  -5.641  0.00  0.00    +0.040 A 
ENDBRANCH   7  10
ENDBRANCH   3   6
BRANCH   1  19
ATOM     19  C   LIG    1        2.225   5.292   0.009  0.00  0.00    +0.330 C 
BRANCH  19  20
ATOM     20  O   LIG    1        2.322   3.866   0.000  0.00  0.00    -0.310 OA
BRANCH  20  25
ATOM     21  C   LIG    1       -2.513   0.977   0.019  0.00  0.00    +0.100 C 
ATOM     22  C   LIG    1       -1.220   1.750   0.017  0.00  0.00    -0.120 A 
ATOM     23  C   LIG    1       -0.013   1.076   0.008  0.00  0.00    +0.050 A 
ATOM     24  C   LIG    1        1.175   1.782   0.000  0.00  0.00    -0.010 A 
ATOM     25  C   LIG    1        1.155   3.169   0.008  0.00  0.00    +0.120 A 
ATOM     26  C   LIG    1       -0.057   3.844   0.023  0.00  0.00    -0.070 A 
ATOM     27  C   LIG    1       -1.242   3.133   0.031  0.00  0.00    +0.050 A 
ENDBRANCH  20  25
ENDBRANCH  19  20
ENDBRANCH   1  19
TORSDOF 5
