REMARK  Name = ZINCpk00000eb4aE.0
REMARK                            x       y       z     vdW  Elec       q    Type
REMARK                         _______ _______ _______ _____ _____    ______ ____
ROOT
ATOM      1  N   LIG    1       -0.989   1.750  -6.076  0.00  0.00    -0.710 N 
ATOM      2  H   LIG    1       -1.785   2.296  -5.976  0.00  0.00    +0.410 HD
ENDROOT
BRANCH   1   6
ATOM      3  C   LIG    1        0.309   0.853  -9.843  0.00  0.00    +0.270 A 
ATOM      4  C   LIG    1        1.049   0.346  -8.775  0.00  0.00    +0.090 A 
ATOM      5  C   LIG    1        0.622   0.641  -7.491  0.00  0.00    +0.010 A 
ATOM      6  C   LIG    1       -0.521   1.427  -7.346  0.00  0.00    +0.330 A 
ATOM      7  N   LIG    1       -1.164   1.860  -8.420  0.00  0.00    -0.270 NA
ATOM      8  N   LIG    1       -0.764   1.591  -9.610  0.00  0.00    -0.220 NA
BRANCH   3  12
ATOM      9  C   LIG    1        2.879  -0.919 -13.695  0.00  0.00    +0.160 C 
ATOM     10  C   LIG    1        1.847  -0.208 -12.857  0.00  0.00    +0.090 A 
ATOM     11  N   LIG    1        1.813  -0.175 -11.550  0.00  0.00    -0.290 NA
ATOM     12  N   LIG    1        0.701   0.582 -11.159  0.00  0.00    -0.320 N 
ATOM     13  C   LIG    1        0.074   1.011 -12.285  0.00  0.00    +0.260 A 
ATOM     14  C   LIG    1        0.766   0.534 -13.345  0.00  0.00    -0.100 A 
ENDBRANCH   3  12
ENDBRANCH   1   6
BRANCH   1  15
ATOM     15  C   LIG    1       -0.281   1.264  -4.889  0.00  0.00    +0.300 C 
BRANCH  15  16
ATOM     16  C   LIG    1       -0.997   1.758  -3.630  0.00  0.00    +0.070 C 
BRANCH  16  17
ATOM     17  C   LIG    1       -0.268   1.258  -2.409  0.00  0.00    +0.520 C 
ATOM     18  N   LIG    1       -0.721   1.571  -1.179  0.00  0.00    -0.730 N 
ATOM     19  H   LIG    1       -1.516   2.118  -1.079  0.00  0.00    +0.400 HD
ATOM     20  O   LIG    1        0.726   0.575  -2.534  0.00  0.00    -0.530 OA
BRANCH  18  21
ATOM     21  C   LIG    1       -0.013   1.086   0.008  0.00  0.00    +0.320 C 
BRANCH  21  22
ATOM     22  C   LIG    1       -0.718   1.572   1.248  0.00  0.00    -0.070 A 
ATOM     23  C   LIG    1       -0.372   2.780   1.834  0.00  0.00    -0.010 A 
ATOM     24  C   LIG    1       -1.044   3.195   2.968  0.00  0.00    +0.260 A 
ATOM     25  N   LIG    1       -1.996   2.453   3.498  0.00  0.00    -0.480 NA
ATOM     26  C   LIG    1       -2.349   1.297   2.970  0.00  0.00    +0.260 A 
ATOM     27  C   LIG    1       -1.725   0.819   1.833  0.00  0.00    -0.010 A 
ENDBRANCH  21  22
ENDBRANCH  18  21
ENDBRANCH  16  17
ENDBRANCH  15  16
ENDBRANCH   1  15
TORSDOF 7
