REMARK  Name = ZINCrD0000075MaJ.0
REMARK                            x       y       z     vdW  Elec       q    Type
REMARK                         _______ _______ _______ _____ _____    ______ ____
ROOT
ATOM      1  C   LIG    1        4.824  -3.108  -0.328  0.00  0.00    +0.180 A 
ATOM      2  C   LIG    1        6.040  -2.437  -0.332  0.00  0.00    -0.030 A 
ATOM      3  C   LIG    1        6.071  -1.059  -0.223  0.00  0.00    +0.050 A 
ATOM      4  C   LIG    1        4.894  -0.345  -0.110  0.00  0.00    +0.010 A 
ATOM      5  C   LIG    1        3.674  -1.011  -0.106  0.00  0.00    +0.160 A 
ATOM      6  C   LIG    1        3.639  -2.394  -0.210  0.00  0.00    +0.000 A 
ENDROOT
BRANCH   1  11
ATOM      7  O   LIG    1        2.873  -4.442  -1.553  0.00  0.00    -0.570 OA
ATOM      8  C   LIG    1        3.793  -5.104  -1.112  0.00  0.00    +0.710 C 
ATOM      9  N   LIG    1        3.812  -6.438  -1.298  0.00  0.00    -0.710 N 
ATOM     10  H   LIG    1        4.546  -6.966  -0.947  0.00  0.00    +0.400 HD
ATOM     11  N   LIG    1        4.793  -4.502  -0.438  0.00  0.00    -0.680 N 
ATOM     12  H   LIG    1        5.492  -5.037  -0.029  0.00  0.00    +0.410 HD
BRANCH   9  13
ATOM     13  C   LIG    1        2.725  -7.092  -2.031  0.00  0.00    +0.240 C 
ATOM     14  C   LIG    1        2.167  -8.394  -1.454  0.00  0.00    +0.010 C 
ATOM     15  C   LIG    1        3.035  -8.425  -2.714  0.00  0.00    +0.020 C 
ENDBRANCH   9  13
ENDBRANCH   1  11
BRANCH   5  16
ATOM     16  N   LIG    1        2.482  -0.288   0.007  0.00  0.00    -0.670 N 
ATOM     17  H   LIG    1        1.733  -0.661   0.498  0.00  0.00    +0.410 HD
ATOM     18  C   LIG    1        2.374   0.928  -0.564  0.00  0.00    +0.560 C 
ATOM     19  O   LIG    1        3.339   1.432  -1.107  0.00  0.00    -0.510 OA
BRANCH  18  20
ATOM     20  C   LIG    1        1.086   1.647  -0.532  0.00  0.00    -0.130 A 
ATOM     21  C   LIG    1       -0.022   1.069   0.090  0.00  0.00    +0.070 A 
ATOM     22  C   LIG    1       -1.228   1.738   0.116  0.00  0.00    +0.030 A 
ATOM     23  C   LIG    1       -1.336   2.991  -0.469  0.00  0.00    +0.100 A 
ATOM     24  O   LIG    1       -2.523   3.660  -0.441  0.00  0.00    -0.320 OA
ATOM     25  C   LIG    1       -2.558   4.840   0.363  0.00  0.00    +0.230 C 
ATOM     26  C   LIG    1       -2.033   6.038  -0.413  0.00  0.00    -0.010 C 
ATOM     27  C   LIG    1       -0.561   5.897  -0.769  0.00  0.00    +0.230 C 
ATOM     28  O   LIG    1       -0.360   4.804  -1.667  0.00  0.00    -0.310 OA
ATOM     29  C   LIG    1       -0.236   3.573  -1.091  0.00  0.00    +0.060 A 
ATOM     30  C   LIG    1        0.973   2.909  -1.126  0.00  0.00    +0.100 A 
ENDBRANCH  18  20
ENDBRANCH   5  16
TORSDOF 4
