REMARK  Name = ZINCAx0000000aes.0
REMARK                            x       y       z     vdW  Elec       q    Type
REMARK                         _______ _______ _______ _____ _____    ______ ____
ROOT
ATOM      1  O   LIG    1       -6.093  -0.079   0.995  0.00  0.00    -0.490 OA
ATOM      2  C   LIG    1       -4.917   0.040   0.720  0.00  0.00    +0.500 C 
ATOM      3  N   LIG    1       -3.985  -0.069   1.687  0.00  0.00    -0.670 N 
ATOM      4  H   LIG    1       -3.043  -0.042   1.458  0.00  0.00    +0.420 HD
ENDROOT
BRANCH   3   5
ATOM      5  C   LIG    1       -4.376  -0.222   3.022  0.00  0.00    +0.120 A 
ATOM      6  C   LIG    1       -3.624   0.353   4.038  0.00  0.00    +0.050 A 
ATOM      7  C   LIG    1       -4.016   0.205   5.354  0.00  0.00    +0.020 A 
ATOM      8  C   LIG    1       -5.149  -0.525   5.661  0.00  0.00    +0.110 A 
ATOM      9  C   LIG    1       -5.897  -1.105   4.652  0.00  0.00    -0.660 A 
ATOM     10  C   LIG    1       -5.514  -0.955   3.334  0.00  0.00    +0.130 A 
BRANCH   9  11
ATOM     11  S   LIG    1       -7.341  -2.034   5.049  0.00  0.00    +2.680 S 
ATOM     12  O   LIG    1       -8.160  -2.017   3.889  0.00  0.00    -0.940 OA
ATOM     13  O   LIG    1       -7.780  -1.569   6.318  0.00  0.00    -0.950 OA
BRANCH  11  14
ATOM     14  N   LIG    1       -6.868  -3.606   5.265  0.00  0.00    -0.990 NA
ATOM     15  C   LIG    1       -6.868  -4.493   4.123  0.00  0.00    +0.280 C 
ATOM     16  C   LIG    1       -8.247  -5.172   3.986  0.00  0.00    +0.010 C 
ATOM     17  C   LIG    1       -8.440  -6.158   5.060  0.00  0.00    +0.000 C 
ATOM     18  C   LIG    1       -8.448  -5.563   6.465  0.00  0.00    +0.010 C 
ATOM     19  C   LIG    1       -7.029  -5.437   6.963  0.00  0.00    +0.020 C 
ATOM     20  C   LIG    1       -6.469  -4.046   6.616  0.00  0.00    +0.270 C 
ENDBRANCH  11  14
ENDBRANCH   9  11
ENDBRANCH   3   5
BRANCH   2  21
ATOM     21  C   LIG    1       -4.499   0.309  -0.703  0.00  0.00    +0.360 C 
BRANCH  21  22
ATOM     22  N   LIG    1       -5.688   0.383  -1.555  0.00  0.00    -0.530 N 
ATOM     23  C   LIG    1       -6.307   1.575  -1.750  0.00  0.00    +0.630 A 
ATOM     24  N   LIG    1       -7.362   1.713  -2.498  0.00  0.00    -0.520 NA
ATOM     25  C   LIG    1       -7.922   0.671  -3.133  0.00  0.00    +0.340 A 
ATOM     26  C   LIG    1       -7.354  -0.605  -2.987  0.00  0.00    -0.330 A 
ATOM     27  C   LIG    1       -8.130  -1.497  -3.750  0.00  0.00    +0.340 A 
ATOM     28  N   LIG    1       -9.094  -0.824  -4.316  0.00  0.00    -0.260 NA
ATOM     29  N   LIG    1       -8.996   0.526  -3.956  0.00  0.00    -0.300 N 
ATOM     30  C   LIG    1       -6.168  -0.739  -2.141  0.00  0.00    +0.580 A 
ATOM     31  O   LIG    1       -5.630  -1.819  -1.975  0.00  0.00    -0.510 OA
BRANCH  29  32
ATOM     32  C   LIG    1       -9.856   1.551  -4.371  0.00  0.00    +0.140 A 
ATOM     33  C   LIG    1      -10.169   2.590  -3.505  0.00  0.00    +0.030 A 
ATOM     34  C   LIG    1      -11.012   3.603  -3.920  0.00  0.00    +0.030 A 
ATOM     35  C   LIG    1      -11.554   3.575  -5.192  0.00  0.00    +0.020 A 
ATOM     36  C   LIG    1      -11.249   2.538  -6.054  0.00  0.00    +0.030 A 
ATOM     37  C   LIG    1      -10.402   1.527  -5.648  0.00  0.00    +0.020 A 
ENDBRANCH  29  32
ENDBRANCH  21  22
ENDBRANCH   2  21
TORSDOF 6
