REMARK  Name = ZINCrH000004s5QT.0
REMARK                            x       y       z     vdW  Elec       q    Type
REMARK                         _______ _______ _______ _____ _____    ______ ____
ROOT
ATOM      1  C   LIG    1       -2.167   4.234  -1.921  0.00  0.00    +0.050 C 
ENDROOT
BRANCH   1   7
ATOM      2  C   LIG    1        0.895   3.123   0.174  0.00  0.00    +0.270 C 
ATOM      3  C   LIG    1        1.024   3.484   1.669  0.00  0.00    +0.050 C 
ATOM      4  C   LIG    1        0.089   4.714   1.812  0.00  0.00    +0.040 C 
ATOM      5  C   LIG    1       -1.051   4.354   0.826  0.00  0.00    +0.250 C 
ATOM      6  N   LIG    1       -0.375   3.687  -0.306  0.00  0.00    -0.620 N 
ATOM      7  C   LIG    1       -0.843   3.607  -1.567  0.00  0.00    +0.530 C 
ATOM      8  O   LIG    1       -0.198   3.032  -2.418  0.00  0.00    -0.530 OA
BRANCH   2  15
ATOM      9  C   LIG    1        3.386   1.659   0.154  0.00  0.00    +0.090 C 
ATOM     10  C   LIG    1        2.079   0.925  -0.003  0.00  0.00    -0.080 A 
ATOM     11  C   LIG    1        2.072  -0.449  -0.155  0.00  0.00    +0.000 A 
ATOM     12  C   LIG    1        0.873  -1.122  -0.299  0.00  0.00    +0.000 A 
ATOM     13  C   LIG    1       -0.319  -0.421  -0.290  0.00  0.00    +0.000 A 
ATOM     14  C   LIG    1       -0.311   0.953  -0.137  0.00  0.00    +0.020 A 
ATOM     15  C   LIG    1        0.887   1.626   0.007  0.00  0.00    -0.080 A 
ENDBRANCH   2  15
ENDBRANCH   1   7
BRANCH   1  16
ATOM     16  C   LIG    1       -2.461   4.001  -3.404  0.00  0.00    +0.330 C 
BRANCH  16  17
ATOM     17  C   LIG    1       -3.723   4.731  -3.786  0.00  0.00    -0.100 A 
ATOM     18  C   LIG    1       -4.565   5.216  -2.804  0.00  0.00    +0.050 A 
ATOM     19  C   LIG    1       -5.721   5.889  -3.154  0.00  0.00    -0.010 A 
ATOM     20  C   LIG    1       -6.039   6.069  -4.487  0.00  0.00    +0.010 A 
ATOM     21  C   LIG    1       -5.199   5.578  -5.470  0.00  0.00    -0.010 A 
ATOM     22  C   LIG    1       -4.042   4.909  -5.120  0.00  0.00    -0.070 A 
ATOM     23  C   LIG    1       -3.127   4.374  -6.191  0.00  0.00    +0.090 C 
ENDBRANCH  16  17
BRANCH  16  24
ATOM     24  N   LIG    1       -2.633   2.567  -3.649  0.00  0.00    -0.730 N 
ATOM     25  H   LIG    1       -2.018   2.098  -4.234  0.00  0.00    +0.400 HD
ATOM     26  C   LIG    1       -3.646   1.899  -3.061  0.00  0.00    +0.710 C 
ATOM     27  O   LIG    1       -4.470   2.503  -2.402  0.00  0.00    -0.590 OA
ATOM     28  N   LIG    1       -3.744   0.563  -3.204  0.00  0.00    -0.870 N 
ATOM     29  H   LIG    1       -4.473   0.082  -2.780  0.00  0.00    +0.410 HD
ATOM     30  H   LIG    1       -3.087   0.081  -3.729  0.00  0.00    +0.400 HD
ENDBRANCH  16  24
ENDBRANCH   1  16
TORSDOF 5
