REMARK  Name = ZINCqH00000014j2.0
REMARK                            x       y       z     vdW  Elec       q    Type
REMARK                         _______ _______ _______ _____ _____    ______ ____
ROOT
ATOM      1  C   LIG    1       -2.143   1.058   1.278  0.00  0.00    +0.120 A 
ATOM      2  N   LIG    1       -2.452  -0.184   1.268  0.00  0.00    -0.470 NA
ATOM      3  C   LIG    1       -3.759  -0.506   1.284  0.00  0.00    +0.140 A 
ATOM      4  C   LIG    1       -4.373  -1.775   1.282  0.00  0.00    +0.070 A 
ATOM      5  C   LIG    1       -5.731  -1.884   1.294  0.00  0.00    +0.130 A 
ATOM      6  C   LIG    1       -6.534  -0.753   1.308  0.00  0.00    -0.670 A 
ATOM      7  C   LIG    1       -5.962   0.500   1.310  0.00  0.00    +0.200 A 
ATOM      8  C   LIG    1       -4.575   0.631   1.298  0.00  0.00    -0.220 A 
ATOM      9  S   LIG    1       -3.532   2.049   1.296  0.00  0.00    +0.130 S 
ENDROOT
BRANCH   1  11
ATOM     10  C   LIG    1       -0.013   1.086   0.008  0.00  0.00    +0.060 C 
ATOM     11  C   LIG    1       -0.729   1.579   1.267  0.00  0.00    +0.000 C 
ATOM     12  C   LIG    1       -0.750   3.109   1.275  0.00  0.00    +0.060 C 
ATOM     13  C   LIG    1        0.011   1.072   2.506  0.00  0.00    +0.060 C 
ENDBRANCH   1  11
BRANCH   6  14
ATOM     14  S   LIG    1       -8.288  -0.919   1.324  0.00  0.00    +2.710 S 
ATOM     15  O   LIG    1       -8.800   0.284   1.880  0.00  0.00    -0.950 OA
ATOM     16  O   LIG    1       -8.565  -2.204   1.863  0.00  0.00    -0.940 OA
BRANCH  14  17
ATOM     17  N   LIG    1       -8.791  -0.956  -0.254  0.00  0.00    -1.010 NA
ATOM     18  C   LIG    1       -9.171   0.217  -1.063  0.00  0.00    +0.280 C 
ATOM     19  C   LIG    1       -8.950  -0.228  -2.534  0.00  0.00    +0.050 C 
ATOM     20  C   LIG    1       -9.389  -1.708  -2.475  0.00  0.00    -0.100 C 
ATOM     21  C   LIG    1      -10.903  -1.815  -2.614  0.00  0.00    +0.030 C 
ATOM     22  C   LIG    1      -11.304  -3.295  -2.611  0.00  0.00    +0.000 C 
ATOM     23  C   LIG    1      -10.542  -4.021  -3.723  0.00  0.00    +0.210 C 
ATOM     24  O   LIG    1       -9.136  -3.869  -3.518  0.00  0.00    -0.380 OA
ATOM     25  C   LIG    1       -8.685  -2.512  -3.559  0.00  0.00    +0.240 C 
ATOM     26  C   LIG    1       -8.939  -2.166  -1.079  0.00  0.00    +0.280 C 
ENDBRANCH  14  17
ENDBRANCH   6  14
TORSDOF 3
