REMARK  Name = ZINCrH000004kUFx.0
REMARK                            x       y       z     vdW  Elec       q    Type
REMARK                         _______ _______ _______ _____ _____    ______ ____
ROOT
ATOM      1  N   LIG    1        0.417   1.175   4.741  0.00  0.00    -0.400 N 
ATOM      2  C   LIG    1        1.442   0.513   4.123  0.00  0.00    +0.020 A 
ATOM      3  C   LIG    1        1.240   0.531   2.795  0.00  0.00    +0.000 A 
ATOM      4  C   LIG    1       -0.010   1.272   2.575  0.00  0.00    -0.260 A 
ATOM      5  C   LIG    1        2.609  -0.137   4.821  0.00  0.00    +0.130 C 
ATOM      6  C   LIG    1       -0.462   1.636   3.829  0.00  0.00    +0.120 A 
ATOM      7  C   LIG    1       -1.718   2.413   4.125  0.00  0.00    +0.150 C 
ENDROOT
BRANCH   1  11
ATOM      8  C   LIG    1        0.061   1.693   8.863  0.00  0.00    -0.120 A 
ATOM      9  C   LIG    1       -0.007   0.411   8.309  0.00  0.00    +0.110 A 
ATOM     10  C   LIG    1        0.111   0.244   6.947  0.00  0.00    +0.020 A 
ATOM     11  C   LIG    1        0.297   1.348   6.123  0.00  0.00    +0.150 A 
ATOM     12  C   LIG    1        0.371   2.625   6.671  0.00  0.00    +0.020 A 
ATOM     13  C   LIG    1        0.248   2.800   8.031  0.00  0.00    +0.100 A 
BRANCH   8  14
ATOM     14  C   LIG    1       -0.065   1.876  10.321  0.00  0.00    +0.510 C 
ATOM     15  O   LIG    1       -0.228   0.912  11.043  0.00  0.00    -0.500 OA
BRANCH  14  17
ATOM     16  C   LIG    1       -0.130   3.217  12.295  0.00  0.00    +0.290 C 
ATOM     17  O   LIG    1        0.001   3.112  10.853  0.00  0.00    -0.350 OA
ENDBRANCH  14  17
ENDBRANCH   8  14
ENDBRANCH   1  11
BRANCH   4  18
ATOM     18  C   LIG    1       -0.648   1.562   1.289  0.00  0.00    +0.430 C 
ATOM     19  O   LIG    1       -1.689   2.184   1.255  0.00  0.00    -0.450 OA
BRANCH  18  20
ATOM     20  C   LIG    1       -0.013   1.086   0.008  0.00  0.00    +0.190 C 
BRANCH  20  21
ATOM     21  N   LIG    1       -0.909   1.374  -1.120  0.00  0.00    -0.530 NA
ATOM     22  C   LIG    1       -0.227   1.157  -2.402  0.00  0.00    +0.170 C 
ATOM     23  C   LIG    1       -1.138   1.605  -3.548  0.00  0.00    +0.030 C 
ATOM     24  C   LIG    1       -2.442   0.803  -3.499  0.00  0.00    -0.040 C 
ATOM     25  C   LIG    1       -3.107   1.008  -2.136  0.00  0.00    +0.020 C 
ATOM     26  C   LIG    1       -3.382   1.287  -4.605  0.00  0.00    +0.010 C 
ATOM     27  C   LIG    1       -2.139   0.578  -1.031  0.00  0.00    +0.160 C 
ENDBRANCH  20  21
ENDBRANCH  18  20
ENDBRANCH   4  18
TORSDOF 6
