REMARK  Name = ZINCkj00000hafO0.0
REMARK                            x       y       z     vdW  Elec       q    Type
REMARK                         _______ _______ _______ _____ _____    ______ ____
ROOT
ATOM      1  C   LIG    1       -1.333   1.879   0.044  0.00  0.00    -0.020 A 
ATOM      2  N   LIG    1       -1.574   3.179  -0.015  0.00  0.00    -0.230 NA
ATOM      3  N   LIG    1       -2.846   3.362   0.041  0.00  0.00    -0.210 N 
ATOM      4  H   LIG    1       -3.277   4.230   0.014  0.00  0.00    +0.480 HD
ATOM      5  N   LIG    1       -3.470   2.243   0.143  0.00  0.00    -0.270 NA
ATOM      6  C   LIG    1       -2.597   1.265   0.152  0.00  0.00    +0.050 A 
ENDROOT
BRANCH   1  13
ATOM      7  C   LIG    1        3.804   3.235  -3.213  0.00  0.00    +0.080 C 
ATOM      8  C   LIG    1        2.892   2.802  -2.094  0.00  0.00    -0.060 C 
ATOM      9  C   LIG    1        1.994   3.644  -1.689  0.00  0.00    -0.170 C 
ATOM     10  C   LIG    1        1.029   3.358  -0.578  0.00  0.00    +0.360 C 
ATOM     11  N   LIG    1        1.100   1.933  -0.225  0.00  0.00    -0.590 N 
ATOM     12  C   LIG    1        2.439   1.323  -0.144  0.00  0.00    +0.310 C 
ATOM     13  C   LIG    1       -0.014   1.211   0.009  0.00  0.00    +0.610 C 
ATOM     14  O   LIG    1        0.064   0.011   0.186  0.00  0.00    -0.530 OA
ATOM     15 BR   LIG    1        1.891   5.324  -2.551  0.00  0.00    -0.040 Br
ATOM     16  C   LIG    1        3.087   1.428  -1.527  0.00  0.00    +0.090 C 
ENDBRANCH   1  13
BRANCH   6  17
ATOM     17  C   LIG    1       -2.885  -0.211   0.257  0.00  0.00    +0.130 C 
ATOM     18  C   LIG    1       -3.769  -0.681  -0.921  0.00  0.00    +0.080 C 
ATOM     19  C   LIG    1       -4.764  -1.680  -0.303  0.00  0.00    +0.280 C 
ATOM     20  N   LIG    1       -4.435  -1.788   1.135  0.00  0.00    -0.520 N 
ATOM     21  H   LIG    1       -3.809  -2.564   1.292  0.00  0.00    +0.430 HD
ATOM     22  H   LIG    1       -5.278  -1.905   1.677  0.00  0.00    +0.440 HD
ATOM     23  C   LIG    1       -3.768  -0.510   1.494  0.00  0.00    +0.280 C 
ENDBRANCH   6  17
TORSDOF 2
