REMARK  Name = ZINCqH0000008wG0.0
REMARK                            x       y       z     vdW  Elec       q    Type
REMARK                         _______ _______ _______ _____ _____    ______ ____
ROOT
ATOM      1  N   LIG    1       -0.330   7.102  -0.986  0.00  0.00    -0.530 NA
ATOM      2  C   LIG    1       -0.132   6.604  -2.353  0.00  0.00    +0.160 C 
ATOM      3  C   LIG    1       -1.483   6.554  -3.076  0.00  0.00    +0.300 C 
ATOM      4  N   LIG    1       -2.112   7.880  -2.982  0.00  0.00    -0.590 N 
ATOM      5  C   LIG    1       -2.222   8.506  -1.655  0.00  0.00    +0.300 C 
ATOM      6  C   LIG    1       -2.575   8.505  -4.082  0.00  0.00    +0.580 C 
ATOM      7  O   LIG    1       -3.102   9.596  -3.985  0.00  0.00    -0.530 OA
ATOM      8  C   LIG    1       -0.842   8.479  -0.989  0.00  0.00    +0.180 C 
ENDROOT
BRANCH   6   9
ATOM      9  C   LIG    1       -2.444   7.863  -5.409  0.00  0.00    +0.120 A 
ATOM     10  C   LIG    1       -2.502   8.653  -6.560  0.00  0.00    +0.010 A 
ATOM     11  C   LIG    1       -2.375   8.061  -7.790  0.00  0.00    +0.110 A 
ATOM     12  C   LIG    1       -2.201   6.676  -7.843  0.00  0.00    -0.130 A 
ATOM     13  C   LIG    1       -2.039   5.709  -8.927  0.00  0.00    -0.040 A 
ATOM     14  C   LIG    1       -1.912   4.499  -8.355  0.00  0.00    +0.260 A 
ATOM     15  N   LIG    1       -1.980   4.614  -6.995  0.00  0.00    -0.580 N 
ATOM     16  H   LIG    1       -1.913   3.875  -6.370  0.00  0.00    +0.420 HD
ATOM     17  C   LIG    1       -2.157   5.932  -6.642  0.00  0.00    +0.280 A 
ATOM     18  N   LIG    1       -2.279   6.549  -5.481  0.00  0.00    -0.460 NA
ENDBRANCH   6   9
BRANCH   1  20
ATOM     19  C   LIG    1        0.639   7.429   1.239  0.00  0.00    +0.050 C 
ATOM     20  C   LIG    1        0.910   7.003  -0.205  0.00  0.00    +0.170 C 
BRANCH  20  21
ATOM     21  C   LIG    1        1.404   5.580  -0.224  0.00  0.00    -0.080 A 
ATOM     22  C   LIG    1        2.756   5.319  -0.345  0.00  0.00    +0.030 A 
ATOM     23  C   LIG    1        3.210   4.014  -0.362  0.00  0.00    +0.020 A 
ATOM     24  C   LIG    1        2.311   2.967  -0.259  0.00  0.00    -0.030 A 
ATOM     25  C   LIG    1        0.957   3.229  -0.143  0.00  0.00    +0.020 A 
ATOM     26 CL   LIG    1        2.880   1.328  -0.280  0.00  0.00    -0.070 Cl
ATOM     27  C   LIG    1        0.505   4.535  -0.121  0.00  0.00    +0.060 A 
ENDBRANCH  20  21
ENDBRANCH   1  20
TORSDOF 3
