REMARK  Name = ZINCqH00000056Xp.0
REMARK                            x       y       z     vdW  Elec       q    Type
REMARK                         _______ _______ _______ _____ _____    ______ ____
ROOT
ATOM      1  C   LIG    1        1.918  -0.243   5.877  0.00  0.00    +0.560 C 
ATOM      2  N   LIG    1        3.203   0.100   6.097  0.00  0.00    -0.670 N 
ATOM      3  H   LIG    1        3.696   0.592   5.423  0.00  0.00    +0.410 HD
ATOM      4  O   LIG    1        1.326  -0.931   6.686  0.00  0.00    -0.510 OA
ENDROOT
BRANCH   1   8
ATOM      5  C   LIG    1       -0.059   1.084   2.360  0.00  0.00    +0.080 A 
ATOM      6  C   LIG    1        1.269   1.433   2.584  0.00  0.00    +0.010 A 
ATOM      7  C   LIG    1        1.911   1.009   3.726  0.00  0.00    +0.050 A 
ATOM      8  C   LIG    1        1.231   0.218   4.656  0.00  0.00    -0.110 A 
ATOM      9  C   LIG    1       -0.102  -0.137   4.427  0.00  0.00    +0.070 A 
ATOM     10  C   LIG    1       -0.741   0.295   3.285  0.00  0.00    +0.120 A 
ATOM     11  F   LIG    1       -2.029  -0.047   3.061  0.00  0.00    -0.120 F 
BRANCH   5  13
ATOM     12  C   LIG    1       -0.021   1.030   0.003  0.00  0.00    +0.220 C 
ATOM     13  N   LIG    1       -0.706   1.519   1.207  0.00  0.00    -0.510 N 
ATOM     14  C   LIG    1       -0.821   2.983   1.188  0.00  0.00    +0.220 C 
ENDBRANCH   5  13
ENDBRANCH   1   8
BRANCH   2  15
ATOM     15  C   LIG    1        3.826  -0.256   7.300  0.00  0.00    +0.150 A 
ATOM     16  C   LIG    1        4.763   0.594   7.875  0.00  0.00    +0.010 A 
ATOM     17  C   LIG    1        5.373   0.245   9.063  0.00  0.00    +0.050 A 
ATOM     18  C   LIG    1        5.059  -0.959   9.677  0.00  0.00    +0.070 A 
ATOM     19  C   LIG    1        4.128  -1.810   9.101  0.00  0.00    +0.040 A 
ATOM     20  C   LIG    1        3.513  -1.460   7.915  0.00  0.00    +0.040 A 
BRANCH  18  21
ATOM     21  O   LIG    1        5.665  -1.304  10.844  0.00  0.00    -0.240 OA
BRANCH  21  22
ATOM     22  C   LIG    1        6.635  -2.252  10.803  0.00  0.00    +0.270 A 
ATOM     23  C   LIG    1        7.356  -2.561  11.951  0.00  0.00    +0.230 A 
ATOM     24  N   LIG    1        8.295  -3.488  11.908  0.00  0.00    -0.400 NA
ATOM     25  C   LIG    1        8.558  -4.114  10.774  0.00  0.00    +0.190 A 
ATOM     26  C   LIG    1        7.846  -3.804   9.630  0.00  0.00    +0.270 A 
ATOM     27  N   LIG    1        6.901  -2.881   9.667  0.00  0.00    -0.480 NA
ENDBRANCH  21  22
ENDBRANCH  18  21
ENDBRANCH   2  15
TORSDOF 5
