REMARK  Name = ZINCqH0000002qai.0
REMARK                            x       y       z     vdW  Elec       q    Type
REMARK                         _______ _______ _______ _____ _____    ______ ____
ROOT
ATOM      1  C   LIG    1        0.837  -2.101  -0.935  0.00  0.00    +0.070 C 
ENDROOT
BRANCH   1   2
ATOM      2  C   LIG    1        0.512  -0.638  -1.244  0.00  0.00    +0.300 C 
ATOM      3  C   LIG    1       -0.315  -0.060  -0.123  0.00  0.00    -0.080 A 
ATOM      4  C   LIG    1        0.125  -0.264   1.178  0.00  0.00    +0.010 A 
ATOM      5  C   LIG    1       -0.584   0.248   2.245  0.00  0.00    +0.000 A 
ATOM      6  C   LIG    1       -1.740   0.971   2.017  0.00  0.00    +0.000 A 
ATOM      7  C   LIG    1       -2.180   1.172   0.725  0.00  0.00    +0.000 A 
ATOM      8  C   LIG    1       -1.471   0.652  -0.351  0.00  0.00    -0.050 A 
ATOM      9  C   LIG    1       -2.026   0.889  -1.731  0.00  0.00    +0.070 C 
ATOM     10  C   LIG    1       -0.942   0.701  -2.792  0.00  0.00    +0.280 C 
ATOM     11  N   LIG    1       -0.238  -0.559  -2.502  0.00  0.00    -0.600 N 
ATOM     12  C   LIG    1       -0.281  -1.599  -3.359  0.00  0.00    +0.540 C 
ATOM     13  O   LIG    1        0.390  -2.586  -3.147  0.00  0.00    -0.560 OA
ATOM     14  C   LIG    1       -1.162  -1.534  -4.579  0.00  0.00    +0.100 C 
ENDBRANCH   1   2
BRANCH   1  16
ATOM     15  N   LIG    1       -0.408  -4.195  -0.510  0.00  0.00    -0.610 N 
ATOM     16  C   LIG    1       -0.443  -2.893  -0.853  0.00  0.00    +0.550 C 
ATOM     17  O   LIG    1       -1.504  -2.358  -1.096  0.00  0.00    -0.520 OA
BRANCH  15  18
ATOM     18  C   LIG    1       -1.652  -4.965  -0.429  0.00  0.00    +0.280 C 
BRANCH  18  19
ATOM     19  C   LIG    1       -1.950  -5.596  -1.791  0.00  0.00    +0.000 C 
BRANCH  19  21
ATOM     20  C   LIG    1       -3.547  -7.031  -3.069  0.00  0.00    +0.000 C 
ATOM     21  C   LIG    1       -3.249  -6.400  -1.707  0.00  0.00    +0.000 C 
ENDBRANCH  19  21
ENDBRANCH  18  19
ENDBRANCH  15  18
BRANCH  15  22
ATOM     22  C   LIG    1        0.874  -4.842  -0.217  0.00  0.00    +0.330 C 
BRANCH  22  23
ATOM     23  C   LIG    1        1.185  -4.704   1.275  0.00  0.00    +0.430 C 
ATOM     24  F   LIG    1        1.258  -3.348   1.613  0.00  0.00    -0.180 F 
ATOM     25  F   LIG    1        2.409  -5.321   1.555  0.00  0.00    -0.180 F 
ATOM     26  F   LIG    1        0.173  -5.316   2.021  0.00  0.00    -0.180 F 
ENDBRANCH  22  23
ENDBRANCH  15  22
ENDBRANCH   1  16
TORSDOF 7
