REMARK  Name = ZINCkj00000LDvQW.0
REMARK                            x       y       z     vdW  Elec       q    Type
REMARK                         _______ _______ _______ _____ _____    ______ ____
ROOT
ATOM      1  N   LIG    1        2.036  -1.804  -2.467  0.00  0.00    -0.510 N 
ATOM      2  H   LIG    1        1.543  -0.923  -2.468  0.00  0.00    +0.430 HD
ATOM      3  H   LIG    1        1.372  -2.560  -2.541  0.00  0.00    +0.430 HD
ENDROOT
BRANCH   1   5
ATOM      4  C   LIG    1        3.442  -3.324  -1.160  0.00  0.00    +0.110 C 
ATOM      5  C   LIG    1        2.795  -1.939  -1.217  0.00  0.00    +0.190 C 
BRANCH   5   6
ATOM      6  C   LIG    1        1.851  -1.767  -0.025  0.00  0.00    +0.200 C 
BRANCH   6   7
ATOM      7  C   LIG    1        1.309  -0.361  -0.012  0.00  0.00    +0.120 A 
ATOM      8  N   LIG    1        2.012   0.739  -0.013  0.00  0.00    -0.270 NA
ATOM      9  N   LIG    1        1.224   1.756  -0.000  0.00  0.00    -0.280 NA
ATOM     10  C   LIG    1       -0.016   1.351   0.009  0.00  0.00    +0.410 A 
ATOM     11  N   LIG    1        0.002  -0.004   0.002  0.00  0.00    -0.580 N 
ATOM     12  H   LIG    1       -0.765  -0.598   0.006  0.00  0.00    +0.430 HD
ENDBRANCH   6   7
ENDBRANCH   5   6
ENDBRANCH   1   5
BRANCH   1  13
ATOM     13  C   LIG    1        2.959  -1.849  -3.608  0.00  0.00    +0.390 C 
BRANCH  13  14
ATOM     14  C   LIG    1        2.180  -1.710  -4.891  0.00  0.00    +0.000 A 
ATOM     15  N   LIG    1        1.595  -2.683  -5.542  0.00  0.00    -0.250 NA
ATOM     16  N   LIG    1        0.980  -2.141  -6.678  0.00  0.00    -0.330 N 
ATOM     17  C   LIG    1        1.216  -0.813  -6.685  0.00  0.00    +0.270 A 
ATOM     18  C   LIG    1        1.952  -0.519  -5.587  0.00  0.00    -0.080 A 
BRANCH  16  19
ATOM     19  C   LIG    1        0.215  -2.886  -7.681  0.00  0.00    +0.250 C 
ATOM     20  C   LIG    1        0.959  -3.349  -8.936  0.00  0.00    +0.130 C 
ATOM     21  C   LIG    1       -0.046  -2.199  -9.023  0.00  0.00    +0.220 C 
ATOM     22  F   LIG    1        0.464  -0.908  -9.198  0.00  0.00    -0.150 F 
ATOM     23  F   LIG    1       -1.269  -2.455  -9.653  0.00  0.00    -0.140 F 
ENDBRANCH  16  19
ENDBRANCH  13  14
ENDBRANCH   1  13
TORSDOF 6
