REMARK  Name = ZINCpk00000e9y3i.0
REMARK                            x       y       z     vdW  Elec       q    Type
REMARK                         _______ _______ _______ _____ _____    ______ ____
ROOT
ATOM      1  N   LIG    1       -6.203   1.143  -5.907  0.00  0.00    -0.530 NA
ATOM      2  C   LIG    1       -5.874   2.505  -6.347  0.00  0.00    +0.170 C 
ATOM      3  C   LIG    1       -4.355   2.632  -6.512  0.00  0.00    +0.300 C 
ATOM      4  N   LIG    1       -3.712   2.210  -5.259  0.00  0.00    -0.610 N 
ATOM      5  C   LIG    1       -4.091   0.910  -4.686  0.00  0.00    +0.290 C 
ATOM      6  C   LIG    1       -2.796   2.992  -4.654  0.00  0.00    +0.560 C 
ATOM      7  O   LIG    1       -2.567   4.105  -5.085  0.00  0.00    -0.530 OA
ATOM      8  C   LIG    1       -5.624   0.854  -4.589  0.00  0.00    +0.170 C 
ENDROOT
BRANCH   6   9
ATOM      9  C   LIG    1       -2.068   2.495  -3.467  0.00  0.00    -0.120 A 
ATOM     10  C   LIG    1       -1.807   3.352  -2.396  0.00  0.00    +0.060 A 
ATOM     11  C   LIG    1       -1.128   2.882  -1.291  0.00  0.00    +0.040 A 
ATOM     12  C   LIG    1       -0.706   1.565  -1.243  0.00  0.00    -0.090 A 
ATOM     13  C   LIG    1       -0.956   0.713  -2.303  0.00  0.00    +0.020 A 
ATOM     14  C   LIG    1       -1.640   1.168  -3.412  0.00  0.00    +0.040 A 
BRANCH  12  15
ATOM     15  C   LIG    1        0.036   1.059  -0.033  0.00  0.00    +0.380 C 
BRANCH  15  16
ATOM     16  N   LIG    1       -0.922   0.532   0.942  0.00  0.00    -0.370 N 
ATOM     17  C   LIG    1       -0.911  -0.707   1.477  0.00  0.00    +0.220 A 
ATOM     18  C   LIG    1       -1.956  -0.796   2.332  0.00  0.00    -0.120 A 
ATOM     19  C   LIG    1       -2.634   0.427   2.313  0.00  0.00    +0.220 A 
ATOM     20  N   LIG    1       -2.015   1.224   1.480  0.00  0.00    -0.290 NA
ENDBRANCH  15  16
ENDBRANCH  12  15
ENDBRANCH   6   9
BRANCH   1  21
ATOM     21  C   LIG    1       -7.656   0.928  -5.902  0.00  0.00    +0.140 C 
BRANCH  21  22
ATOM     22  C   LIG    1       -7.974  -0.398  -5.210  0.00  0.00    +0.200 C 
BRANCH  22  24
ATOM     23  C   LIG    1       -9.814  -1.884  -4.404  0.00  0.00    +0.010 C 
ATOM     24  C   LIG    1       -9.487  -0.622  -5.205  0.00  0.00    -0.020 C 
ENDBRANCH  22  24
BRANCH  22  25
ATOM     25  O   LIG    1       -7.337  -1.467  -5.913  0.00  0.00    -0.550 OA
ATOM     26  H   LIG    1       -7.616  -1.552  -6.835  0.00  0.00    +0.380 HD
ENDBRANCH  22  25
ENDBRANCH  21  22
ENDBRANCH   1  21
TORSDOF 7
