REMARK  Name = ZINCqH00000070rb.0
REMARK                            x       y       z     vdW  Elec       q    Type
REMARK                         _______ _______ _______ _____ _____    ______ ____
ROOT
ATOM      1  S   LIG    1       -1.635   4.626   0.041  0.00  0.00    +0.100 S 
ENDROOT
BRANCH   1   6
ATOM      2  N   LIG    1       -1.126   1.873   0.017  0.00  0.00    -0.410 N 
ATOM      3  C   LIG    1       -0.013   1.076   0.008  0.00  0.00    +0.400 A 
ATOM      4  N   LIG    1        1.026   1.863   0.002  0.00  0.00    -0.280 NA
ATOM      5  N   LIG    1        0.651   3.091   0.012  0.00  0.00    -0.290 NA
ATOM      6  C   LIG    1       -0.660   3.158   0.025  0.00  0.00    +0.140 A 
BRANCH   2  10
ATOM      7  C   LIG    1       -5.111   0.635   0.028  0.00  0.00    +0.150 A 
ATOM      8  C   LIG    1       -4.223   0.107  -0.899  0.00  0.00    +0.020 A 
ATOM      9  C   LIG    1       -2.905   0.517  -0.903  0.00  0.00    +0.080 A 
ATOM     10  C   LIG    1       -2.467   1.456   0.021  0.00  0.00    +0.060 A 
ATOM     11  C   LIG    1       -3.354   1.980   0.951  0.00  0.00    +0.080 A 
ATOM     12  C   LIG    1       -4.674   1.574   0.951  0.00  0.00    -0.050 A 
BRANCH   7  14
ATOM     13  C   LIG    1       -7.267   0.816   1.014  0.00  0.00    +0.250 C 
ATOM     14  O   LIG    1       -6.409   0.232   0.032  0.00  0.00    -0.310 OA
ENDBRANCH   7  14
ENDBRANCH   2  10
ENDBRANCH   1   6
BRANCH   1  15
ATOM     15  C   LIG    1       -0.324   5.874   0.034  0.00  0.00    +0.110 C 
BRANCH  15  16
ATOM     16  C   LIG    1       -0.939   7.249   0.047  0.00  0.00    +0.530 C 
ATOM     17  N   LIG    1       -0.149   8.341   0.045  0.00  0.00    -0.650 N 
ATOM     18  H   LIG    1        0.816   8.242   0.035  0.00  0.00    +0.420 HD
ATOM     19  O   LIG    1       -2.146   7.374   0.059  0.00  0.00    -0.450 OA
BRANCH  17  20
ATOM     20  C   LIG    1       -0.719   9.615   0.056  0.00  0.00    +0.380 A 
ATOM     21  N   LIG    1       -2.036   9.743   0.064  0.00  0.00    -0.450 NA
ATOM     22  C   LIG    1       -2.616  10.928   0.081  0.00  0.00    +0.340 A 
ATOM     23  C   LIG    1       -1.862  12.086   0.079  0.00  0.00    -0.110 A 
ATOM     24  C   LIG    1       -0.476  11.995   0.066  0.00  0.00    +0.130 A 
ATOM     25 CL   LIG    1       -2.639  13.639   0.095  0.00  0.00    -0.040 Cl
ATOM     26  C   LIG    1        0.102  10.737   0.054  0.00  0.00    -0.120 A 
ATOM     27 CL   LIG    1        1.830  10.564   0.036  0.00  0.00    -0.040 Cl
ENDBRANCH  17  20
ENDBRANCH  15  16
ENDBRANCH   1  15
TORSDOF 6
