REMARK  Name = ZINCpe00000ytMXs.0
REMARK                            x       y       z     vdW  Elec       q    Type
REMARK                         _______ _______ _______ _____ _____    ______ ____
ROOT
ATOM      1  C   LIG    1       -2.449   1.117   0.020  0.00  0.00    +0.240 C 
ATOM      2  C   LIG    1       -3.555   1.767  -0.829  0.00  0.00    +0.020 C 
ATOM      3  C   LIG    1       -4.535   1.372   0.287  0.00  0.00    +0.230 C 
ATOM      4  C   LIG    1       -3.333   1.400   1.246  0.00  0.00    +0.020 C 
ENDROOT
BRANCH   1   6
ATOM      5  C   LIG    1       -1.210   3.331   0.026  0.00  0.00    +0.280 C 
ATOM      6  N   LIG    1       -1.191   1.867   0.018  0.00  0.00    -0.600 N 
ATOM      7  C   LIG    1       -0.014   1.209   0.009  0.00  0.00    +0.530 C 
ATOM      8  O   LIG    1        0.002  -0.004   0.002  0.00  0.00    -0.520 OA
BRANCH   7   9
ATOM      9  C   LIG    1        1.280   1.980   0.001  0.00  0.00    +0.090 C 
BRANCH   9  10
ATOM     10  S   LIG    1        2.675   0.820  -0.019  0.00  0.00    -0.130 S 
BRANCH  10  11
ATOM     11  C   LIG    1        4.119   1.918  -0.027  0.00  0.00    -0.040 C 
ATOM     12  C   LIG    1        5.035   1.872  -1.252  0.00  0.00    +0.050 C 
ATOM     13  C   LIG    1        5.500   1.269   0.075  0.00  0.00    +0.070 C 
ENDBRANCH  10  11
ENDBRANCH   9  10
ENDBRANCH   7   9
ENDBRANCH   1   6
BRANCH   3  14
ATOM     14  N   LIG    1       -5.117   0.038   0.115  0.00  0.00    -0.710 N 
ATOM     15  H   LIG    1       -4.573  -0.751   0.264  0.00  0.00    +0.400 HD
ATOM     16  C   LIG    1       -6.408  -0.092  -0.250  0.00  0.00    +0.530 C 
ATOM     17  O   LIG    1       -7.088   0.895  -0.436  0.00  0.00    -0.530 OA
BRANCH  16  18
ATOM     18  C   LIG    1       -7.006  -1.464  -0.427  0.00  0.00    -0.020 C 
ATOM     19  C   LIG    1       -6.707  -2.094  -1.799  0.00  0.00    +0.080 C 
ATOM     20  C   LIG    1       -8.154  -2.603  -1.788  0.00  0.00    -0.070 C 
ATOM     21  C   LIG    1       -8.921  -2.788  -3.094  0.00  0.00    -0.310 C 
ATOM     22  S   LIG    1       -8.418  -4.531  -3.135  0.00  0.00    +2.400 S 
ATOM     23  O   LIG    1       -9.481  -5.403  -3.491  0.00  0.00    -0.920 OA
ATOM     24  O   LIG    1       -7.093  -4.709  -3.618  0.00  0.00    -0.910 OA
ATOM     25  C   LIG    1       -8.467  -4.041  -1.387  0.00  0.00    -0.300 C 
ATOM     26  C   LIG    1       -8.487  -1.440  -0.845  0.00  0.00    +0.110 C 
ENDBRANCH  16  18
ENDBRANCH   3  14
TORSDOF 6
