REMARK  Name = ZINCvU0000000JFp.0
REMARK                            x       y       z     vdW  Elec       q    Type
REMARK                         _______ _______ _______ _____ _____    ______ ____
ROOT
ATOM      1  O   LIG    1       -3.726   3.000   0.453  0.00  0.00    -0.510 OA
ATOM      2  C   LIG    1       -3.075   2.934   1.474  0.00  0.00    +0.530 C 
ATOM      3  N   LIG    1       -3.591   3.388   2.633  0.00  0.00    -0.720 N 
ATOM      4  H   LIG    1       -3.070   3.335   3.450  0.00  0.00    +0.400 HD
ENDROOT
BRANCH   3   5
ATOM      5  C   LIG    1       -4.939   3.961   2.660  0.00  0.00    +0.380 C 
BRANCH   5   6
ATOM      6  C   LIG    1       -5.515   3.824   4.046  0.00  0.00    -0.090 A 
ATOM      7  C   LIG    1       -4.716   4.035   5.154  0.00  0.00    +0.010 A 
ATOM      8  C   LIG    1       -5.250   3.904   6.419  0.00  0.00    +0.010 A 
ATOM      9  C   LIG    1       -6.585   3.563   6.590  0.00  0.00    -0.070 A 
ATOM     10  C   LIG    1       -7.100   3.424   7.998  0.00  0.00    +0.080 C 
ATOM     11  C   LIG    1       -8.626   3.476   8.021  0.00  0.00    +0.020 C 
ATOM     12  C   LIG    1       -9.160   2.471   6.994  0.00  0.00    +0.020 C 
ATOM     13  C   LIG    1       -8.841   2.996   5.595  0.00  0.00    +0.080 C 
ATOM     14  C   LIG    1       -7.383   3.358   5.486  0.00  0.00    -0.070 A 
ATOM     15  C   LIG    1       -6.844   3.493   4.213  0.00  0.00    +0.020 A 
ENDBRANCH   5   6
BRANCH   5  16
ATOM     16  C   LIG    1       -4.872   5.420   2.287  0.00  0.00    -0.180 A 
ATOM     17  C   LIG    1       -5.751   6.056   1.511  0.00  0.00    +0.020 A 
ATOM     18  C   LIG    1       -5.483   7.399   1.306  0.00  0.00    +0.010 A 
ATOM     19  C   LIG    1       -4.387   7.853   1.915  0.00  0.00    -0.050 A 
ATOM     20  S   LIG    1       -3.626   6.545   2.812  0.00  0.00    +0.100 S 
ENDBRANCH   5  16
ENDBRANCH   3   5
BRANCH   2  21
ATOM     21  C   LIG    1       -1.688   2.344   1.446  0.00  0.00    +0.080 C 
BRANCH  21  22
ATOM     22  C   LIG    1       -1.348   1.909   0.019  0.00  0.00    +0.070 C 
ATOM     23  S   LIG    1       -1.249   3.372  -1.050  0.00  0.00    -0.040 S 
ATOM     24  C   LIG    1        0.297   4.072  -0.565  0.00  0.00    -0.140 A 
ATOM     25  C   LIG    1        0.495   5.441  -0.647  0.00  0.00    +0.080 A 
ATOM     26  C   LIG    1        1.710   5.986  -0.277  0.00  0.00    +0.000 A 
ATOM     27  C   LIG    1        2.725   5.164   0.175  0.00  0.00    +0.050 A 
ATOM     28  C   LIG    1        2.533   3.799   0.263  0.00  0.00    -0.010 A 
ATOM     29  C   LIG    1        1.315   3.237  -0.104  0.00  0.00    +0.160 A 
ATOM     30  N   LIG    1        1.145   1.859   0.001  0.00  0.00    -0.650 N 
ATOM     31  H   LIG    1        1.950   1.323   0.076  0.00  0.00    +0.420 HD
ATOM     32  C   LIG    1       -0.014   1.209   0.009  0.00  0.00    +0.530 C 
ATOM     33  O   LIG    1        0.002  -0.004   0.002  0.00  0.00    -0.510 OA
ENDBRANCH  21  22
ENDBRANCH   2  21
TORSDOF 5
