REMARK  Name = ZINCtV00000L6l87.0
REMARK                            x       y       z     vdW  Elec       q    Type
REMARK                         _______ _______ _______ _____ _____    ______ ____
ROOT
ATOM      1  P   LIG    1        0.513   3.400  -0.086  0.00  0.00    +2.750 P 
ATOM      2  N   LIG    1        0.702   4.541  -1.124  0.00  0.00    -1.180 NA
ENDROOT
BRANCH   1   3
ATOM      3  N   LIG    1       -0.105   2.038  -0.857  0.00  0.00    -0.850 NA
ATOM      4  C   LIG    1       -1.474   2.279  -1.335  0.00  0.00    +0.170 C 
ATOM      5  C   LIG    1       -1.975   1.039  -2.080  0.00  0.00    +0.250 C 
ATOM      6  O   LIG    1       -1.896  -0.096  -1.213  0.00  0.00    -0.380 OA
ATOM      7  C   LIG    1       -0.577  -0.360  -0.729  0.00  0.00    +0.240 C 
ATOM      8  C   LIG    1       -0.062   0.866   0.030  0.00  0.00    +0.130 C 
ENDBRANCH   1   3
BRANCH   1   9
ATOM      9  C   LIG    1       -0.642   3.942   1.204  0.00  0.00    -0.750 A 
ATOM     10  C   LIG    1       -0.257   3.916   2.531  0.00  0.00    +0.070 A 
ATOM     11  C   LIG    1       -1.135   4.333   3.514  0.00  0.00    +0.000 A 
ATOM     12  C   LIG    1       -2.402   4.766   3.170  0.00  0.00    +0.060 A 
ATOM     13  C   LIG    1       -2.789   4.787   1.843  0.00  0.00    +0.010 A 
ATOM     14  C   LIG    1       -1.909   4.375   0.860  0.00  0.00    +0.090 A 
ENDBRANCH   1   9
BRANCH   1  16
ATOM     15  C   LIG    1        3.034   2.360  -0.382  0.00  0.00    +0.100 C 
ATOM     16  C   LIG    1        2.121   2.994   0.670  0.00  0.00    -0.690 C 
ATOM     17  C   LIG    1        1.909   2.008   1.821  0.00  0.00    +0.060 C 
ATOM     18  C   LIG    1        2.771   4.271   1.205  0.00  0.00    +0.070 C 
ENDBRANCH   1  16
BRANCH   2  19
ATOM     19  C   LIG    1        1.067   4.256  -2.354  0.00  0.00    +0.600 C 
ATOM     20  S   LIG    1        1.251   2.624  -2.836  0.00  0.00    -0.710 S 
BRANCH  19  21
ATOM     21  N   LIG    1        1.296   5.250  -3.236  0.00  0.00    -0.620 N 
ATOM     22  H   LIG    1        1.288   6.173  -2.939  0.00  0.00    +0.410 HD
BRANCH  21  23
ATOM     23  C   LIG    1        1.545   4.949  -4.579  0.00  0.00    +0.160 A 
ATOM     24  C   LIG    1        0.812   3.957  -5.217  0.00  0.00    +0.100 A 
ATOM     25  C   LIG    1        1.059   3.662  -6.544  0.00  0.00    +0.060 A 
ATOM     26  C   LIG    1        2.036   4.353  -7.237  0.00  0.00    -0.030 A 
ATOM     27  C   LIG    1        2.770   5.342  -6.603  0.00  0.00    -0.020 A 
ATOM     28 CL   LIG    1        3.996   6.207  -7.477  0.00  0.00    -0.050 Cl
ATOM     29 CL   LIG    1        2.345   3.979  -8.904  0.00  0.00    -0.050 Cl
ATOM     30  C   LIG    1        2.522   5.646  -5.278  0.00  0.00    +0.020 A 
ENDBRANCH  21  23
ENDBRANCH  19  21
ENDBRANCH   2  19
TORSDOF 6
