REMARK  Name = ZINCpk00000KfKZ9.0
REMARK                            x       y       z     vdW  Elec       q    Type
REMARK                         _______ _______ _______ _____ _____    ______ ____
ROOT
ATOM      1  N   LIG    1        2.340   1.170  -1.532  0.00  0.00    -0.510 NA
ATOM      2  C   LIG    1        1.878   1.908  -2.719  0.00  0.00    +0.230 C 
ATOM      3  C   LIG    1        1.735   3.386  -2.350  0.00  0.00    +0.080 C 
ATOM      4  C   LIG    1        2.993   3.869  -1.679  0.00  0.00    +0.180 A 
ATOM      5  N   LIG    1        3.216   5.176  -1.583  0.00  0.00    -0.520 NA
ATOM      6  C   LIG    1        4.303   5.639  -1.001  0.00  0.00    +0.510 A 
ATOM      7  N   LIG    1        5.213   4.835  -0.489  0.00  0.00    -0.550 NA
ATOM      8  C   LIG    1        5.060   3.516  -0.548  0.00  0.00    +0.350 A 
ATOM      9  C   LIG    1        3.917   2.993  -1.161  0.00  0.00    -0.190 A 
ATOM     10  C   LIG    1        3.739   1.503  -1.239  0.00  0.00    +0.310 C 
ENDROOT
BRANCH   8  11
ATOM     11  N   LIG    1        6.018   2.672  -0.009  0.00  0.00    -0.480 N 
ATOM     12  C   LIG    1        6.139   2.870   1.442  0.00  0.00    +0.160 C 
ATOM     13  C   LIG    1        7.162   1.880   2.004  0.00  0.00    +0.230 C 
ATOM     14  O   LIG    1        8.410   2.056   1.328  0.00  0.00    -0.380 OA
ATOM     15  C   LIG    1        8.329   1.869  -0.088  0.00  0.00    +0.230 C 
ATOM     16  C   LIG    1        7.317   2.860  -0.671  0.00  0.00    +0.170 C 
ENDBRANCH   8  11
BRANCH   1  17
ATOM     17  C   LIG    1        1.480   1.444  -0.373  0.00  0.00    +0.150 C 
BRANCH  17  18
ATOM     18  C   LIG    1        1.731   0.391   0.708  0.00  0.00    +0.270 C 
BRANCH  18  19
ATOM     19  C   LIG    1        0.871   0.690   1.909  0.00  0.00    -0.120 A 
ATOM     20  C   LIG    1       -0.435   0.240   1.953  0.00  0.00    +0.010 A 
ATOM     21  C   LIG    1       -1.222   0.511   3.057  0.00  0.00    +0.000 A 
ATOM     22  C   LIG    1       -0.706   1.239   4.112  0.00  0.00    +0.000 A 
ATOM     23  C   LIG    1        0.599   1.693   4.066  0.00  0.00    +0.000 A 
ATOM     24  C   LIG    1        1.387   1.419   2.964  0.00  0.00    +0.010 A 
ENDBRANCH  18  19
BRANCH  18  25
ATOM     25  O   LIG    1        1.403  -0.903   0.198  0.00  0.00    -0.540 OA
ATOM     26  H   LIG    1        0.481  -0.994  -0.081  0.00  0.00    +0.370 HD
ENDBRANCH  18  25
ENDBRANCH  17  18
ENDBRANCH   1  17
TORSDOF 5
