REMARK  Name = ZINCqH0000051bDn.0
REMARK                            x       y       z     vdW  Elec       q    Type
REMARK                         _______ _______ _______ _____ _____    ______ ____
ROOT
ATOM      1  C   LIG    1       -3.698   2.103  -0.184  0.00  0.00    +0.240 C 
ENDROOT
BRANCH   1   3
ATOM      2  O   LIG    1       -2.381   0.146  -0.088  0.00  0.00    -0.490 OA
ATOM      3  C   LIG    1       -2.391   1.359  -0.081  0.00  0.00    +0.520 C 
ATOM      4  N   LIG    1       -1.234   2.042   0.019  0.00  0.00    -0.660 N 
ATOM      5  H   LIG    1       -1.246   3.009   0.091  0.00  0.00    +0.420 HD
BRANCH   4   6
ATOM      6  C   LIG    1       -0.017   1.357   0.019  0.00  0.00    +0.190 A 
ATOM      7  C   LIG    1        0.078   0.132   0.607  0.00  0.00    +0.060 A 
ATOM      8  C   LIG    1        1.276  -0.579   0.619  0.00  0.00    +0.080 A 
ATOM      9  C   LIG    1        2.402  -0.086   0.047  0.00  0.00    +0.060 A 
ATOM     10  C   LIG    1        2.380   1.184  -0.585  0.00  0.00    +0.100 A 
ATOM     11  N   LIG    1        3.334   1.863  -1.201  0.00  0.00    -0.590 NA
ATOM     12  S   LIG    1        2.758   3.214  -1.713  0.00  0.00    +0.810 S 
ATOM     13  N   LIG    1        1.286   3.088  -1.226  0.00  0.00    -0.600 NA
ATOM     14  C   LIG    1        1.127   1.934  -0.601  0.00  0.00    +0.070 A 
ENDBRANCH   4   6
ENDBRANCH   1   3
BRANCH   1  15
ATOM     15  O   LIG    1       -4.773   1.165  -0.279  0.00  0.00    -0.290 OA
BRANCH  15  16
ATOM     16  C   LIG    1       -6.029   1.675  -0.380  0.00  0.00    +0.120 A 
ATOM     17  C   LIG    1       -6.222   3.050  -0.381  0.00  0.00    -0.070 A 
ATOM     18  C   LIG    1       -7.497   3.573  -0.488  0.00  0.00    +0.050 A 
ATOM     19  C   LIG    1       -8.586   2.731  -0.583  0.00  0.00    -0.010 A 
ATOM     20  C   LIG    1       -8.402   1.349  -0.577  0.00  0.00    -0.010 A 
ATOM     21  C   LIG    1       -7.117   0.823  -0.475  0.00  0.00    +0.040 A 
BRANCH  20  22
ATOM     22  C   LIG    1       -9.571   0.442  -0.680  0.00  0.00    +0.160 A 
ATOM     23  C   LIG    1      -10.853   0.977  -0.782  0.00  0.00    -0.020 A 
ATOM     24  C   LIG    1      -11.935   0.117  -0.877  0.00  0.00    +0.070 A 
ATOM     25  C   LIG    1      -11.698  -1.250  -0.867  0.00  0.00    -0.030 A 
ATOM     26  C   LIG    1      -10.398  -1.712  -0.763  0.00  0.00    +0.270 A 
ATOM     27  N   LIG    1       -9.387  -0.872  -0.679  0.00  0.00    -0.470 NA
ENDBRANCH  20  22
ENDBRANCH  15  16
ENDBRANCH   1  15
TORSDOF 5
