REMARK  Name = ZINCrD000000AeWd.0
REMARK                            x       y       z     vdW  Elec       q    Type
REMARK                         _______ _______ _______ _____ _____    ______ ____
ROOT
ATOM      1  N   LIG    1        1.013  -6.658   0.963  0.00  0.00    -0.540 NA
ATOM      2  C   LIG    1        1.631  -6.088  -0.242  0.00  0.00    +0.200 C 
ATOM      3  C   LIG    1        1.595  -4.560  -0.157  0.00  0.00    +0.200 C 
ATOM      4  N   LIG    1        0.201  -4.113  -0.021  0.00  0.00    -0.490 N 
ATOM      5  C   LIG    1       -0.417  -4.683   1.184  0.00  0.00    +0.200 C 
ATOM      6  C   LIG    1       -0.381  -6.210   1.099  0.00  0.00    +0.190 C 
ENDROOT
BRANCH   4   7
ATOM      7  C   LIG    1        0.122  -2.724  -0.013  0.00  0.00    +0.340 A 
ATOM      8  N   LIG    1        0.693  -2.041   0.966  0.00  0.00    -0.490 NA
ATOM      9  C   LIG    1        0.641  -0.723   1.012  0.00  0.00    +0.350 A 
ATOM     10  C   LIG    1       -0.013  -0.005   0.031  0.00  0.00    -0.230 A 
ATOM     11  C   LIG    1       -0.630  -0.684  -1.012  0.00  0.00    +0.150 A 
ATOM     12  C   LIG    1       -0.556  -2.066  -1.035  0.00  0.00    -0.070 A 
ATOM     13 CL   LIG    1       -1.303  -2.965  -2.318  0.00  0.00    -0.020 Cl
BRANCH  10  14
ATOM     14  C   LIG    1       -0.065   1.500   0.095  0.00  0.00    +0.520 C 
ATOM     15  F   LIG    1       -1.398   1.919   0.160  0.00  0.00    -0.170 F 
ATOM     16  F   LIG    1        0.538   2.036  -1.048  0.00  0.00    -0.170 F 
ATOM     17  F   LIG    1        0.619   1.941   1.234  0.00  0.00    -0.170 F 
ENDBRANCH  10  14
ENDBRANCH   4   7
BRANCH   1  18
ATOM     18  C   LIG    1        1.096  -8.124   0.955  0.00  0.00    +0.210 C 
BRANCH  18  19
ATOM     19  C   LIG    1        0.234  -8.691   2.084  0.00  0.00    +0.050 C 
BRANCH  19  21
ATOM     20  O   LIG    1        1.002 -10.759   1.247  0.00  0.00    -0.540 OA
ATOM     21  C   LIG    1        0.319 -10.195   2.076  0.00  0.00    +0.510 C 
ATOM     22  N   LIG    1       -0.364 -10.915   2.988  0.00  0.00    -0.730 N 
ATOM     23  H   LIG    1       -0.910 -10.464   3.651  0.00  0.00    +0.400 HD
BRANCH  22  24
ATOM     24  C   LIG    1       -0.281 -12.377   2.980  0.00  0.00    +0.230 C 
ATOM     25  C   LIG    1       -1.341 -12.961   2.023  0.00  0.00    +0.010 C 
ATOM     26  C   LIG    1       -1.825 -14.250   2.734  0.00  0.00    +0.010 C 
ATOM     27  C   LIG    1       -1.841 -13.833   4.225  0.00  0.00    +0.020 C 
ATOM     28  C   LIG    1       -0.598 -12.931   4.380  0.00  0.00    +0.020 C 
ENDBRANCH  22  24
ENDBRANCH  19  21
ENDBRANCH  18  19
ENDBRANCH   1  18
TORSDOF 6
