REMARK  Name = ZINCrH000004sOCi.0
REMARK                            x       y       z     vdW  Elec       q    Type
REMARK                         _______ _______ _______ _____ _____    ______ ____
ROOT
ATOM      1  N   LIG    1        1.143   1.901   0.001  0.00  0.00    -0.740 N 
ATOM      2  H   LIG    1        1.130   2.871   0.007  0.00  0.00    +0.400 HD
ATOM      3  C   LIG    1       -0.014   1.212   0.009  0.00  0.00    +0.710 C 
ATOM      4  N   LIG    1       -1.191   1.870   0.018  0.00  0.00    -0.630 N 
ATOM      5  C   LIG    1       -1.210   3.334   0.026  0.00  0.00    +0.280 C 
ATOM      6  O   LIG    1        0.002  -0.004   0.002  0.00  0.00    -0.580 OA
ENDROOT
BRANCH   4   7
ATOM      7  C   LIG    1       -2.449   1.120   0.020  0.00  0.00    +0.270 C 
ATOM      8  C   LIG    1       -3.252   1.472   1.276  0.00  0.00    +0.000 C 
ATOM      9  C   LIG    1       -4.591   0.730   1.240  0.00  0.00    +0.050 C 
ATOM     10  C   LIG    1       -5.345   1.110  -0.036  0.00  0.00    +0.180 C 
ATOM     11  N   LIG    1       -4.536   0.753  -1.209  0.00  0.00    -0.500 N 
ATOM     12  C   LIG    1       -3.265   1.489  -1.221  0.00  0.00    +0.180 C 
BRANCH  11  13
ATOM     13  C   LIG    1       -5.249   0.965  -2.392  0.00  0.00    +0.090 A 
ATOM     14  C   LIG    1       -5.420  -0.075  -3.297  0.00  0.00    +0.040 A 
ATOM     15  C   LIG    1       -6.129   0.137  -4.463  0.00  0.00    +0.020 A 
ATOM     16  C   LIG    1       -6.659   1.385  -4.735  0.00  0.00    +0.000 A 
ATOM     17  C   LIG    1       -6.485   2.424  -3.839  0.00  0.00    +0.010 A 
ATOM     18  C   LIG    1       -5.782   2.218  -2.668  0.00  0.00    -0.030 A 
ENDBRANCH  11  13
ENDBRANCH   4   7
BRANCH   1  19
ATOM     19  C   LIG    1        2.422   1.186  -0.015  0.00  0.00    +0.280 C 
BRANCH  19  20
ATOM     20  C   LIG    1        3.571   2.196  -0.020  0.00  0.00    +0.070 C 
ATOM     21  C   LIG    1        3.539   2.998  -1.323  0.00  0.00    +0.030 C 
BRANCH  20  28
ATOM     22  C   LIG    1        4.771  -0.031  -2.052  0.00  0.00    +0.160 C 
ATOM     23  C   LIG    1        5.414   0.493  -0.793  0.00  0.00    +0.030 A 
ATOM     24  N   LIG    1        6.567   0.142  -0.303  0.00  0.00    -0.360 NA
ATOM     25  O   LIG    1        6.813   0.733   0.724  0.00  0.00    +0.100 OA
ATOM     26  C   LIG    1        5.827   1.579   1.053  0.00  0.00    -0.020 A 
ATOM     27  C   LIG    1        5.778   2.482   2.259  0.00  0.00    +0.190 C 
ATOM     28  C   LIG    1        4.884   1.464   0.087  0.00  0.00    -0.200 A 
ENDBRANCH  20  28
ENDBRANCH  19  20
ENDBRANCH   1  19
TORSDOF 5
