REMARK  Name = ZINCrH000004rZsQ.0
REMARK                            x       y       z     vdW  Elec       q    Type
REMARK                         _______ _______ _______ _____ _____    ______ ____
ROOT
ATOM      1  N   LIG    1        4.261   0.397   0.579  0.00  0.00    -0.620 N 
ATOM      2  H   LIG    1        3.949   0.323  -0.336  0.00  0.00    +0.420 HD
ATOM      3  C   LIG    1        5.551   0.140   0.874  0.00  0.00    +0.520 C 
ATOM      4  O   LIG    1        5.941   0.232   2.019  0.00  0.00    -0.490 OA
ENDROOT
BRANCH   3   5
ATOM      5  C   LIG    1        6.507  -0.263  -0.218  0.00  0.00    +0.010 C 
ATOM      6  C   LIG    1        6.020  -1.557  -0.874  0.00  0.00    +0.060 C 
ATOM      7  C   LIG    1        7.027  -1.994  -1.941  0.00  0.00    +0.220 C 
ATOM      8  N   LIG    1        8.340  -2.204  -1.319  0.00  0.00    -0.460 N 
ATOM      9  C   LIG    1        8.850  -0.962  -0.724  0.00  0.00    +0.230 C 
ATOM     10  C   LIG    1        7.898  -0.495   0.379  0.00  0.00    +0.080 C 
BRANCH   8  11
ATOM     11  C   LIG    1        9.243  -2.724  -2.230  0.00  0.00    +0.490 A 
ATOM     12  N   LIG    1       10.382  -2.084  -2.450  0.00  0.00    -0.550 NA
ATOM     13  C   LIG    1       11.268  -2.557  -3.310  0.00  0.00    +0.340 A 
ATOM     14  C   LIG    1       10.989  -3.731  -3.993  0.00  0.00    -0.110 A 
ATOM     15  C   LIG    1        9.785  -4.372  -3.743  0.00  0.00    +0.350 A 
ATOM     16  N   LIG    1        8.945  -3.848  -2.866  0.00  0.00    -0.530 NA
ENDBRANCH   8  11
ENDBRANCH   3   5
BRANCH   1  20
ATOM     17  C   LIG    1        1.430   1.376   2.499  0.00  0.00    +0.130 A 
ATOM     18  C   LIG    1        2.130   1.402   3.648  0.00  0.00    -0.110 A 
ATOM     19  S   LIG    1        3.794   0.945   3.289  0.00  0.00    +0.200 S 
ATOM     20  C   LIG    1        3.379   0.768   1.587  0.00  0.00    +0.270 A 
ATOM     21  N   LIG    1        2.122   1.038   1.420  0.00  0.00    -0.490 NA
BRANCH  17  28
ATOM     22  C   LIG    1        0.100   1.563  -0.064  0.00  0.00    +0.100 C 
ATOM     23  C   LIG    1       -0.664   1.801   1.214  0.00  0.00    -0.050 A 
ATOM     24  C   LIG    1       -2.007   2.116   1.167  0.00  0.00    -0.010 A 
ATOM     25  C   LIG    1       -2.711   2.329   2.339  0.00  0.00    +0.010 A 
ATOM     26  C   LIG    1       -2.071   2.239   3.562  0.00  0.00    +0.000 A 
ATOM     27  C   LIG    1       -0.727   1.930   3.620  0.00  0.00    +0.020 A 
ATOM     28  C   LIG    1       -0.014   1.708   2.443  0.00  0.00    -0.030 A 
ENDBRANCH  17  28
ENDBRANCH   1  20
TORSDOF 4
