REMARK  Name = ZINCrH000004q9WL.0
REMARK                            x       y       z     vdW  Elec       q    Type
REMARK                         _______ _______ _______ _____ _____    ______ ____
ROOT
ATOM      1  C   LIG    1        5.821   3.083  -0.622  0.00  0.00    +0.610 C 
ATOM      2  N   LIG    1        6.567   2.118  -0.048  0.00  0.00    -0.670 N 
ATOM      3  H   LIG    1        6.137   1.396   0.436  0.00  0.00    +0.420 HD
ATOM      4  O   LIG    1        6.362   4.033  -1.157  0.00  0.00    -0.490 OA
ENDROOT
BRANCH   1   7
ATOM      5  C   LIG    1        3.878   5.166  -1.869  0.00  0.00    +0.140 C 
ATOM      6  C   LIG    1        3.505   3.897  -1.146  0.00  0.00    -0.060 A 
ATOM      7  C   LIG    1        4.355   2.988  -0.602  0.00  0.00    -0.050 A 
ATOM      8  O   LIG    1        3.650   1.984  -0.040  0.00  0.00    -0.190 OA
ATOM      9  C   LIG    1        2.326   2.186  -0.188  0.00  0.00    +0.080 A 
ATOM     10  C   LIG    1        1.203   1.465   0.200  0.00  0.00    +0.030 A 
ATOM     11  C   LIG    1       -0.055   1.939  -0.103  0.00  0.00    +0.070 A 
ATOM     12  C   LIG    1       -0.217   3.131  -0.794  0.00  0.00    +0.000 A 
ATOM     13  C   LIG    1        0.872   3.858  -1.186  0.00  0.00    +0.080 A 
ATOM     14  C   LIG    1        2.156   3.395  -0.889  0.00  0.00    -0.150 A 
ENDBRANCH   1   7
BRANCH   2  15
ATOM     15  C   LIG    1        7.961   2.158  -0.151  0.00  0.00    +0.200 A 
ATOM     16  C   LIG    1        8.685   0.978  -0.253  0.00  0.00    -0.020 A 
ATOM     17  C   LIG    1       10.062   1.021  -0.360  0.00  0.00    +0.150 A 
ATOM     18  C   LIG    1       10.719   2.237  -0.354  0.00  0.00    -0.690 A 
ATOM     19  C   LIG    1       10.002   3.414  -0.247  0.00  0.00    +0.150 A 
ATOM     20  C   LIG    1        8.625   3.378  -0.145  0.00  0.00    +0.010 A 
BRANCH  18  21
ATOM     21  S   LIG    1       12.476   2.287  -0.484  0.00  0.00    +2.710 S 
ATOM     22  O   LIG    1       12.804   3.572  -0.997  0.00  0.00    -0.950 OA
ATOM     23  O   LIG    1       12.866   1.076  -1.116  0.00  0.00    -0.950 OA
BRANCH  21  24
ATOM     24  N   LIG    1       13.083   2.229   1.055  0.00  0.00    -1.010 NA
ATOM     25  C   LIG    1       13.373   3.393   1.906  0.00  0.00    +0.270 C 
ATOM     26  C   LIG    1       13.943   2.857   3.236  0.00  0.00    +0.030 C 
ATOM     27  C   LIG    1       14.478   1.454   2.842  0.00  0.00    +0.030 C 
ATOM     28  C   LIG    1       13.428   1.003   1.797  0.00  0.00    +0.270 C 
ENDBRANCH  21  24
ENDBRANCH  18  21
ENDBRANCH   2  15
TORSDOF 4
