REMARK  Name = ZINCqH00000048iP.0
REMARK                            x       y       z     vdW  Elec       q    Type
REMARK                         _______ _______ _______ _____ _____    ______ ____
ROOT
ATOM      1  N   LIG    1       -2.837   1.765   0.196  0.00  0.00    -0.570 N 
ATOM      2  C   LIG    1       -2.775   3.228   0.138  0.00  0.00    +0.300 C 
ENDROOT
BRANCH   1   3
ATOM      3  C   LIG    1       -3.534   1.060  -0.780  0.00  0.00    +0.420 A 
ATOM      4  N   LIG    1       -3.585  -0.250  -0.720  0.00  0.00    -0.320 NA
ATOM      5  N   LIG    1       -4.280  -0.977  -1.689  0.00  0.00    -0.240 N 
ATOM      6  C   LIG    1       -4.917  -0.323  -2.715  0.00  0.00    +0.150 A 
ATOM      7  C   LIG    1       -4.861   1.082  -2.777  0.00  0.00    +0.190 A 
ATOM      8  N   LIG    1       -5.483  -1.252  -3.469  0.00  0.00    -0.240 NA
ATOM      9  N   LIG    1       -5.232  -2.413  -2.972  0.00  0.00    -0.200 NA
ATOM     10  C   LIG    1       -4.504  -2.293  -1.889  0.00  0.00    +0.100 A 
ATOM     11  C   LIG    1       -4.181   1.761  -1.816  0.00  0.00    +0.010 A 
BRANCH  10  12
ATOM     12  C   LIG    1       -4.006  -3.422  -1.024  0.00  0.00    +0.580 C 
ATOM     13  F   LIG    1       -4.758  -3.472   0.155  0.00  0.00    -0.160 F 
ATOM     14  F   LIG    1       -2.659  -3.209  -0.709  0.00  0.00    -0.160 F 
ATOM     15  F   LIG    1       -4.138  -4.632  -1.713  0.00  0.00    -0.150 F 
ENDBRANCH  10  12
ENDBRANCH   1   3
BRANCH   1  16
ATOM     16  C   LIG    1       -2.166   1.045   1.281  0.00  0.00    +0.320 C 
BRANCH  16  17
ATOM     17  C   LIG    1       -2.809   1.405   2.596  0.00  0.00    -0.140 A 
ATOM     18  C   LIG    1       -2.178   2.281   3.457  0.00  0.00    +0.060 A 
ATOM     19  C   LIG    1       -2.769   2.615   4.661  0.00  0.00    -0.030 A 
ATOM     20  C   LIG    1       -3.989   2.066   5.011  0.00  0.00    +0.060 A 
ATOM     21  C   LIG    1       -4.622   1.185   4.155  0.00  0.00    -0.080 A 
ATOM     22  C   LIG    1       -4.033   0.852   2.944  0.00  0.00    +0.150 A 
BRANCH  22  23
ATOM     23  O   LIG    1       -4.653  -0.014   2.101  0.00  0.00    -0.300 OA
ATOM     24  C   LIG    1       -5.911  -0.544   2.525  0.00  0.00    +0.240 C 
ENDBRANCH  22  23
ENDBRANCH  16  17
BRANCH  16  26
ATOM     25  C   LIG    1       -0.006   0.958   0.029  0.00  0.00    +0.020 C 
ATOM     26  C   LIG    1       -0.687   1.435   1.313  0.00  0.00    +0.020 C 
ENDBRANCH  16  26
ENDBRANCH   1  16
TORSDOF 6
