REMARK  Name = ZINCrH00000No4HD.0
REMARK                            x       y       z     vdW  Elec       q    Type
REMARK                         _______ _______ _______ _____ _____    ______ ____
ROOT
ATOM      1  C   LIG    1       -1.557  -0.476   0.962  0.00  0.00    +0.430 C 
ATOM      2  O   LIG    1       -1.593   0.049  -0.134  0.00  0.00    -0.460 OA
ENDROOT
BRANCH   1  15
ATOM      3  C   LIG    1       -4.085  -0.175   0.058  0.00  0.00    +0.320 C 
ATOM      4  N   LIG    1       -4.056  -1.637   0.147  0.00  0.00    -0.530 N 
ATOM      5  C   LIG    1       -5.105  -2.463  -0.250  0.00  0.00    +0.150 A 
ATOM      6  C   LIG    1       -6.351  -2.153  -0.791  0.00  0.00    -0.020 A 
ATOM      7  C   LIG    1       -7.238  -3.160  -1.111  0.00  0.00    +0.050 A 
ATOM      8  C   LIG    1       -6.898  -4.484  -0.899  0.00  0.00    -0.010 A 
ATOM      9  C   LIG    1       -5.662  -4.800  -0.362  0.00  0.00    +0.070 A 
ATOM     10  C   LIG    1       -4.775  -3.797  -0.042  0.00  0.00    -0.140 A 
ATOM     11  C   LIG    1       -3.380  -3.811   0.539  0.00  0.00    +0.000 C 
ATOM     12  C   LIG    1       -3.388  -4.449   1.930  0.00  0.00    +0.070 C 
ATOM     13  C   LIG    1       -2.418  -4.558  -0.388  0.00  0.00    +0.070 C 
ATOM     14  C   LIG    1       -3.001  -2.348   0.628  0.00  0.00    +0.240 C 
ATOM     15  C   LIG    1       -1.832  -1.844   1.094  0.00  0.00    -0.190 C 
ENDBRANCH   1  15
BRANCH   1  16
ATOM     16  C   LIG    1       -1.217   0.345   2.180  0.00  0.00    +0.080 C 
BRANCH  16  17
ATOM     17  S   LIG    1       -0.916   2.060   1.686  0.00  0.00    +0.080 S 
BRANCH  17  18
ATOM     18  C   LIG    1       -0.552   2.771   3.257  0.00  0.00    +0.200 A 
ATOM     19  N   LIG    1       -0.536   2.144   4.414  0.00  0.00    -0.340 NA
ATOM     20  N   LIG    1       -0.228   2.956   5.360  0.00  0.00    -0.030 NA
ATOM     21  N   LIG    1       -0.038   4.141   4.891  0.00  0.00    -0.070 NA
ATOM     22  N   LIG    1       -0.242   4.066   3.502  0.00  0.00    -0.350 N 
BRANCH  22  23
ATOM     23  C   LIG    1       -0.140   5.155   2.527  0.00  0.00    +0.260 C 
ATOM     24  C   LIG    1        1.268   5.783   2.582  0.00  0.00    +0.040 C 
ATOM     25  C   LIG    1        1.018   7.296   2.361  0.00  0.00    +0.040 C 
ATOM     26  C   LIG    1       -0.297   7.544   3.140  0.00  0.00    +0.030 C 
ATOM     27  C   LIG    1       -1.135   6.274   2.882  0.00  0.00    +0.040 C 
ENDBRANCH  22  23
ENDBRANCH  17  18
ENDBRANCH  16  17
ENDBRANCH   1  16
TORSDOF 5
