REMARK  Name = ZINCkj00000dD4dm.1
REMARK                            x       y       z     vdW  Elec       q    Type
REMARK                         _______ _______ _______ _____ _____    ______ ____
ROOT
ATOM      1  N   LIG    1       -0.900   1.880  -1.312  0.00  0.00    -1.120 NA
ATOM      2  H   LIG    1       -1.261   1.209  -1.914  0.00  0.00    +0.420 HD
ENDROOT
BRANCH   1   5
ATOM      3  N   LIG    1       -3.435   3.617  -2.178  0.00  0.00    -0.400 N 
ATOM      4  C   LIG    1       -2.513   3.728  -1.018  0.00  0.00    +0.260 C 
ATOM      5  C   LIG    1       -1.137   3.302  -1.574  0.00  0.00    +0.270 C 
ATOM      6  C   LIG    1       -1.220   3.560  -3.092  0.00  0.00    +0.010 C 
ATOM      7  C   LIG    1       -0.167   4.587  -3.515  0.00  0.00    +0.070 C 
ATOM      8  C   LIG    1       -2.639   4.121  -3.326  0.00  0.00    +0.270 C 
ATOM      9  H   LIG    1       -3.702   2.655  -2.326  0.00  0.00    +0.430 HD
BRANCH   3  11
ATOM     10  C   LIG    1       -5.613   4.228  -3.115  0.00  0.00    +0.080 C 
ATOM     11  C   LIG    1       -4.624   4.454  -1.970  0.00  0.00    +0.250 C 
ENDBRANCH   3  11
ENDBRANCH   1   5
BRANCH   1  12
ATOM     12  S   LIG    1       -0.017   1.417   0.010  0.00  0.00    +2.690 S 
ATOM     13  O   LIG    1        1.162   2.210   0.003  0.00  0.00    -0.940 OA
ATOM     14  O   LIG    1        0.002  -0.004   0.002  0.00  0.00    -0.940 OA
BRANCH  12  15
ATOM     15  C   LIG    1       -0.930   1.894   1.440  0.00  0.00    -0.730 A 
ATOM     16  C   LIG    1       -0.727   3.140   2.003  0.00  0.00    +0.150 A 
ATOM     17  C   LIG    1       -1.445   3.519   3.121  0.00  0.00    -0.090 A 
ATOM     18  C   LIG    1       -2.362   2.644   3.684  0.00  0.00    +0.190 A 
ATOM     19  C   LIG    1       -2.560   1.392   3.120  0.00  0.00    -0.020 A 
ATOM     20  C   LIG    1       -1.843   1.020   1.999  0.00  0.00    +0.170 A 
BRANCH  18  21
ATOM     21  O   LIG    1       -3.066   3.012   4.787  0.00  0.00    -0.310 OA
ATOM     22  C   LIG    1       -2.812   4.316   5.314  0.00  0.00    +0.260 C 
ENDBRANCH  18  21
ENDBRANCH  12  15
ENDBRANCH   1  12
TORSDOF 5
