REMARK  Name = ZINCkj00000dD4dm.0
REMARK                            x       y       z     vdW  Elec       q    Type
REMARK                         _______ _______ _______ _____ _____    ______ ____
ROOT
ATOM      1  N   LIG    1       -3.131   1.777   0.657  0.00  0.00    -1.100 NA
ATOM      2  H   LIG    1       -3.042   2.743   0.646  0.00  0.00    +0.430 HD
ENDROOT
BRANCH   1   5
ATOM      3  N   LIG    1       -1.080   0.696   3.503  0.00  0.00    -0.390 N 
ATOM      4  C   LIG    1       -2.395   0.998   2.899  0.00  0.00    +0.240 C 
ATOM      5  C   LIG    1       -2.147   0.959   1.370  0.00  0.00    +0.270 C 
ATOM      6  C   LIG    1       -0.729   1.579   1.267  0.00  0.00    +0.010 C 
ATOM      7  C   LIG    1       -0.013   1.086   0.008  0.00  0.00    +0.070 C 
ATOM      8  C   LIG    1       -0.026   1.053   2.536  0.00  0.00    +0.270 C 
ATOM      9  H   LIG    1       -1.024  -0.289   3.718  0.00  0.00    +0.430 HD
BRANCH   3  11
ATOM     10  C   LIG    1        0.389   1.062   5.428  0.00  0.00    +0.080 C 
ATOM     11  C   LIG    1       -0.909   1.479   4.733  0.00  0.00    +0.250 C 
ENDBRANCH   3  11
ENDBRANCH   1   5
BRANCH   1  12
ATOM     12  S   LIG    1       -4.396   1.053  -0.129  0.00  0.00    +2.690 S 
ATOM     13  O   LIG    1       -3.836   0.005  -0.910  0.00  0.00    -0.940 OA
ATOM     14  O   LIG    1       -5.178   2.102  -0.683  0.00  0.00    -0.940 OA
BRANCH  12  15
ATOM     15  C   LIG    1       -5.398   0.279   1.097  0.00  0.00    -0.730 A 
ATOM     16  C   LIG    1       -5.151  -1.031   1.464  0.00  0.00    +0.150 A 
ATOM     17  C   LIG    1       -5.932  -1.638   2.428  0.00  0.00    -0.090 A 
ATOM     18  C   LIG    1       -6.971  -0.936   3.020  0.00  0.00    +0.190 A 
ATOM     19  C   LIG    1       -7.221   0.377   2.646  0.00  0.00    -0.020 A 
ATOM     20  C   LIG    1       -6.433   0.981   1.685  0.00  0.00    +0.170 A 
BRANCH  18  21
ATOM     21  O   LIG    1       -7.745  -1.533   3.965  0.00  0.00    -0.310 OA
ATOM     22  C   LIG    1       -7.431  -2.886   4.301  0.00  0.00    +0.250 C 
ENDBRANCH  18  21
ENDBRANCH  12  15
ENDBRANCH   1  12
TORSDOF 5
