REMARK  Name = ZINCqH0000008pF0.0
REMARK                            x       y       z     vdW  Elec       q    Type
REMARK                         _______ _______ _______ _____ _____    ______ ____
ROOT
ATOM      1  N   LIG    1        2.838   4.149  -0.003  0.00  0.00    -0.720 N 
ATOM      2  H   LIG    1        3.245   3.269  -0.011  0.00  0.00    +0.400 HD
ATOM      3  C   LIG    1        1.495   4.269   0.010  0.00  0.00    +0.590 C 
ATOM      4  O   LIG    1        0.984   5.373   0.021  0.00  0.00    -0.530 OA
ENDROOT
BRANCH   3   5
ATOM      5  C   LIG    1        0.648   3.065   0.012  0.00  0.00    -0.280 A 
ATOM      6  C   LIG    1        1.075   1.753   0.001  0.00  0.00    +0.300 A 
ATOM      7  N   LIG    1       -0.011   0.966   0.007  0.00  0.00    -0.460 N 
ATOM      8  H   LIG    1        0.002  -0.004   0.002  0.00  0.00    +0.450 HD
ATOM      9  N   LIG    1       -1.165   1.755   0.017  0.00  0.00    -0.280 NA
ATOM     10  C   LIG    1       -0.818   3.022   0.026  0.00  0.00    +0.180 A 
BRANCH  10  11
ATOM     11  C   LIG    1       -1.734   4.188   0.041  0.00  0.00    -0.020 A 
ATOM     12  C   LIG    1       -2.949   4.131  -0.639  0.00  0.00    +0.050 A 
ATOM     13  C   LIG    1       -3.799   5.218  -0.622  0.00  0.00    +0.020 A 
ATOM     14  C   LIG    1       -3.448   6.363   0.069  0.00  0.00    +0.030 A 
ATOM     15  C   LIG    1       -2.242   6.426   0.747  0.00  0.00    -0.040 A 
ATOM     16 CL   LIG    1       -1.808   7.867   1.612  0.00  0.00    -0.070 Cl
ATOM     17  C   LIG    1       -1.386   5.342   0.740  0.00  0.00    +0.110 A 
ENDBRANCH  10  11
ENDBRANCH   3   5
BRANCH   1  19
ATOM     18  C   LIG    1        3.858   5.843  -1.442  0.00  0.00    +0.020 C 
ATOM     19  C   LIG    1        3.681   5.347  -0.005  0.00  0.00    +0.220 C 
BRANCH  19  20
ATOM     20  C   LIG    1        5.049   5.008   0.590  0.00  0.00    +0.260 C 
BRANCH  20  21
ATOM     21  C   LIG    1        5.873   6.265   0.701  0.00  0.00    -0.130 A 
ATOM     22  C   LIG    1        6.524   6.765  -0.411  0.00  0.00    +0.050 A 
ATOM     23  C   LIG    1        7.276   7.921  -0.311  0.00  0.00    -0.010 A 
ATOM     24  C   LIG    1        7.385   8.572   0.906  0.00  0.00    +0.100 A 
ATOM     25  C   LIG    1        6.737   8.067   2.020  0.00  0.00    -0.010 A 
ATOM     26  F   LIG    1        8.124   9.699   1.006  0.00  0.00    -0.140 F 
ATOM     27  C   LIG    1        5.982   6.914   1.917  0.00  0.00    +0.070 A 
ENDBRANCH  20  21
BRANCH  20  28
ATOM     28  O   LIG    1        5.719   4.073  -0.258  0.00  0.00    -0.550 OA
ATOM     29  H   LIG    1        5.870   4.396  -1.157  0.00  0.00    +0.380 HD
ENDBRANCH  20  28
ENDBRANCH  19  20
ENDBRANCH   1  19
TORSDOF 6
