REMARK  Name = ZINCrD000000AmRi.0
REMARK                            x       y       z     vdW  Elec       q    Type
REMARK                         _______ _______ _______ _____ _____    ______ ____
ROOT
ATOM      1  C   LIG    1        2.731  -0.169   0.008  0.00  0.00    +0.220 A 
ATOM      2  C   LIG    1        1.669  -1.062  -0.021  0.00  0.00    +0.010 A 
ATOM      3  C   LIG    1        0.371  -0.594  -0.062  0.00  0.00    +0.060 A 
ATOM      4  C   LIG    1        0.117   0.768  -0.074  0.00  0.00    -0.020 A 
ATOM      5  C   LIG    1        1.159   1.670  -0.045  0.00  0.00    +0.070 A 
ATOM      6  C   LIG    1        2.477   1.211  -0.004  0.00  0.00    -0.180 A 
ENDROOT
BRANCH   1   9
ATOM      7  O   LIG    1        3.478  -2.509  -1.005  0.00  0.00    -0.500 OA
ATOM      8  C   LIG    1        4.333  -1.861  -0.439  0.00  0.00    +0.510 C 
ATOM      9  N   LIG    1        4.041  -0.639   0.048  0.00  0.00    -0.660 N 
ATOM     10  H   LIG    1        4.743  -0.087   0.426  0.00  0.00    +0.430 HD
BRANCH   8  11
ATOM     11  C   LIG    1        5.722  -2.424  -0.279  0.00  0.00    +0.230 C 
BRANCH  11  12
ATOM     12  N   LIG    1        5.818  -3.703  -0.995  0.00  0.00    -0.470 N 
ATOM     13  C   LIG    1        5.672  -3.506  -2.454  0.00  0.00    +0.240 C 
ATOM     14  C   LIG    1        7.139  -3.400  -2.929  0.00  0.00    +0.050 C 
ATOM     15  C   LIG    1        7.894  -4.171  -1.865  0.00  0.00    -0.130 A 
ATOM     16  C   LIG    1        9.170  -4.695  -1.846  0.00  0.00    +0.030 A 
ATOM     17  C   LIG    1        9.623  -5.375  -0.730  0.00  0.00    +0.000 A 
ATOM     18  C   LIG    1        8.796  -5.528   0.367  0.00  0.00    +0.030 A 
ATOM     19  C   LIG    1        7.520  -5.004   0.354  0.00  0.00    +0.020 A 
ATOM     20  C   LIG    1        7.056  -4.315  -0.765  0.00  0.00    +0.080 A 
ENDBRANCH  11  12
ENDBRANCH   8  11
ENDBRANCH   1   9
BRANCH   6  21
ATOM     21  C   LIG    1        3.596   2.172   0.027  0.00  0.00    +0.570 C 
ATOM     22  N   LIG    1        3.348   3.493   0.125  0.00  0.00    -0.720 N 
ATOM     23  H   LIG    1        2.433   3.812   0.175  0.00  0.00    +0.400 HD
ATOM     24  O   LIG    1        4.743   1.772  -0.035  0.00  0.00    -0.550 OA
BRANCH  22  25
ATOM     25  C   LIG    1        4.460   4.447   0.156  0.00  0.00    +0.230 C 
ATOM     26  C   LIG    1        4.953   4.636   1.606  0.00  0.00    +0.010 C 
ATOM     27  C   LIG    1        5.314   6.141   1.689  0.00  0.00    +0.010 C 
ATOM     28  C   LIG    1        4.204   6.807   0.839  0.00  0.00    +0.020 C 
ATOM     29  C   LIG    1        3.984   5.826  -0.332  0.00  0.00    +0.020 C 
ENDBRANCH  22  25
ENDBRANCH   6  21
TORSDOF 5
