REMARK  Name = ZINCvU0000000HWI.0
REMARK                            x       y       z     vdW  Elec       q    Type
REMARK                         _______ _______ _______ _____ _____    ______ ____
ROOT
ATOM      1  C   LIG    1        5.755   3.734  -0.144  0.00  0.00    +0.410 A 
ATOM      2  N   LIG    1        6.007   2.490   0.238  0.00  0.00    -0.570 NA
ATOM      3  C   LIG    1        5.051   1.585   0.430  0.00  0.00    +0.420 A 
ATOM      4  C   LIG    1        3.723   2.033   0.199  0.00  0.00    -0.180 A 
ATOM      5  C   LIG    1        3.508   3.360  -0.205  0.00  0.00    +0.100 A 
ATOM      6  S   LIG    1        1.798   3.640  -0.416  0.00  0.00    +0.200 S 
ATOM      7  C   LIG    1        1.397   1.988   0.035  0.00  0.00    -0.180 A 
ATOM      8  C   LIG    1       -0.017   1.439   0.087  0.00  0.00    +0.120 C 
ATOM      9  C   LIG    1        0.045  -0.090   0.104  0.00  0.00    +0.030 C 
ATOM     10  C   LIG    1        1.030  -0.534   1.190  0.00  0.00    +0.020 C 
ATOM     11  C   LIG    1        2.452  -0.185   0.749  0.00  0.00    +0.100 C 
ATOM     12  C   LIG    1        2.494   1.278   0.326  0.00  0.00    -0.060 A 
ATOM     13  N   LIG    1        4.532   4.204  -0.374  0.00  0.00    -0.470 NA
ENDROOT
BRANCH   1  18
ATOM     14  C   LIG    1        9.236   5.146  -0.185  0.00  0.00    -0.040 A 
ATOM     15  C   LIG    1        8.959   6.403  -0.691  0.00  0.00    +0.280 A 
ATOM     16  N   LIG    1        7.725   6.758  -0.995  0.00  0.00    -0.490 NA
ATOM     17  C   LIG    1        6.707   5.938  -0.837  0.00  0.00    +0.320 A 
ATOM     18  C   LIG    1        6.902   4.655  -0.327  0.00  0.00    -0.110 A 
ATOM     19  C   LIG    1        8.198   4.249   0.004  0.00  0.00    +0.130 A 
ENDBRANCH   1  18
BRANCH   3  20
ATOM     20  O   LIG    1        5.327   0.319   0.822  0.00  0.00    -0.220 OA
BRANCH  20  21
ATOM     21  C   LIG    1        6.615   0.011   1.127  0.00  0.00    +0.110 A 
ATOM     22  C   LIG    1        7.380  -0.729   0.234  0.00  0.00    +0.030 A 
ATOM     23  C   LIG    1        8.688  -1.038   0.537  0.00  0.00    +0.070 A 
ATOM     24  C   LIG    1        9.241  -0.616   1.748  0.00  0.00    -0.020 A 
ATOM     25  C   LIG    1        8.467   0.123   2.645  0.00  0.00    +0.100 A 
ATOM     26  C   LIG    1        7.161   0.433   2.332  0.00  0.00    +0.030 A 
BRANCH  24  27
ATOM     27  C   LIG    1       10.642  -0.949   2.079  0.00  0.00    +0.210 A 
ATOM     28  N   LIG    1       11.283  -0.618   3.176  0.00  0.00    -0.270 NA
ATOM     29  N   LIG    1       12.483  -1.078   3.121  0.00  0.00    -0.290 NA
ATOM     30  C   LIG    1       12.655  -1.716   1.997  0.00  0.00    +0.420 A 
ATOM     31  O   LIG    1       11.498  -1.656   1.314  0.00  0.00    -0.220 OA
ENDBRANCH  24  27
ENDBRANCH  20  21
ENDBRANCH   3  20
TORSDOF 4
