REMARK  Name = ZINCvU00000006wp.0
REMARK                            x       y       z     vdW  Elec       q    Type
REMARK                         _______ _______ _______ _____ _____    ______ ____
ROOT
ATOM      1  C   LIG    1       -4.106  -4.776  -0.117  0.00  0.00    +0.560 C 
ATOM      2  N   LIG    1       -2.877  -4.235  -0.004  0.00  0.00    -0.670 N 
ATOM      3  H   LIG    1       -2.098  -4.809   0.060  0.00  0.00    +0.410 HD
ATOM      4  O   LIG    1       -5.088  -4.059  -0.117  0.00  0.00    -0.510 OA
ENDROOT
BRANCH   1   9
ATOM      5  C   LIG    1       -4.691 -10.485  -0.598  0.00  0.00    +0.110 C 
ATOM      6  C   LIG    1       -4.540  -8.991  -0.473  0.00  0.00    -0.080 A 
ATOM      7  C   LIG    1       -3.280  -8.434  -0.358  0.00  0.00    +0.030 A 
ATOM      8  C   LIG    1       -3.134  -7.066  -0.242  0.00  0.00    +0.040 A 
ATOM      9  C   LIG    1       -4.260  -6.241  -0.242  0.00  0.00    -0.120 A 
ATOM     10  C   LIG    1       -5.532  -6.804  -0.353  0.00  0.00    +0.100 A 
ATOM     11  C   LIG    1       -5.668  -8.178  -0.473  0.00  0.00    +0.140 A 
BRANCH  11  12
ATOM     12  N   LIG    1       -6.940  -8.748  -0.590  0.00  0.00    -0.660 N 
ATOM     13  H   LIG    1       -7.120  -9.616  -0.198  0.00  0.00    +0.420 HD
ATOM     14  C   LIG    1       -7.915  -8.090  -1.248  0.00  0.00    +0.610 C 
ATOM     15  O   LIG    1       -7.662  -7.050  -1.828  0.00  0.00    -0.490 OA
BRANCH  14  16
ATOM     16  C   LIG    1       -9.279  -8.627  -1.266  0.00  0.00    -0.090 A 
ATOM     17  C   LIG    1      -10.355  -8.064  -1.891  0.00  0.00    +0.050 A 
ATOM     18  C   LIG    1      -11.449  -8.909  -1.649  0.00  0.00    -0.060 A 
ATOM     19  C   LIG    1      -10.999  -9.937  -0.897  0.00  0.00    +0.210 A 
ATOM     20  O   LIG    1       -9.690  -9.766  -0.672  0.00  0.00    -0.170 OA
ENDBRANCH  14  16
ENDBRANCH  11  12
ENDBRANCH   1   9
BRANCH   2  21
ATOM     21  C   LIG    1       -2.725  -2.845   0.020  0.00  0.00    +0.160 A 
ATOM     22  C   LIG    1       -1.614  -2.256  -0.571  0.00  0.00    -0.010 A 
ATOM     23  C   LIG    1       -1.463  -0.883  -0.547  0.00  0.00    +0.050 A 
ATOM     24  C   LIG    1       -2.416  -0.092   0.066  0.00  0.00    -0.020 A 
ATOM     25  C   LIG    1       -3.528  -0.674   0.658  0.00  0.00    +0.100 A 
ATOM     26  C   LIG    1       -3.680  -2.052   0.640  0.00  0.00    +0.030 A 
BRANCH  25  27
ATOM     27  O   LIG    1       -4.464   0.106   1.260  0.00  0.00    -0.260 OA
BRANCH  27  28
ATOM     28  C   LIG    1       -5.323   0.798   0.468  0.00  0.00    +0.120 A 
ATOM     29  C   LIG    1       -5.164   0.782  -0.911  0.00  0.00    -0.060 A 
ATOM     30  C   LIG    1       -6.041   1.484  -1.715  0.00  0.00    +0.050 A 
ATOM     31  C   LIG    1       -7.071   2.210  -1.146  0.00  0.00    -0.020 A 
ATOM     32  C   LIG    1       -7.229   2.232   0.227  0.00  0.00    +0.050 A 
ATOM     33  C   LIG    1       -6.358   1.528   1.035  0.00  0.00    -0.020 A 
ENDBRANCH  27  28
ENDBRANCH  25  27
ENDBRANCH   2  21
TORSDOF 6
