REMARK  Name = ZINCqH0000002ZOD.0
REMARK                            x       y       z     vdW  Elec       q    Type
REMARK                         _______ _______ _______ _____ _____    ______ ____
ROOT
ATOM      1  C   LIG    1       -7.719   4.706  -0.697  0.00  0.00    -0.090 A 
ATOM      2  C   LIG    1       -7.265   5.117   0.543  0.00  0.00    +0.040 A 
ATOM      3  C   LIG    1       -5.929   4.989   0.868  0.00  0.00    -0.030 A 
ATOM      4  C   LIG    1       -5.041   4.447  -0.052  0.00  0.00    +0.170 A 
ATOM      5  C   LIG    1       -5.499   4.040  -1.299  0.00  0.00    +0.010 A 
ATOM      6  C   LIG    1       -6.838   4.166  -1.615  0.00  0.00    +0.040 A 
ENDROOT
BRANCH   4   7
ATOM      7  N   LIG    1       -3.686   4.316   0.273  0.00  0.00    -0.680 N 
ATOM      8  H   LIG    1       -3.422   4.142   1.190  0.00  0.00    +0.400 HD
ATOM      9  C   LIG    1       -2.748   4.433  -0.687  0.00  0.00    +0.710 C 
ATOM     10  N   LIG    1       -1.459   4.153  -0.408  0.00  0.00    -0.620 N 
ATOM     11  C   LIG    1       -0.493   4.193  -1.483  0.00  0.00    +0.310 C 
ATOM     12  C   LIG    1       -0.407   2.801  -2.156  0.00  0.00    +0.030 C 
ATOM     13  C   LIG    1        0.259   1.841  -1.262  0.00  0.00    +0.020 C 
ATOM     14  C   LIG    1       -0.485   1.583   0.045  0.00  0.00    +0.300 C 
ATOM     15  C   LIG    1       -0.103   2.641   1.053  0.00  0.00    +0.030 C 
ATOM     16  F   LIG    1       -0.137   0.322   0.539  0.00  0.00    -0.200 F 
ATOM     17  F   LIG    1       -1.864   1.630  -0.186  0.00  0.00    -0.190 F 
ATOM     18  C   LIG    1       -1.093   3.817   0.982  0.00  0.00    +0.270 C 
ATOM     19  O   LIG    1       -3.064   4.791  -1.806  0.00  0.00    -0.560 OA
ENDBRANCH   4   7
BRANCH   1  20
ATOM     20  C   LIG    1       -9.178   4.846  -1.048  0.00  0.00    +0.100 C 
BRANCH  20  22
ATOM     21  N   LIG    1      -10.653   6.539  -2.085  0.00  0.00    -0.620 N 
ATOM     22  C   LIG    1       -9.414   6.191  -1.687  0.00  0.00    +0.510 C 
ATOM     23  O   LIG    1       -8.488   6.959  -1.842  0.00  0.00    -0.520 OA
BRANCH  21  25
ATOM     24  C   LIG    1      -10.705   7.729  -4.222  0.00  0.00    +0.010 C 
ATOM     25  C   LIG    1      -10.882   7.846  -2.707  0.00  0.00    +0.270 C 
ENDBRANCH  21  25
BRANCH  21  26
ATOM     26  C   LIG    1      -11.771   5.611  -1.898  0.00  0.00    +0.260 C 
ATOM     27  C   LIG    1      -12.417   5.860  -0.534  0.00  0.00    +0.020 C 
ENDBRANCH  21  26
ENDBRANCH  20  22
ENDBRANCH   1  20
TORSDOF 5
