REMARK  Name = ZINCrH000004pTLi.0
REMARK                            x       y       z     vdW  Elec       q    Type
REMARK                         _______ _______ _______ _____ _____    ______ ____
ROOT
ATOM      1  C   LIG    1        1.395   2.047   0.022  0.00  0.00    +0.510 C 
ATOM      2  N   LIG    1        1.624   3.376   0.024  0.00  0.00    -0.730 N 
ATOM      3  H   LIG    1        0.878   3.996   0.044  0.00  0.00    +0.400 HD
ATOM      4  O   LIG    1        2.328   1.272  -0.004  0.00  0.00    -0.540 OA
ENDROOT
BRANCH   1   5
ATOM      5  C   LIG    1       -0.018   1.526   0.052  0.00  0.00    +0.060 C 
BRANCH   5   6
ATOM      6  C   LIG    1        0.003  -0.004   0.044  0.00  0.00    +0.170 C 
BRANCH   6  10
ATOM      7  C   LIG    1       -3.340  -1.248   0.828  0.00  0.00    +0.030 A 
ATOM      8  C   LIG    1       -3.417  -1.258  -0.515  0.00  0.00    -0.060 A 
ATOM      9  C   LIG    1       -2.174  -0.793  -1.001  0.00  0.00    -0.050 A 
ATOM     10  C   LIG    1       -1.411  -0.526   0.074  0.00  0.00    -0.020 A 
ATOM     11  O   LIG    1       -2.120  -0.809   1.179  0.00  0.00    -0.170 OA
BRANCH   7  15
ATOM     12  C   LIG    1       -2.748  -3.463   2.656  0.00  0.00    +0.050 C 
ATOM     13  C   LIG    1       -4.135  -2.820   2.735  0.00  0.00    -0.030 C 
ATOM     14  C   LIG    1       -4.220  -1.387   3.266  0.00  0.00    +0.030 C 
ATOM     15  C   LIG    1       -4.433  -1.665   1.777  0.00  0.00    +0.040 C 
ENDBRANCH   7  15
ENDBRANCH   6  10
ENDBRANCH   5   6
ENDBRANCH   1   5
BRANCH   2  16
ATOM     16  C   LIG    1        2.998   3.883  -0.006  0.00  0.00    +0.320 C 
BRANCH  16  17
ATOM     17  C   LIG    1        2.977   5.390   0.003  0.00  0.00    -0.140 A 
ATOM     18  C   LIG    1        2.946   6.086  -1.192  0.00  0.00    +0.060 A 
ATOM     19  C   LIG    1        2.922   7.467  -1.188  0.00  0.00    +0.000 A 
ATOM     20  C   LIG    1        2.941   8.156   0.018  0.00  0.00    +0.170 A 
ATOM     21  C   LIG    1        2.978   7.454   1.215  0.00  0.00    -0.030 A 
ATOM     22  C   LIG    1        2.996   6.073   1.204  0.00  0.00    +0.060 A 
BRANCH  20  23
ATOM     23  N   LIG    1        2.923   9.555   0.025  0.00  0.00    -0.560 N 
ATOM     24  C   LIG    1        2.818  10.376   1.238  0.00  0.00    +0.260 C 
ATOM     25  C   LIG    1        2.401  11.781   0.750  0.00  0.00    +0.060 C 
ATOM     26  C   LIG    1        2.941  11.784  -0.699  0.00  0.00    +0.070 C 
ATOM     27  C   LIG    1        3.005  10.321  -1.076  0.00  0.00    +0.520 C 
ATOM     28  O   LIG    1        3.112   9.900  -2.209  0.00  0.00    -0.510 OA
ENDBRANCH  20  23
ENDBRANCH  16  17
ENDBRANCH   2  16
TORSDOF 7
