REMARK  Name = ZINCpk00000xIi9t.0
REMARK                            x       y       z     vdW  Elec       q    Type
REMARK                         _______ _______ _______ _____ _____    ______ ____
ROOT
ATOM      1  N   LIG    1       -7.236   8.301   0.083  0.00  0.00    -0.670 N 
ATOM      2  H   LIG    1       -8.122   7.911   0.135  0.00  0.00    +0.420 HD
ATOM      3  C   LIG    1       -6.160   7.509  -0.098  0.00  0.00    +0.520 C 
ATOM      4  O   LIG    1       -5.064   8.002  -0.259  0.00  0.00    -0.490 OA
ENDROOT
BRANCH   1   8
ATOM      5  C   LIG    1       -6.753  12.425   0.418  0.00  0.00    -0.150 A 
ATOM      6  C   LIG    1       -7.898  11.901  -0.189  0.00  0.00    +0.100 A 
ATOM      7  C   LIG    1       -8.054  10.537  -0.298  0.00  0.00    -0.010 A 
ATOM      8  C   LIG    1       -7.074   9.681   0.195  0.00  0.00    +0.170 A 
ATOM      9  C   LIG    1       -5.936  10.200   0.804  0.00  0.00    +0.010 A 
ATOM     10  C   LIG    1       -5.771  11.562   0.912  0.00  0.00    +0.070 A 
BRANCH   5  14
ATOM     11  N   LIG    1       -5.479  14.390   1.124  0.00  0.00    -0.850 N 
ATOM     12  H   LIG    1       -5.367  15.350   1.203  0.00  0.00    +0.410 HD
ATOM     13  H   LIG    1       -4.796  13.792   1.467  0.00  0.00    +0.400 HD
ATOM     14  C   LIG    1       -6.583  13.886   0.538  0.00  0.00    +0.560 C 
ATOM     15  O   LIG    1       -7.439  14.635   0.108  0.00  0.00    -0.540 OA
ENDBRANCH   5  14
ENDBRANCH   1   8
BRANCH   3  16
ATOM     16  C   LIG    1       -6.320   6.010  -0.100  0.00  0.00    +0.270 C 
BRANCH  16  17
ATOM     17  O   LIG    1       -5.026   5.386  -0.311  0.00  0.00    -0.320 OA
BRANCH  17  18
ATOM     18  C   LIG    1       -4.994   4.040  -0.340  0.00  0.00    +0.510 C 
ATOM     19  O   LIG    1       -6.019   3.405  -0.193  0.00  0.00    -0.480 OA
BRANCH  18  20
ATOM     20  C   LIG    1       -3.713   3.336  -0.551  0.00  0.00    -0.080 A 
ATOM     21  C   LIG    1       -3.676   1.940  -0.582  0.00  0.00    +0.110 A 
ATOM     22  C   LIG    1       -2.476   1.289  -0.779  0.00  0.00    +0.110 A 
ATOM     23  C   LIG    1       -1.310   2.016  -0.946  0.00  0.00    -0.010 A 
ATOM     24  C   LIG    1       -1.339   3.399  -0.911  0.00  0.00    +0.100 A 
ATOM     25  C   LIG    1       -2.533   4.063  -0.721  0.00  0.00    +0.110 A 
BRANCH  23  26
ATOM     26  N   LIG    1       -0.026   1.310  -1.157  0.00  0.00    +0.020 N 
ATOM     27  O   LIG    1        1.000   1.947  -1.310  0.00  0.00    -0.150 OA
ATOM     28  O   LIG    1        0.002   0.093  -1.183  0.00  0.00    -0.150 OA
ENDBRANCH  23  26
ENDBRANCH  18  20
ENDBRANCH  17  18
ENDBRANCH  16  17
ENDBRANCH   3  16
TORSDOF 7
