REMARK  Name = ZINCqH0000000qla.0
REMARK                            x       y       z     vdW  Elec       q    Type
REMARK                         _______ _______ _______ _____ _____    ______ ____
ROOT
ATOM      1  C   LIG    1        7.082   0.995  -0.062  0.00  0.00    +0.130 A 
ATOM      2  C   LIG    1        6.832  -0.327  -0.068  0.00  0.00    -0.110 A 
ATOM      3  S   LIG    1        5.084  -0.556  -0.052  0.00  0.00    +0.210 S 
ATOM      4  C   LIG    1        4.855   1.190  -0.039  0.00  0.00    +0.270 A 
ATOM      5  N   LIG    1        6.012   1.776  -0.052  0.00  0.00    -0.490 NA
ENDROOT
BRANCH   1   9
ATOM      6  C   LIG    1       11.037   2.557  -0.091  0.00  0.00    -0.100 A 
ATOM      7  C   LIG    1        9.955   3.420  -0.076  0.00  0.00    +0.030 A 
ATOM      8  C   LIG    1        8.669   2.918  -0.067  0.00  0.00    +0.040 A 
ATOM      9  C   LIG    1        8.462   1.540  -0.073  0.00  0.00    -0.010 A 
ATOM     10  C   LIG    1        9.555   0.676  -0.083  0.00  0.00    +0.030 A 
ATOM     11  C   LIG    1       10.836   1.188  -0.098  0.00  0.00    +0.030 A 
BRANCH   6  12
ATOM     12  C   LIG    1       12.438   3.111  -0.102  0.00  0.00    +0.320 C 
BRANCH  12  15
ATOM     13  C   LIG    1       14.621   3.944   2.931  0.00  0.00    +0.090 C 
ATOM     14  C   LIG    1       14.140   3.768   1.514  0.00  0.00    +0.510 C 
ATOM     15  N   LIG    1       12.905   3.282   1.276  0.00  0.00    -0.730 N 
ATOM     16  H   LIG    1       12.326   3.046   2.018  0.00  0.00    +0.400 HD
ATOM     17  O   LIG    1       14.864   4.063   0.587  0.00  0.00    -0.550 OA
ENDBRANCH  12  15
ENDBRANCH   6  12
ENDBRANCH   1   9
BRANCH   4  18
ATOM     18  N   LIG    1        3.627   1.839  -0.023  0.00  0.00    -0.620 N 
ATOM     19  H   LIG    1        3.591   2.808  -0.017  0.00  0.00    +0.420 HD
ATOM     20  C   LIG    1        2.486   1.121  -0.016  0.00  0.00    +0.570 C 
ATOM     21  O   LIG    1        2.533  -0.094  -0.024  0.00  0.00    -0.490 OA
BRANCH  20  22
ATOM     22  C   LIG    1        1.180   1.810   0.001  0.00  0.00    -0.190 A 
ATOM     23  C   LIG    1       -0.013   1.076   0.008  0.00  0.00    +0.170 A 
ATOM     24  C   LIG    1       -1.209   1.769   0.017  0.00  0.00    +0.000 A 
ATOM     25  C   LIG    1       -1.191   3.154   0.031  0.00  0.00    +0.200 A 
ATOM     26  N   LIG    1       -0.050   3.820   0.024  0.00  0.00    -0.480 NA
ATOM     27 CL   LIG    1       -2.690   4.028   0.051  0.00  0.00    -0.010 Cl
ATOM     28  C   LIG    1        1.114   3.205   0.009  0.00  0.00    +0.330 A 
ENDBRANCH  20  22
ENDBRANCH   4  18
TORSDOF 5
