REMARK  Name = ZINCpk000005TlNv.0
REMARK                            x       y       z     vdW  Elec       q    Type
REMARK                         _______ _______ _______ _____ _____    ______ ____
ROOT
ATOM      1  C   LIG    1       -0.174   0.817  -0.138  0.00  0.00    +0.240 C 
ATOM      2  C   LIG    1        0.344   2.264  -0.138  0.00  0.00    +0.060 C 
ATOM      3  C   LIG    1        1.754   1.683   0.066  0.00  0.00    +0.000 C 
ATOM      4  C   LIG    1        2.370   1.090  -1.246  0.00  0.00    +0.220 C 
ATOM      5  N   LIG    1        2.620  -0.338  -0.993  0.00  0.00    -0.420 N 
ATOM      6  C   LIG    1        1.830  -0.769   0.171  0.00  0.00    +0.250 C 
ATOM      7  C   LIG    1        1.061   0.452   0.699  0.00  0.00    -0.010 C 
ENDROOT
BRANCH   5   8
ATOM      8  C   LIG    1        2.317  -1.099  -2.107  0.00  0.00    +0.330 A 
ATOM      9  N   LIG    1        1.552  -2.163  -2.136  0.00  0.00    -0.300 NA
ATOM     10  N   LIG    1        1.495  -2.613  -3.340  0.00  0.00    -0.240 NA
ATOM     11  C   LIG    1        2.214  -1.861  -4.120  0.00  0.00    +0.160 A 
ATOM     12  O   LIG    1        2.747  -0.882  -3.363  0.00  0.00    -0.230 OA
BRANCH  11  13
ATOM     13  C   LIG    1        2.410  -2.046  -5.603  0.00  0.00    +0.050 C 
ATOM     14  C   LIG    1        1.658  -3.195  -6.277  0.00  0.00    +0.090 C 
ATOM     15  C   LIG    1        3.171  -3.291  -6.065  0.00  0.00    +0.060 C 
ENDBRANCH  11  13
ENDBRANCH   5   8
BRANCH   1  17
ATOM     16  C   LIG    1       -1.020  -0.828  -1.723  0.00  0.00    +0.600 C 
ATOM     17  N   LIG    1       -0.186   0.199  -1.466  0.00  0.00    -0.730 N 
ATOM     18  H   LIG    1        0.406   0.528  -2.160  0.00  0.00    +0.390 HD
ATOM     19  O   LIG    1       -1.783  -1.223  -0.861  0.00  0.00    -0.510 OA
BRANCH  16  24
ATOM     20  C   LIG    1       -1.402  -2.860  -4.746  0.00  0.00    -0.120 A 
ATOM     21  C   LIG    1       -0.528  -1.877  -5.170  0.00  0.00    +0.290 A 
ATOM     22  N   LIG    1       -0.295  -1.044  -4.141  0.00  0.00    -0.540 N 
ATOM     23  H   LIG    1        0.284  -0.266  -4.168  0.00  0.00    +0.410 HD
ATOM     24  C   LIG    1       -1.008  -1.471  -3.043  0.00  0.00    -0.040 A 
ATOM     25  C   LIG    1       -1.697  -2.596  -3.390  0.00  0.00    +0.130 A 
BRANCH  20  27
ATOM     26  N   LIG    1       -2.311  -4.805  -6.155  0.00  0.00    -0.430 NA
ATOM     27  C   LIG    1       -1.909  -3.944  -5.532  0.00  0.00    +0.290 C 
ENDBRANCH  20  27
ENDBRANCH  16  24
ENDBRANCH   1  17
TORSDOF 5
