REMARK  Name = ZINCvU00000009nk.0
REMARK                            x       y       z     vdW  Elec       q    Type
REMARK                         _______ _______ _______ _____ _____    ______ ____
ROOT
ATOM      1  C   LIG    1       -0.137   1.312  -0.082  0.00  0.00    +0.560 C 
ATOM      2  N   LIG    1       -1.284   1.981   0.146  0.00  0.00    -0.670 N 
ATOM      3  H   LIG    1       -1.260   2.927   0.359  0.00  0.00    +0.410 HD
ATOM      4  O   LIG    1       -0.160   0.110  -0.266  0.00  0.00    -0.510 OA
ENDROOT
BRANCH   1   8
ATOM      5  C   LIG    1        3.558   3.404  -0.173  0.00  0.00    +0.190 A 
ATOM      6  C   LIG    1        3.534   2.029  -0.383  0.00  0.00    +0.020 A 
ATOM      7  C   LIG    1        2.338   1.348  -0.355  0.00  0.00    +0.110 A 
ATOM      8  C   LIG    1        1.147   2.039  -0.113  0.00  0.00    -0.150 A 
ATOM      9  C   LIG    1        1.175   3.421   0.092  0.00  0.00    +0.070 A 
ATOM     10  C   LIG    1        2.375   4.095   0.068  0.00  0.00    -0.010 A 
BRANCH   5  12
ATOM     11  C   LIG    1        5.754   3.686  -1.032  0.00  0.00    +0.650 C 
ATOM     12  N   LIG    1        4.771   4.091  -0.203  0.00  0.00    -0.650 N 
ATOM     13  H   LIG    1        4.907   4.860   0.371  0.00  0.00    +0.420 HD
ATOM     14  O   LIG    1        5.551   2.784  -1.820  0.00  0.00    -0.540 OA
BRANCH  11  15
ATOM     15  O   LIG    1        6.961   4.281  -0.986  0.00  0.00    -0.360 OA
BRANCH  15  17
ATOM     16  C   LIG    1        7.480   3.971  -3.345  0.00  0.00    +0.030 C 
ATOM     17  C   LIG    1        7.972   3.793  -1.907  0.00  0.00    +0.140 C 
ATOM     18  C   LIG    1        8.235   2.310  -1.637  0.00  0.00    +0.030 C 
ATOM     19  C   LIG    1        9.267   4.585  -1.709  0.00  0.00    +0.080 C 
ENDBRANCH  15  17
ENDBRANCH  11  15
ENDBRANCH   5  12
ENDBRANCH   1   8
BRANCH   2  20
ATOM     20  C   LIG    1       -2.511   1.311   0.073  0.00  0.00    +0.130 A 
ATOM     21  C   LIG    1       -3.631   1.963  -0.426  0.00  0.00    +0.010 A 
ATOM     22  C   LIG    1       -4.840   1.301  -0.502  0.00  0.00    +0.010 A 
ATOM     23  C   LIG    1       -4.939  -0.015  -0.068  0.00  0.00    +0.130 A 
ATOM     24  C   LIG    1       -3.820  -0.666   0.437  0.00  0.00    +0.040 A 
ATOM     25  C   LIG    1       -2.611  -0.005   0.507  0.00  0.00    +0.040 A 
BRANCH  23  26
ATOM     26  N   LIG    1       -6.166  -0.685  -0.140  0.00  0.00    -0.660 N 
ATOM     27  H   LIG    1       -6.783  -0.490  -0.863  0.00  0.00    +0.420 HD
ATOM     28  C   LIG    1       -6.489  -1.601   0.794  0.00  0.00    +0.610 C 
ATOM     29  O   LIG    1       -5.759  -1.778   1.751  0.00  0.00    -0.500 OA
BRANCH  28  30
ATOM     30  C   LIG    1       -7.720  -2.385   0.656  0.00  0.00    -0.090 A 
ATOM     31  C   LIG    1       -8.165  -3.341   1.525  0.00  0.00    +0.050 A 
ATOM     32  C   LIG    1       -9.374  -3.828   1.005  0.00  0.00    -0.070 A 
ATOM     33  C   LIG    1       -9.611  -3.158  -0.144  0.00  0.00    +0.210 A 
ATOM     34  O   LIG    1       -8.616  -2.285  -0.348  0.00  0.00    -0.170 OA
ENDBRANCH  28  30
ENDBRANCH  23  26
ENDBRANCH   2  20
TORSDOF 7
