REMARK  Name = ZINCpe000000UZIx.0
REMARK                            x       y       z     vdW  Elec       q    Type
REMARK                         _______ _______ _______ _____ _____    ______ ____
ROOT
ATOM      1  C   LIG    1        2.179  -0.137  -1.070  0.00  0.00    +0.000 C 
ATOM      2  C   LIG    1        2.130   1.385  -1.225  0.00  0.00    +0.030 C 
ATOM      3  C   LIG    1        1.385   1.997  -0.036  0.00  0.00    +0.010 C 
ATOM      4  C   LIG    1       -0.052   1.466  -0.011  0.00  0.00    +0.270 C 
ATOM      5  N   LIG    1       -0.013  -0.003  -0.008  0.00  0.00    -0.620 N 
ATOM      6  C   LIG    1       -0.668  -0.705   0.938  0.00  0.00    +0.710 C 
ATOM      7  N   LIG    1       -1.281  -0.062   1.951  0.00  0.00    -0.730 N 
ATOM      8  H   LIG    1       -1.302   0.908   1.968  0.00  0.00    +0.410 HD
ATOM      9  O   LIG    1       -0.705  -1.919   0.877  0.00  0.00    -0.580 OA
ATOM     10  C   LIG    1        0.752  -0.692  -1.056  0.00  0.00    +0.300 C 
ENDROOT
BRANCH   1  11
ATOM     11  C   LIG    1        2.952  -0.745  -2.242  0.00  0.00    -0.350 C 
BRANCH  11  12
ATOM     12  S   LIG    1        3.135  -2.531  -1.985  0.00  0.00    +2.610 S 
ATOM     13  O   LIG    1        1.876  -3.181  -2.091  0.00  0.00    -0.950 OA
ATOM     14  O   LIG    1        4.003  -2.791  -0.890  0.00  0.00    -0.950 OA
BRANCH  12  16
ATOM     15  C   LIG    1        5.356  -2.604  -3.526  0.00  0.00    +0.290 C 
ATOM     16  N   LIG    1        3.979  -3.055  -3.309  0.00  0.00    -1.120 NA
ATOM     17  H   LIG    1        3.561  -3.661  -3.942  0.00  0.00    +0.420 HD
ENDBRANCH  12  16
ENDBRANCH  11  12
ENDBRANCH   1  11
BRANCH   7  18
ATOM     18  C   LIG    1       -1.916  -0.827   3.027  0.00  0.00    +0.390 C 
BRANCH  18  19
ATOM     19  C   LIG    1       -1.973   0.015   4.276  0.00  0.00    +0.200 A 
ATOM     20  N   LIG    1       -2.338   1.266   4.334  0.00  0.00    -0.480 NA
ATOM     21  C   LIG    1       -2.266   1.690   5.604  0.00  0.00    +0.140 A 
ATOM     22  C   LIG    1       -1.841   0.662   6.363  0.00  0.00    +0.130 A 
ATOM     23  N   LIG    1       -1.660  -0.403   5.522  0.00  0.00    -0.450 N 
ATOM     24  C   LIG    1       -1.208  -1.744   5.901  0.00  0.00    +0.320 C 
ENDBRANCH  18  19
BRANCH  18  25
ATOM     25  C   LIG    1       -3.336  -1.215   2.609  0.00  0.00    -0.060 C 
ATOM     26  C   LIG    1       -3.732  -2.687   2.736  0.00  0.00    +0.010 C 
ATOM     27  C   LIG    1       -3.491  -2.076   1.354  0.00  0.00    +0.050 C 
ENDBRANCH  18  25
ENDBRANCH   7  18
TORSDOF 6
