REMARK  Name = ZINCqH0000038AP3.0
REMARK                            x       y       z     vdW  Elec       q    Type
REMARK                         _______ _______ _______ _____ _____    ______ ____
ROOT
ATOM      1  C   LIG    1        3.263  -5.389   2.722  0.00  0.00    -0.040 A 
ATOM      2  C   LIG    1        2.990  -5.081   1.391  0.00  0.00    +0.070 A 
ATOM      3  C   LIG    1        3.258  -3.822   0.905  0.00  0.00    -0.010 A 
ATOM      4  C   LIG    1        3.806  -2.843   1.738  0.00  0.00    +0.170 A 
ATOM      5  C   LIG    1        4.076  -3.155   3.063  0.00  0.00    -0.130 A 
ATOM      6  C   LIG    1        4.656  -1.931   3.736  0.00  0.00    +0.110 C 
ATOM      7  C   LIG    1        4.696  -0.864   2.630  0.00  0.00    +0.280 C 
ATOM      8  N   LIG    1        4.146  -1.521   1.442  0.00  0.00    -0.940 N 
ATOM      9  C   LIG    1        3.809  -4.415   3.556  0.00  0.00    +0.100 A 
ENDROOT
BRANCH   1  13
ATOM     10  C   LIG    1        3.115  -8.885   6.219  0.00  0.00    +0.180 C 
ATOM     11  C   LIG    1        2.917  -8.306   4.842  0.00  0.00    +0.050 A 
ATOM     12  N   LIG    1        3.212  -7.098   4.505  0.00  0.00    -0.470 NA
ATOM     13  C   LIG    1        2.974  -6.746   3.249  0.00  0.00    +0.120 A 
ATOM     14  C   LIG    1        2.442  -7.728   2.494  0.00  0.00    -0.080 A 
ATOM     15  S   LIG    1        2.272  -9.158   3.509  0.00  0.00    +0.130 S 
ENDBRANCH   1  13
BRANCH   8  16
ATOM     16  S   LIG    1        3.962  -0.804  -0.039  0.00  0.00    +2.690 S 
ATOM     17  O   LIG    1        4.761   0.371  -0.018  0.00  0.00    -0.930 OA
ATOM     18  O   LIG    1        4.119  -1.833  -1.006  0.00  0.00    -0.930 OA
BRANCH  16  19
ATOM     19  C   LIG    1        2.288  -0.266  -0.154  0.00  0.00    -0.640 A 
ATOM     20  C   LIG    1        1.427  -0.869  -1.046  0.00  0.00    +0.140 A 
ATOM     21  C   LIG    1        0.112  -0.447  -1.137  0.00  0.00    +0.040 A 
ATOM     22  C   LIG    1       -0.348   0.582  -0.336  0.00  0.00    +0.090 A 
ATOM     23  C   LIG    1        0.503   1.195   0.561  0.00  0.00    +0.060 A 
ATOM     24  C   LIG    1        1.831   0.774   0.659  0.00  0.00    +0.070 A 
BRANCH  24  25
ATOM     25  C   LIG    1        2.719   1.405   1.588  0.00  0.00    +0.210 C 
ATOM     26  N   LIG    1        3.423   1.906   2.325  0.00  0.00    -0.350 NA
ENDBRANCH  24  25
ENDBRANCH  16  19
ENDBRANCH   8  16
TORSDOF 4
