REMARK  Name = ZINCpk00000xIgfX.1
REMARK                            x       y       z     vdW  Elec       q    Type
REMARK                         _______ _______ _______ _____ _____    ______ ____
ROOT
ATOM      1  N   LIG    1       -2.224  -3.976  -0.216  0.00  0.00    -0.510 NA
ATOM      2  C   LIG    1       -0.870  -4.528  -0.357  0.00  0.00    +0.160 C 
ATOM      3  C   LIG    1        0.074  -3.813   0.616  0.00  0.00    +0.310 C 
ATOM      4  N   LIG    1       -0.033  -2.364   0.390  0.00  0.00    -0.600 N 
ATOM      5  C   LIG    1       -1.373  -1.757   0.386  0.00  0.00    +0.280 C 
ATOM      6  C   LIG    1        1.068  -1.611   0.197  0.00  0.00    +0.570 C 
ATOM      7  O   LIG    1        2.160  -2.140   0.115  0.00  0.00    -0.500 OA
ATOM      8  C   LIG    1       -0.380  -4.319  -1.791  0.00  0.00    +0.000 C 
ATOM      9  C   LIG    1       -2.260  -2.554  -0.584  0.00  0.00    +0.120 C 
ATOM     10  C   LIG    1       -3.698  -2.040  -0.496  0.00  0.00    +0.040 C 
ENDROOT
BRANCH   6  11
ATOM     11  C   LIG    1        0.949  -0.144   0.086  0.00  0.00    -0.120 A 
ATOM     12  C   LIG    1        0.331   0.589   1.101  0.00  0.00    +0.070 A 
ATOM     13  C   LIG    1        0.223   1.960   0.991  0.00  0.00    +0.020 A 
ATOM     14  C   LIG    1        0.723   2.613  -0.122  0.00  0.00    +0.070 A 
ATOM     15  C   LIG    1        1.337   1.900  -1.133  0.00  0.00    +0.010 A 
ATOM     16  C   LIG    1        1.455   0.522  -1.040  0.00  0.00    +0.180 A 
BRANCH  16  17
ATOM     17  N   LIG    1        2.075  -0.201  -2.063  0.00  0.00    -0.330 N 
ATOM     18  C   LIG    1        2.712   0.309  -3.155  0.00  0.00    +0.220 A 
ATOM     19  C   LIG    1        3.160  -0.743  -3.872  0.00  0.00    +0.120 A 
ATOM     20  N   LIG    1        2.808  -1.871  -3.253  0.00  0.00    -0.240 NA
ATOM     21  N   LIG    1        2.162  -1.597  -2.174  0.00  0.00    -0.020 NA
ENDBRANCH  16  17
ENDBRANCH   6  11
BRANCH   1  22
ATOM     22  C   LIG    1       -3.192  -4.748  -1.005  0.00  0.00    +0.180 C 
BRANCH  22  23
ATOM     23  C   LIG    1       -3.472  -6.080  -0.307  0.00  0.00    +0.170 C 
BRANCH  23  25
ATOM     24  C   LIG    1       -4.326  -7.010   1.731  0.00  0.00    +0.190 C 
ATOM     25  O   LIG    1       -4.120  -5.836   0.943  0.00  0.00    -0.370 OA
ENDBRANCH  23  25
ENDBRANCH  22  23
ENDBRANCH   1  22
TORSDOF 5
