REMARK  Name = ZINCAx0000000dy1.0
REMARK                            x       y       z     vdW  Elec       q    Type
REMARK                         _______ _______ _______ _____ _____    ______ ____
ROOT
ATOM      1  C   LIG    1        5.718  -9.561   0.898  0.00  0.00    +0.520 C 
ATOM      2  N   LIG    1        4.728  -8.839   0.336  0.00  0.00    -0.600 N 
ATOM      3  C   LIG    1        4.838  -8.371  -1.052  0.00  0.00    +0.270 C 
ATOM      4  C   LIG    1        3.597  -8.826  -1.826  0.00  0.00    +0.020 C 
ATOM      5  C   LIG    1        2.340  -8.345  -1.098  0.00  0.00    +0.000 C 
ATOM      6  C   LIG    1        2.374  -6.813  -0.973  0.00  0.00    +0.010 C 
ATOM      7  C   LIG    1        1.109  -6.336  -0.255  0.00  0.00    +0.240 C 
ATOM      8  C   LIG    1        1.048  -6.960   1.140  0.00  0.00    +0.010 C 
ATOM      9  C   LIG    1        1.023  -8.485   1.018  0.00  0.00    +0.030 C 
ATOM     10  C   LIG    1        2.290  -8.959   0.303  0.00  0.00    -0.020 C 
ATOM     11  C   LIG    1        3.518  -8.513   1.104  0.00  0.00    +0.280 C 
ATOM     12  O   LIG    1        5.614  -9.942   2.045  0.00  0.00    -0.510 OA
ENDROOT
BRANCH   1  19
ATOM     13  C   LIG    1       12.856  -8.628  -0.846  0.00  0.00    +0.100 C 
ATOM     14  C   LIG    1       11.555  -9.216  -0.362  0.00  0.00    -0.110 A 
ATOM     15  C   LIG    1       11.547 -10.422   0.312  0.00  0.00    +0.050 A 
ATOM     16  C   LIG    1       10.359 -10.963   0.760  0.00  0.00    +0.000 A 
ATOM     17  C   LIG    1        9.157 -10.297   0.536  0.00  0.00    +0.100 A 
ATOM     18  O   LIG    1        7.890 -10.635   0.901  0.00  0.00    -0.270 OA
ATOM     19  C   LIG    1        6.953  -9.895   0.101  0.00  0.00    +0.180 C 
ATOM     20  C   LIG    1        7.741  -8.612  -0.252  0.00  0.00    +0.100 C 
ATOM     21  C   LIG    1        9.177  -9.088  -0.149  0.00  0.00    -0.170 A 
ATOM     22  C   LIG    1       10.364  -8.549  -0.592  0.00  0.00    +0.060 A 
ENDBRANCH   1  19
BRANCH   7  23
ATOM     23  N   LIG    1        1.136  -4.876  -0.137  0.00  0.00    -0.720 N 
ATOM     24  H   LIG    1        1.984  -4.405  -0.142  0.00  0.00    +0.410 HD
ATOM     25  C   LIG    1       -0.017  -4.188  -0.021  0.00  0.00    +0.590 C 
ATOM     26  O   LIG    1       -1.073  -4.784   0.079  0.00  0.00    -0.550 OA
BRANCH  25  27
ATOM     27  C   LIG    1        0.002  -2.721  -0.015  0.00  0.00    -0.370 A 
ATOM     28  C   LIG    1       -1.193  -1.989  -0.017  0.00  0.00    +0.460 A 
ATOM     29  N   LIG    1       -1.155  -0.672  -0.011  0.00  0.00    -0.540 NA
ATOM     30  C   LIG    1        0.002  -0.004  -0.004  0.00  0.00    +0.400 A 
ATOM     31  C   LIG    1       -0.018   1.401   0.002  0.00  0.00    +0.030 A 
ATOM     32  C   LIG    1        1.160   2.089   0.008  0.00  0.00    +0.140 A 
ATOM     33  C   LIG    1        2.371   1.385   0.012  0.00  0.00    +0.010 A 
ATOM     34  C   LIG    1        2.369   0.032   0.006  0.00  0.00    +0.290 A 
ATOM     35  N   LIG    1        1.198  -0.662  -0.002  0.00  0.00    -0.420 N 
ATOM     36  C   LIG    1        1.228  -2.013  -0.007  0.00  0.00    +0.530 A 
ATOM     37  O   LIG    1        2.290  -2.610  -0.004  0.00  0.00    -0.520 OA
ENDBRANCH  25  27
ENDBRANCH   7  23
TORSDOF 3
