REMARK  Name = ZINCqH00000505vM.0
REMARK                            x       y       z     vdW  Elec       q    Type
REMARK                         _______ _______ _______ _____ _____    ______ ____
ROOT
ATOM      1  C   LIG    1        3.491   2.192  -1.857  0.00  0.00    +0.200 C 
ENDROOT
BRANCH   1   2
ATOM      2  N   LIG    1        4.046   1.345  -0.792  0.00  0.00    -0.500 NA
ATOM      3  C   LIG    1        3.071   0.328  -0.365  0.00  0.00    +0.230 C 
ATOM      4  C   LIG    1        2.574  -0.417  -1.604  0.00  0.00    +0.050 C 
ATOM      5  C   LIG    1        3.745  -0.883  -2.429  0.00  0.00    -0.080 A 
ATOM      6  C   LIG    1        3.532  -1.864  -3.386  0.00  0.00    +0.000 A 
ATOM      7  C   LIG    1        4.578  -2.315  -4.167  0.00  0.00    +0.000 A 
ATOM      8  C   LIG    1        5.842  -1.783  -3.998  0.00  0.00    +0.000 A 
ATOM      9  C   LIG    1        6.057  -0.812  -3.041  0.00  0.00    +0.010 A 
ATOM     10  C   LIG    1        5.008  -0.357  -2.255  0.00  0.00    -0.120 A 
ATOM     11  C   LIG    1        5.292   0.704  -1.225  0.00  0.00    +0.280 C 
ENDBRANCH   1   2
BRANCH   1  12
ATOM     12  C   LIG    1        2.176   2.771  -1.405  0.00  0.00    -0.090 A 
ATOM     13  C   LIG    1        2.057   3.309  -0.137  0.00  0.00    +0.060 A 
ATOM     14  C   LIG    1        0.851   3.845   0.276  0.00  0.00    +0.010 A 
ATOM     15  C   LIG    1       -0.238   3.834  -0.575  0.00  0.00    +0.010 A 
ATOM     16  C   LIG    1       -0.120   3.291  -1.841  0.00  0.00    +0.010 A 
ATOM     17  C   LIG    1        1.086   2.759  -2.256  0.00  0.00    +0.010 A 
ENDBRANCH   1  12
BRANCH   1  20
ATOM     18  N   LIG    1        4.462   3.878  -3.385  0.00  0.00    -0.630 N 
ATOM     19  H   LIG    1        3.847   3.567  -4.068  0.00  0.00    +0.420 HD
ATOM     20  C   LIG    1        4.454   3.310  -2.163  0.00  0.00    +0.530 C 
ATOM     21  O   LIG    1        5.223   3.699  -1.309  0.00  0.00    -0.490 OA
BRANCH  18  25
ATOM     22  C   LIG    1        8.022   7.354  -3.082  0.00  0.00    +0.190 C 
ATOM     23  C   LIG    1        6.915   6.434  -3.527  0.00  0.00    -0.020 A 
ATOM     24  C   LIG    1        6.310   5.479  -2.784  0.00  0.00    -0.040 A 
ATOM     25  C   LIG    1        5.353   4.913  -3.668  0.00  0.00    +0.250 A 
ATOM     26  N   LIG    1        5.479   5.552  -4.801  0.00  0.00    -0.390 NA
ATOM     27  O   LIG    1        6.337   6.402  -4.737  0.00  0.00    +0.100 OA
ENDBRANCH  18  25
ENDBRANCH   1  20
TORSDOF 4
