REMARK  Name = ZINCqH0000008B1V.0
REMARK                            x       y       z     vdW  Elec       q    Type
REMARK                         _______ _______ _______ _____ _____    ______ ____
ROOT
ATOM      1  C   LIG    1       -0.117  -0.215  -4.992  0.00  0.00    +0.040 C 
ENDROOT
BRANCH   1   2
ATOM      2  C   LIG    1       -1.298  -0.036  -4.036  0.00  0.00    +0.260 C 
BRANCH   2   3
ATOM      3  N   LIG    1       -0.850   0.668  -2.832  0.00  0.00    -1.130 NA
ATOM      4  H   LIG    1        0.098   0.748  -2.642  0.00  0.00    +0.420 HD
BRANCH   3   5
ATOM      5  S   LIG    1       -1.961   1.328  -1.796  0.00  0.00    +2.780 S 
ATOM      6  O   LIG    1       -1.221   1.900  -0.727  0.00  0.00    -0.980 OA
ATOM      7  O   LIG    1       -2.867   2.071  -2.600  0.00  0.00    -0.970 OA
BRANCH   5  13
ATOM      8  C   LIG    1       -3.150  -1.357   2.344  0.00  0.00    +0.030 C 
ATOM      9  C   LIG    1       -3.548  -0.565   1.097  0.00  0.00    -0.030 C 
ATOM     10  C   LIG    1       -4.781  -1.206   0.449  0.00  0.00    +0.020 C 
ATOM     11  C   LIG    1       -5.196  -0.394  -0.780  0.00  0.00    +0.020 C 
ATOM     12  C   LIG    1       -4.054  -0.404  -1.802  0.00  0.00    +0.280 C 
ATOM     13  N   LIG    1       -2.829   0.076  -1.148  0.00  0.00    -1.010 NA
ATOM     14  C   LIG    1       -2.390  -0.576   0.093  0.00  0.00    +0.280 C 
ENDBRANCH   5  13
ENDBRANCH   3   5
ENDBRANCH   2   3
ENDBRANCH   1   2
BRANCH   1  15
ATOM     15  C   LIG    1       -0.586  -0.950  -6.250  0.00  0.00    +0.080 C 
BRANCH  15  16
ATOM     16  C   LIG    1        0.600  -1.235  -7.136  0.00  0.00    -0.070 A 
ATOM     17  C   LIG    1        1.458  -0.212  -7.492  0.00  0.00    +0.010 A 
ATOM     18  C   LIG    1        2.548  -0.474  -8.302  0.00  0.00    +0.000 A 
ATOM     19  C   LIG    1        2.774  -1.758  -8.762  0.00  0.00    +0.000 A 
ATOM     20  C   LIG    1        1.912  -2.780  -8.409  0.00  0.00    +0.000 A 
ATOM     21  C   LIG    1        0.825  -2.518  -7.597  0.00  0.00    +0.010 A 
ENDBRANCH  15  16
BRANCH  15  22
ATOM     22  C   LIG    1       -1.574  -0.090  -6.995  0.00  0.00    -0.080 A 
ATOM     23  C   LIG    1       -2.803  -0.609  -7.361  0.00  0.00    +0.000 A 
ATOM     24  C   LIG    1       -3.711   0.181  -8.040  0.00  0.00    +0.000 A 
ATOM     25  C   LIG    1       -3.388   1.486  -8.362  0.00  0.00    +0.000 A 
ATOM     26  C   LIG    1       -2.158   2.003  -8.000  0.00  0.00    +0.000 A 
ATOM     27  C   LIG    1       -1.251   1.214  -7.317  0.00  0.00    +0.010 A 
ENDBRANCH  15  22
ENDBRANCH   1  15
TORSDOF 7
