REMARK  Name = ZINCtj0000003TJo.0
REMARK                            x       y       z     vdW  Elec       q    Type
REMARK                         _______ _______ _______ _____ _____    ______ ____
ROOT
ATOM      1  N   LIG    1        1.700  -5.446  -0.025  0.00  0.00    -0.680 N 
ATOM      2  H   LIG    1        0.807  -5.077   0.057  0.00  0.00    +0.410 HD
ATOM      3  C   LIG    1        1.871  -6.778  -0.137  0.00  0.00    +0.710 C 
ATOM      4  N   LIG    1        0.799  -7.590  -0.228  0.00  0.00    -0.620 N 
ATOM      5  C   LIG    1       -0.557  -7.032  -0.317  0.00  0.00    +0.260 C 
ATOM      6  C   LIG    1       -1.249  -7.627  -1.553  0.00  0.00    +0.030 C 
ATOM      7  C   LIG    1       -1.203  -9.154  -1.470  0.00  0.00    +0.040 C 
ATOM      8  C   LIG    1        0.254  -9.622  -1.463  0.00  0.00    -0.030 C 
ATOM      9  C   LIG    1        0.964  -9.050  -0.232  0.00  0.00    +0.290 C 
ATOM     10  O   LIG    1        2.993  -7.247  -0.156  0.00  0.00    -0.580 OA
ENDROOT
BRANCH   1  16
ATOM     11  C   LIG    1        2.693  -3.287  -0.503  0.00  0.00    -0.130 A 
ATOM     12  C   LIG    1        3.797  -2.447  -0.498  0.00  0.00    +0.010 A 
ATOM     13  C   LIG    1        5.013  -2.908  -0.029  0.00  0.00    +0.020 A 
ATOM     14  C   LIG    1        5.134  -4.204   0.436  0.00  0.00    +0.030 A 
ATOM     15  C   LIG    1        4.038  -5.048   0.435  0.00  0.00    +0.050 A 
ATOM     16  C   LIG    1        2.813  -4.593  -0.028  0.00  0.00    +0.180 A 
BRANCH  11  17
ATOM     17  S   LIG    1        1.142  -2.703  -1.101  0.00  0.00    -0.040 S 
BRANCH  17  18
ATOM     18  C   LIG    1        1.506  -0.992  -1.579  0.00  0.00    +0.090 C 
BRANCH  18  22
ATOM     19  N   LIG    1        0.290   0.936  -2.539  0.00  0.00    -0.850 N 
ATOM     20  H   LIG    1       -0.513   1.351  -2.891  0.00  0.00    +0.410 HD
ATOM     21  H   LIG    1        1.117   1.440  -2.494  0.00  0.00    +0.410 HD
ATOM     22  C   LIG    1        0.257  -0.344  -2.119  0.00  0.00    +0.540 C 
ATOM     23  O   LIG    1       -0.777  -0.975  -2.176  0.00  0.00    -0.520 OA
ENDBRANCH  18  22
ENDBRANCH  17  18
ENDBRANCH  11  17
ENDBRANCH   1  16
BRANCH   8  24
ATOM     24  C   LIG    1        0.300 -11.151  -1.414  0.00  0.00    +0.290 C 
BRANCH  24  25
ATOM     25  N   LIG    1        1.689 -11.602  -1.524  0.00  0.00    -0.700 N 
ATOM     26  H   LIG    1        2.404 -10.953  -1.611  0.00  0.00    +0.410 HD
ATOM     27  C   LIG    1        1.973 -12.919  -1.504  0.00  0.00    +0.510 C 
ATOM     28  O   LIG    1        1.079 -13.731  -1.395  0.00  0.00    -0.530 OA
BRANCH  27  29
ATOM     29  C   LIG    1        3.403 -13.383  -1.616  0.00  0.00    +0.170 C 
ATOM     30  C   LIG    1        4.221 -12.912  -0.388  0.00  0.00    +0.110 C 
ATOM     31  C   LIG    1        5.371 -13.953  -0.360  0.00  0.00    +0.090 C 
ATOM     32  C   LIG    1        4.676 -15.252  -0.820  0.00  0.00    +0.270 C 
ATOM     33  N   LIG    1        3.470 -14.860  -1.571  0.00  0.00    -0.500 N 
ATOM     34  H   LIG    1        3.520 -15.226  -2.510  0.00  0.00    +0.440 HD
ATOM     35  H   LIG    1        2.649 -15.223  -1.110  0.00  0.00    +0.440 HD
ENDBRANCH  27  29
ENDBRANCH  24  25
ENDBRANCH   8  24
TORSDOF 7
