REMARK  Name = ZINCpe00000c93QQ.0
REMARK                            x       y       z     vdW  Elec       q    Type
REMARK                         _______ _______ _______ _____ _____    ______ ____
ROOT
ATOM      1  O   LIG    1        1.224   2.638  -0.147  0.00  0.00    -0.520 OA
ATOM      2  C   LIG    1        1.133   1.429  -0.103  0.00  0.00    +0.510 C 
ATOM      3  N   LIG    1       -0.081   0.847  -0.042  0.00  0.00    -0.730 N 
ATOM      4  H   LIG    1       -0.153  -0.120  -0.007  0.00  0.00    +0.400 HD
ENDROOT
BRANCH   3   5
ATOM      5  C   LIG    1       -1.290   1.673  -0.034  0.00  0.00    +0.330 C 
BRANCH   5   6
ATOM      6  C   LIG    1       -2.506   0.784   0.032  0.00  0.00    -0.140 A 
ATOM      7  C   LIG    1       -3.101   0.341  -1.135  0.00  0.00    +0.060 A 
ATOM      8  C   LIG    1       -4.212  -0.478  -1.077  0.00  0.00    +0.000 A 
ATOM      9  C   LIG    1       -4.737  -0.848   0.154  0.00  0.00    +0.170 A 
ATOM     10  C   LIG    1       -4.140  -0.397   1.324  0.00  0.00    -0.030 A 
ATOM     11  C   LIG    1       -3.026   0.417   1.260  0.00  0.00    +0.060 A 
BRANCH   9  12
ATOM     12  N   LIG    1       -5.866  -1.672   0.215  0.00  0.00    -0.560 N 
ATOM     13  C   LIG    1       -6.577  -2.012   1.453  0.00  0.00    +0.260 C 
ATOM     14  C   LIG    1       -7.439  -3.246   1.108  0.00  0.00    +0.060 C 
ATOM     15  C   LIG    1       -7.628  -3.082  -0.418  0.00  0.00    +0.070 C 
ATOM     16  C   LIG    1       -6.442  -2.250  -0.853  0.00  0.00    +0.520 C 
ATOM     17  O   LIG    1       -6.063  -2.126  -1.999  0.00  0.00    -0.510 OA
ENDBRANCH   9  12
ENDBRANCH   5   6
ENDBRANCH   3   5
BRANCH   2  18
ATOM     18  C   LIG    1        2.377   0.579  -0.118  0.00  0.00    +0.200 C 
BRANCH  18  19
ATOM     19  N   LIG    1        3.558   1.442  -0.250  0.00  0.00    -0.490 NA
ATOM     20  C   LIG    1        4.811   0.644  -0.191  0.00  0.00    +0.150 C 
ATOM     21  C   LIG    1        5.904   1.661   0.207  0.00  0.00    +0.200 C 
ATOM     22  C   LIG    1        5.146   2.791   0.922  0.00  0.00    -0.140 C 
ATOM     23  C   LIG    1        5.569   4.247   0.777  0.00  0.00    +0.040 C 
ATOM     24  C   LIG    1        5.749   3.522   2.114  0.00  0.00    +0.040 C 
ATOM     25  C   LIG    1        3.665   2.381   0.899  0.00  0.00    +0.220 C 
BRANCH  21  26
ATOM     26  O   LIG    1        6.848   1.056   1.093  0.00  0.00    -0.560 OA
ATOM     27  H   LIG    1        7.321   0.305   0.711  0.00  0.00    +0.380 HD
ENDBRANCH  21  26
ENDBRANCH  18  19
ENDBRANCH   2  18
TORSDOF 6
