REMARK  Name = ZINCpk000000o5XY.0
REMARK                            x       y       z     vdW  Elec       q    Type
REMARK                         _______ _______ _______ _____ _____    ______ ____
ROOT
ATOM      1  C   LIG    1        1.243  -0.433  -0.012  0.00  0.00    +0.150 A 
ATOM      2  N   LIG    1        0.002  -0.004   0.002  0.00  0.00    -0.290 NA
ATOM      3  N   LIG    1       -0.015   1.281   0.009  0.00  0.00    -0.270 NA
ATOM      4  C   LIG    1        1.202   1.745   0.000  0.00  0.00    +0.190 A 
ATOM      5  N   LIG    1        2.047   0.670  -0.014  0.00  0.00    -0.460 N 
ATOM      6  C   LIG    1        3.512   0.696  -0.029  0.00  0.00    +0.350 C 
ENDROOT
BRANCH   4   7
ATOM      7  C   LIG    1        1.605   3.197   0.004  0.00  0.00    +0.110 C 
ATOM      8  C   LIG    1        1.022   3.908  -1.231  0.00  0.00    +0.090 C 
ATOM      9  C   LIG    1        1.153   5.431  -1.031  0.00  0.00    -0.300 C 
ATOM     10  S   LIG    1        1.118   5.679   0.781  0.00  0.00    +2.390 S 
ATOM     11  O   LIG    1       -0.089   6.335   1.143  0.00  0.00    -0.930 OA
ATOM     12  O   LIG    1        2.367   6.204   1.209  0.00  0.00    -0.930 OA
ATOM     13  C   LIG    1        1.013   3.909   1.247  0.00  0.00    -0.300 C 
ENDBRANCH   4   7
BRANCH   1  14
ATOM     14  S   LIG    1        1.770  -2.114  -0.027  0.00  0.00    +0.080 S 
BRANCH  14  15
ATOM     15  C   LIG    1        0.163  -2.948  -0.016  0.00  0.00    +0.020 C 
ATOM     16  C   LIG    1       -0.583  -2.634  -1.314  0.00  0.00    +0.080 C 
BRANCH  15  23
ATOM     17  C   LIG    1       -4.034  -7.608  -0.415  0.00  0.00    +0.020 C 
ATOM     18  C   LIG    1       -2.921  -6.882   0.344  0.00  0.00    -0.020 C 
ATOM     19  C   LIG    1       -1.560  -7.382  -0.145  0.00  0.00    +0.020 C 
ATOM     20  C   LIG    1       -0.450  -6.678   0.640  0.00  0.00    +0.280 C 
ATOM     21  N   LIG    1       -0.636  -5.225   0.525  0.00  0.00    -0.600 N 
ATOM     22  C   LIG    1       -1.937  -4.649   0.889  0.00  0.00    +0.270 C 
ATOM     23  C   LIG    1        0.370  -4.436   0.098  0.00  0.00    +0.540 C 
ATOM     24  O   LIG    1        1.441  -4.923  -0.195  0.00  0.00    -0.530 OA
ATOM     25  C   LIG    1       -3.033  -5.376   0.095  0.00  0.00    +0.020 C 
ENDBRANCH  15  23
ENDBRANCH  14  15
ENDBRANCH   1  14
TORSDOF 4
