REMARK  Name = ZINCvU000000080D.0
REMARK                            x       y       z     vdW  Elec       q    Type
REMARK                         _______ _______ _______ _____ _____    ______ ____
ROOT
ATOM      1  N   LIG    1       -2.458   3.745  -1.737  0.00  0.00    -0.600 N 
ATOM      2  C   LIG    1       -3.740   3.427  -2.006  0.00  0.00    +0.590 C 
ATOM      3  O   LIG    1       -4.388   4.113  -2.775  0.00  0.00    -0.490 OA
ENDROOT
BRANCH   2   4
ATOM      4  C   LIG    1       -4.355   2.254  -1.373  0.00  0.00    -0.230 A 
ATOM      5  C   LIG    1       -5.110   1.353  -2.011  0.00  0.00    +0.040 A 
ATOM      6  C   LIG    1       -5.602   0.303  -1.217  0.00  0.00    -0.080 A 
ATOM      7  C   LIG    1       -6.418  -0.789  -1.595  0.00  0.00    +0.070 A 
ATOM      8  C   LIG    1       -6.798  -1.717  -0.676  0.00  0.00    +0.030 A 
ATOM      9  C   LIG    1       -6.394  -1.611   0.648  0.00  0.00    +0.060 A 
ATOM     10  C   LIG    1       -5.601  -0.561   1.046  0.00  0.00    +0.050 A 
ATOM     11  C   LIG    1       -5.197   0.406   0.120  0.00  0.00    -0.130 A 
ATOM     12 CL   LIG    1       -5.458   1.471  -3.708  0.00  0.00    -0.010 Cl
ATOM     13  S   LIG    1       -4.194   1.837   0.324  0.00  0.00    +0.170 S 
ENDBRANCH   2   4
BRANCH   1  14
ATOM     14  C   LIG    1       -1.888   4.991  -2.254  0.00  0.00    +0.290 C 
ATOM     15  C   LIG    1       -2.759   6.181  -1.814  0.00  0.00    +0.070 C 
ATOM     16  C   LIG    1       -2.302   7.400  -2.655  0.00  0.00    -0.300 C 
ATOM     17  S   LIG    1       -2.099   6.678  -4.327  0.00  0.00    +2.390 S 
ATOM     18  O   LIG    1       -0.897   7.166  -4.908  0.00  0.00    -0.940 OA
ATOM     19  O   LIG    1       -3.325   6.784  -5.038  0.00  0.00    -0.920 OA
ATOM     20  C   LIG    1       -1.854   4.946  -3.794  0.00  0.00    -0.330 C 
ENDBRANCH   1  14
BRANCH   1  21
ATOM     21  C   LIG    1       -1.635   2.843  -0.926  0.00  0.00    +0.340 C 
BRANCH  21  25
ATOM     22  C   LIG    1       -0.457  -0.520  -3.285  0.00  0.00    +0.140 A 
ATOM     23  C   LIG    1       -1.558  -0.611  -2.446  0.00  0.00    -0.020 A 
ATOM     24  C   LIG    1       -1.941   0.480  -1.689  0.00  0.00    +0.070 A 
ATOM     25  C   LIG    1       -1.220   1.658  -1.758  0.00  0.00    -0.150 A 
ATOM     26  C   LIG    1       -0.123   1.751  -2.594  0.00  0.00    +0.070 A 
ATOM     27  C   LIG    1        0.261   0.665  -3.357  0.00  0.00    -0.080 A 
BRANCH  22  28
ATOM     28  O   LIG    1       -0.082  -1.589  -4.035  0.00  0.00    -0.310 OA
BRANCH  28  29
ATOM     29  C   LIG    1        1.061  -1.423  -4.876  0.00  0.00    +0.180 C 
BRANCH  29  31
ATOM     30  C   LIG    1        2.552  -2.546  -6.537  0.00  0.00    +0.040 C 
ATOM     31  C   LIG    1        1.328  -2.724  -5.636  0.00  0.00    +0.020 C 
ENDBRANCH  29  31
ENDBRANCH  28  29
ENDBRANCH  22  28
ENDBRANCH  21  25
ENDBRANCH   1  21
TORSDOF 7
