REMARK  Name = ZINCpk00000xIbN7.0
REMARK                            x       y       z     vdW  Elec       q    Type
REMARK                         _______ _______ _______ _____ _____    ______ ____
ROOT
ATOM      1  C   LIG    1       -3.077   1.454   0.331  0.00  0.00    +0.600 C 
ATOM      2  N   LIG    1       -2.729   0.853  -0.824  0.00  0.00    -0.700 N 
ATOM      3  H   LIG    1       -1.823   0.531  -0.950  0.00  0.00    +0.420 HD
ATOM      4  O   LIG    1       -4.235   1.773   0.526  0.00  0.00    -0.540 OA
ENDROOT
BRANCH   1  10
ATOM      5  C   LIG    1       -3.594   2.592   3.165  0.00  0.00    +0.370 C 
ATOM      6  N   LIG    1       -2.287   2.229   2.613  0.00  0.00    -0.390 N 
ATOM      7  C   LIG    1       -1.099   2.330   3.259  0.00  0.00    +0.320 A 
ATOM      8  C   LIG    1       -0.114   1.903   2.434  0.00  0.00    -0.130 A 
ATOM      9  C   LIG    1       -0.702   1.520   1.225  0.00  0.00    +0.090 A 
ATOM     10  C   LIG    1       -2.060   1.724   1.353  0.00  0.00    -0.030 A 
BRANCH   8  11
ATOM     11  N   LIG    1        1.330   1.851   2.755  0.00  0.00    +0.060 N 
ATOM     12  O   LIG    1        2.124   1.445   1.926  0.00  0.00    -0.160 OA
ATOM     13  O   LIG    1        1.724   2.214   3.849  0.00  0.00    -0.170 OA
ENDBRANCH   8  11
ENDBRANCH   1  10
BRANCH   2  14
ATOM     14  C   LIG    1       -3.720   0.685  -1.890  0.00  0.00    +0.310 C 
BRANCH  14  15
ATOM     15  C   LIG    1       -3.082  -0.011  -3.065  0.00  0.00    +0.500 C 
ATOM     16  N   LIG    1       -3.808  -0.273  -4.169  0.00  0.00    -0.610 N 
ATOM     17  C   LIG    1       -5.219   0.117  -4.227  0.00  0.00    +0.300 C 
ATOM     18  O   LIG    1       -1.914  -0.334  -3.016  0.00  0.00    -0.510 OA
BRANCH  16  19
ATOM     19  C   LIG    1       -3.187  -0.949  -5.311  0.00  0.00    +0.360 C 
BRANCH  19  20
ATOM     20  C   LIG    1       -3.346  -2.440  -5.159  0.00  0.00    -0.150 A 
ATOM     21  C   LIG    1       -4.270  -3.119  -5.929  0.00  0.00    +0.050 A 
ATOM     22  C   LIG    1       -4.415  -4.487  -5.790  0.00  0.00    -0.010 A 
ATOM     23  C   LIG    1       -3.637  -5.177  -4.880  0.00  0.00    +0.050 A 
ATOM     24  C   LIG    1       -2.712  -4.500  -4.107  0.00  0.00    -0.020 A 
ATOM     25  C   LIG    1       -2.561  -3.131  -4.250  0.00  0.00    +0.120 A 
ATOM     26  F   LIG    1       -1.653  -2.469  -3.501  0.00  0.00    -0.110 F 
ENDBRANCH  19  20
ENDBRANCH  16  19
ENDBRANCH  14  15
ENDBRANCH   2  14
TORSDOF 6
