REMARK  Name = ZINCrD00000F5LpT.0
REMARK                            x       y       z     vdW  Elec       q    Type
REMARK                         _______ _______ _______ _____ _____    ______ ____
ROOT
ATOM      1  N   LIG    1        0.219   0.244   0.702  0.00  0.00    -0.980 NA
ENDROOT
BRANCH   1   2
ATOM      2  S   LIG    1       -0.057  -1.323   1.159  0.00  0.00    +2.700 S 
ATOM      3  O   LIG    1       -0.416  -2.028  -0.022  0.00  0.00    -0.950 OA
ATOM      4  O   LIG    1       -0.886  -1.266   2.312  0.00  0.00    -0.930 OA
BRANCH   2   8
ATOM      5  C   LIG    1        3.184  -2.679   2.950  0.00  0.00    +0.070 A 
ATOM      6  N   LIG    1        3.507  -2.918   1.705  0.00  0.00    -0.250 NA
ATOM      7  N   LIG    1        2.449  -2.497   0.889  0.00  0.00    -0.310 N 
ATOM      8  C   LIG    1        1.485  -1.992   1.688  0.00  0.00    -0.500 A 
ATOM      9  C   LIG    1        2.398  -2.587  -0.572  0.00  0.00    +0.370 C 
ATOM     10  C   LIG    1        1.913  -2.095   2.967  0.00  0.00    +0.030 A 
BRANCH   5  12
ATOM     11  C   LIG    1        4.798  -1.723   4.572  0.00  0.00    +0.050 C 
ATOM     12  C   LIG    1        4.034  -2.982   4.157  0.00  0.00    +0.070 C 
ATOM     13  C   LIG    1        3.137  -3.437   5.311  0.00  0.00    +0.040 C 
ENDBRANCH   5  12
ENDBRANCH   2   8
ENDBRANCH   1   2
BRANCH   1  14
ATOM     14  C   LIG    1       -0.341   1.346   1.490  0.00  0.00    +0.320 C 
BRANCH  14  15
ATOM     15  C   LIG    1        0.712   1.852   2.478  0.00  0.00    -0.050 C 
ATOM     16  C   LIG    1        0.996   0.784   3.494  0.00  0.00    -0.060 C 
ATOM     17  C   LIG    1        1.129   1.006   4.762  0.00  0.00    -0.040 C 
ATOM     18  C   LIG    1        1.008   2.361   5.395  0.00  0.00    +0.060 C 
ATOM     19  C   LIG    1        1.137   3.454   4.331  0.00  0.00    +0.020 C 
ATOM     20  C   LIG    1        1.999   2.186   1.721  0.00  0.00    +0.040 C 
ATOM     21  C   LIG    1        0.193   3.114   3.171  0.00  0.00    +0.030 C 
ENDBRANCH  14  15
ENDBRANCH   1  14
BRANCH   1  22
ATOM     22  C   LIG    1        1.022   0.530  -0.489  0.00  0.00    +0.290 C 
BRANCH  22  23
ATOM     23  C   LIG    1        0.105   0.630  -1.710  0.00  0.00    -0.050 C 
ATOM     24  C   LIG    1        0.935   0.888  -2.991  0.00  0.00    +0.020 C 
ATOM     25  C   LIG    1        0.058   1.920  -3.744  0.00  0.00    +0.200 C 
ATOM     26  O   LIG    1       -0.477   2.743  -2.686  0.00  0.00    -0.380 OA
ATOM     27  C   LIG    1       -0.810   1.865  -1.598  0.00  0.00    +0.190 C 
ENDBRANCH  22  23
ENDBRANCH   1  22
TORSDOF 7
