REMARK  Name = ZINCvU0000000BDC.0
REMARK                            x       y       z     vdW  Elec       q    Type
REMARK                         _______ _______ _______ _____ _____    ______ ____
ROOT
ATOM      1  N   LIG    1        0.924   4.309   1.118  0.00  0.00    -0.440 N 
ATOM      2  C   LIG    1        1.030   3.513   0.011  0.00  0.00    +0.190 A 
ATOM      3  N   LIG    1        0.914   4.283  -1.033  0.00  0.00    -0.250 NA
ATOM      4  N   LIG    1        0.734   5.501  -0.665  0.00  0.00    -0.280 NA
ATOM      5  C   LIG    1        0.735   5.575   0.646  0.00  0.00    +0.160 A 
ENDROOT
BRANCH   1   6
ATOM      6  C   LIG    1        0.997   3.889   2.520  0.00  0.00    +0.250 C 
ATOM      7  C   LIG    1       -0.311   4.245   3.228  0.00  0.00    +0.080 C 
BRANCH   6   8
ATOM      8  C   LIG    1        2.161   4.606   3.207  0.00  0.00    +0.190 C 
BRANCH   8  10
ATOM      9  C   LIG    1        4.550   4.798   3.193  0.00  0.00    +0.220 C 
ATOM     10  O   LIG    1        3.394   4.184   2.620  0.00  0.00    -0.390 OA
ENDBRANCH   8  10
ENDBRANCH   6   8
ENDBRANCH   1   6
BRANCH   2  11
ATOM     11  C   LIG    1        1.248   2.021   0.001  0.00  0.00    +0.350 C 
BRANCH  11  12
ATOM     12  O   LIG    1       -0.016   1.355   0.009  0.00  0.00    -0.300 OA
BRANCH  12  13
ATOM     13  C   LIG    1        0.002  -0.004   0.002  0.00  0.00    +0.100 A 
ATOM     14  C   LIG    1        1.211  -0.682  -0.013  0.00  0.00    -0.040 A 
ATOM     15  C   LIG    1        1.228  -2.064  -0.021  0.00  0.00    +0.050 A 
ATOM     16  C   LIG    1        0.040  -2.772  -0.013  0.00  0.00    +0.010 A 
ATOM     17  C   LIG    1       -1.168  -2.099   0.001  0.00  0.00    +0.020 A 
ATOM     18  C   LIG    1       -1.191  -0.717   0.015  0.00  0.00    +0.070 A 
ATOM     19  F   LIG    1       -2.371  -0.059   0.036  0.00  0.00    -0.130 F 
ENDBRANCH  12  13
ENDBRANCH  11  12
ENDBRANCH   2  11
BRANCH   5  20
ATOM     20  S   LIG    1        0.529   7.034   1.612  0.00  0.00    +0.020 S 
BRANCH  20  21
ATOM     21  C   LIG    1        0.339   8.260   0.294  0.00  0.00    +0.150 C 
BRANCH  21  22
ATOM     22  C   LIG    1        0.145   9.626   0.903  0.00  0.00    -0.080 A 
ATOM     23  C   LIG    1       -1.129  10.081   1.186  0.00  0.00    +0.070 A 
ATOM     24  C   LIG    1       -1.307  11.331   1.748  0.00  0.00    +0.020 A 
ATOM     25  C   LIG    1       -0.212  12.130   2.018  0.00  0.00    +0.080 A 
ATOM     26  C   LIG    1        1.062  11.677   1.729  0.00  0.00    -0.180 A 
ATOM     27  C   LIG    1        1.240  10.425   1.172  0.00  0.00    +0.090 A 
BRANCH  26  28
ATOM     28  C   LIG    1        2.256  12.548   2.023  0.00  0.00    +0.510 C 
ATOM     29  F   LIG    1        3.361  11.741   2.313  0.00  0.00    -0.180 F 
ATOM     30  F   LIG    1        1.976  13.368   3.121  0.00  0.00    -0.180 F 
ATOM     31  F   LIG    1        2.539  13.343   0.907  0.00  0.00    -0.170 F 
ENDBRANCH  26  28
ENDBRANCH  21  22
ENDBRANCH  20  21
ENDBRANCH   5  20
TORSDOF 10
