REMARK  Name = ZINCrH000004tdlm.0
REMARK                            x       y       z     vdW  Elec       q    Type
REMARK                         _______ _______ _______ _____ _____    ______ ____
ROOT
ATOM      1  N   LIG    1        5.350   2.147  -0.036  0.00  0.00    -0.580 N 
ATOM      2  C   LIG    1        5.964   3.477  -0.150  0.00  0.00    +0.300 C 
ATOM      3  C   LIG    1        6.952   3.470  -1.316  0.00  0.00    +0.020 C 
ATOM      4  C   LIG    1        7.953   2.328  -1.126  0.00  0.00    +0.040 C 
ATOM      5  C   LIG    1        7.209   0.991  -1.113  0.00  0.00    +0.080 C 
ATOM      6  C   LIG    1        6.224   0.971   0.060  0.00  0.00    +0.310 C 
ENDROOT
BRANCH   1  13
ATOM      7  C   LIG    1        0.798   3.807  -0.383  0.00  0.00    +0.120 A 
ATOM      8  N   LIG    1       -0.324   3.138  -0.275  0.00  0.00    -0.220 NA
ATOM      9  N   LIG    1       -0.079   1.894  -0.048  0.00  0.00    -0.240 NA
ATOM     10  C   LIG    1        1.231   1.710   0.000  0.00  0.00    +0.130 A 
ATOM     11  C   LIG    1        2.049   0.584   0.212  0.00  0.00    +0.200 A 
ATOM     12  C   LIG    1        3.400   0.735   0.199  0.00  0.00    -0.020 A 
ATOM     13  C   LIG    1        3.966   2.005  -0.024  0.00  0.00    +0.420 A 
ATOM     14  N   LIG    1        3.205   3.055  -0.222  0.00  0.00    -0.330 NA
ATOM     15  N   LIG    1        1.814   2.934  -0.214  0.00  0.00    -0.250 N 
BRANCH   7  17
ATOM     16  F   LIG    1        1.615   5.889   0.412  0.00  0.00    -0.180 F 
ATOM     17  C   LIG    1        0.929   5.285  -0.648  0.00  0.00    +0.530 C 
ATOM     18  F   LIG    1        1.640   5.484  -1.837  0.00  0.00    -0.180 F 
ENDBRANCH   7  17
ENDBRANCH   1  13
BRANCH   5  19
ATOM     19  C   LIG    1        8.199  -0.135  -0.959  0.00  0.00    +0.050 A 
ATOM     20  N   LIG    1        9.003  -0.277   0.036  0.00  0.00    -0.460 NA
ATOM     21  C   LIG    1        9.814  -1.325   0.032  0.00  0.00    +0.070 A 
ATOM     22  C   LIG    1        9.672  -2.100  -1.060  0.00  0.00    -0.220 A 
ATOM     23  C   LIG    1       10.462  -3.354  -1.346  0.00  0.00    +0.120 C 
ATOM     24  C   LIG    1       11.692  -3.377  -0.431  0.00  0.00    +0.030 C 
ATOM     25  C   LIG    1       11.247  -3.098   1.008  0.00  0.00    +0.030 C 
ATOM     26  C   LIG    1       10.816  -1.635   1.134  0.00  0.00    +0.120 C 
ATOM     27  S   LIG    1        8.422  -1.403  -2.082  0.00  0.00    +0.120 S 
ENDBRANCH   5  19
TORSDOF 3
