REMARK  Name = ZINC550000002L4U.0
REMARK                            x       y       z     vdW  Elec       q    Type
REMARK                         _______ _______ _______ _____ _____    ______ ____
ROOT
ATOM      1  O   LIG    1        0.002  -0.004   0.002  0.00  0.00    -0.680 OA
ATOM      2  C   LIG    1       -0.015   1.215   0.009  0.00  0.00    +0.490 C 
ATOM      3  O   LIG    1        1.033   1.839   0.002  0.00  0.00    -0.700 OA
ENDROOT
BRANCH   2   4
ATOM      4  C   LIG    1       -1.330   1.951   0.019  0.00  0.00    +0.090 C 
BRANCH   4   5
ATOM      5  O   LIG    1       -2.403   1.007   0.019  0.00  0.00    -0.550 OA
ATOM      6  H   LIG    1       -3.282   1.411   0.025  0.00  0.00    +0.350 HD
ENDBRANCH   4   5
ENDBRANCH   2   4
TORSDOF 2
