REMARK  Name = ZINCrD00000F5Lxb.0
REMARK                            x       y       z     vdW  Elec       q    Type
REMARK                         _______ _______ _______ _____ _____    ______ ____
ROOT
ATOM      1  C   LIG    1        3.700  -0.694  -0.033  0.00  0.00    +0.570 C 
ATOM      2  N   LIG    1        3.721  -2.038   0.062  0.00  0.00    -0.610 N 
ATOM      3  C   LIG    1        2.468  -2.806   0.086  0.00  0.00    +0.270 C 
ATOM      4  C   LIG    1        2.517  -3.850  -1.042  0.00  0.00    +0.270 C 
ATOM      5  N   LIG    1        3.793  -4.574  -0.955  0.00  0.00    -0.610 N 
ATOM      6  C   LIG    1        5.045  -3.806  -0.975  0.00  0.00    +0.280 C 
ATOM      7  C   LIG    1        3.814  -5.918  -0.861  0.00  0.00    +0.560 C 
ATOM      8  O   LIG    1        4.870  -6.500  -0.691  0.00  0.00    -0.540 OA
ATOM      9  C   LIG    1        4.997  -2.762   0.148  0.00  0.00    +0.290 C 
ATOM     10  O   LIG    1        4.741  -0.076  -0.152  0.00  0.00    -0.520 OA
ENDROOT
BRANCH   1  16
ATOM     11  C   LIG    1        2.075   0.921  -1.019  0.00  0.00    +0.180 A 
ATOM     12  C   LIG    1        0.864   1.595  -0.970  0.00  0.00    -0.070 A 
ATOM     13  C   LIG    1       -0.003   1.387   0.085  0.00  0.00    +0.070 A 
ATOM     14  C   LIG    1        0.329   0.506   1.101  0.00  0.00    -0.030 A 
ATOM     15  C   LIG    1        1.529  -0.172   1.069  0.00  0.00    +0.080 A 
ATOM     16  C   LIG    1        2.414   0.029   0.007  0.00  0.00    -0.170 A 
BRANCH  11  17
ATOM     17  O   LIG    1        2.927   1.125  -2.054  0.00  0.00    -0.300 OA
BRANCH  17  18
ATOM     18  C   LIG    1        2.513   2.049  -3.063  0.00  0.00    +0.240 C 
BRANCH  18  20
ATOM     19  C   LIG    1        3.246   2.120  -5.391  0.00  0.00    +0.040 C 
ATOM     20  C   LIG    1        3.579   2.145  -4.124  0.00  0.00    -0.040 C 
ENDBRANCH  18  20
ENDBRANCH  17  18
ENDBRANCH  11  17
ENDBRANCH   1  16
BRANCH   7  21
ATOM     21  C   LIG    1        2.609  -6.653  -0.958  0.00  0.00    -0.110 C 
ATOM     22  C   LIG    1        2.640  -8.009  -0.965  0.00  0.00    +0.190 C 
BRANCH  22  23
ATOM     23  C   LIG    1        1.434  -8.745  -1.062  0.00  0.00    -0.210 A 
ATOM     24  C   LIG    1        1.336 -10.112  -1.084  0.00  0.00    +0.060 A 
ATOM     25  C   LIG    1        0.041 -10.560  -1.182  0.00  0.00    -0.010 A 
ATOM     26  C   LIG    1       -0.890  -9.600  -1.249  0.00  0.00    -0.070 A 
ATOM     27  S   LIG    1       -0.177  -8.052  -1.184  0.00  0.00    +0.200 S 
ENDBRANCH  22  23
ENDBRANCH   7  21
TORSDOF 6
