REMARK  Name = ZINCzw00000005zr.0
REMARK                            x       y       z     vdW  Elec       q    Type
REMARK                         _______ _______ _______ _____ _____    ______ ____
ROOT
ATOM      1  N   LIG    1        2.339  -3.669  -5.714  0.00  0.00    -0.670 N 
ATOM      2  H   LIG    1        2.929  -2.899  -5.684  0.00  0.00    +0.420 HD
ATOM      3  C   LIG    1        1.097  -3.587  -5.197  0.00  0.00    +0.570 C 
ATOM      4  O   LIG    1        0.390  -4.575  -5.156  0.00  0.00    -0.500 OA
ENDROOT
BRANCH   3   5
ATOM      5  C   LIG    1        0.596  -2.297  -4.680  0.00  0.00    -0.160 A 
ATOM      6  C   LIG    1        1.406  -1.161  -4.727  0.00  0.00    +0.130 A 
ATOM      7  C   LIG    1        0.932   0.041  -4.243  0.00  0.00    +0.030 A 
ATOM      8  C   LIG    1       -0.346   0.123  -3.717  0.00  0.00    +0.080 A 
ATOM      9  C   LIG    1       -1.153  -1.002  -3.664  0.00  0.00    -0.680 A 
ATOM     10 CL   LIG    1       -0.939   1.640  -3.117  0.00  0.00    -0.020 Cl
ATOM     11  C   LIG    1       -0.691  -2.209  -4.144  0.00  0.00    +0.220 A 
BRANCH   9  12
ATOM     12  S   LIG    1       -2.776  -0.889  -2.987  0.00  0.00    +2.690 S 
ATOM     13  O   LIG    1       -3.367   0.273  -3.553  0.00  0.00    -0.930 OA
ATOM     14  O   LIG    1       -3.348  -2.185  -3.098  0.00  0.00    -0.940 OA
BRANCH  12  15
ATOM     15  N   LIG    1       -2.611  -0.589  -1.367  0.00  0.00    -0.990 NA
ATOM     16  C   LIG    1       -2.708   0.781  -0.837  0.00  0.00    +0.270 C 
ATOM     17  C   LIG    1       -1.489   1.041   0.055  0.00  0.00    +0.220 C 
ATOM     18  O   LIG    1       -1.380  -0.007   1.021  0.00  0.00    -0.370 OA
ATOM     19  C   LIG    1       -1.162  -1.302   0.457  0.00  0.00    +0.210 C 
ATOM     20  C   LIG    1       -2.364  -1.683  -0.414  0.00  0.00    +0.280 C 
ENDBRANCH  12  15
ENDBRANCH   9  12
ENDBRANCH   3   5
BRANCH   1  24
ATOM     21  C   LIG    1        3.646  -7.226  -7.442  0.00  0.00    -0.160 A 
ATOM     22  C   LIG    1        4.050  -5.999  -7.975  0.00  0.00    +0.110 A 
ATOM     23  C   LIG    1        3.616  -4.825  -7.402  0.00  0.00    -0.010 A 
ATOM     24  C   LIG    1        2.776  -4.859  -6.293  0.00  0.00    +0.180 A 
ATOM     25  C   LIG    1        2.376  -6.079  -5.756  0.00  0.00    +0.020 A 
ATOM     26  C   LIG    1        2.802  -7.257  -6.328  0.00  0.00    +0.070 A 
BRANCH  21  29
ATOM     27  N   LIG    1        3.719  -9.669  -7.538  0.00  0.00    -0.730 N 
ATOM     28  H   LIG    1        3.133  -9.692  -6.766  0.00  0.00    +0.410 HD
ATOM     29  C   LIG    1        4.110  -8.487  -8.053  0.00  0.00    +0.570 C 
ATOM     30  O   LIG    1        4.844  -8.458  -9.022  0.00  0.00    -0.520 OA
BRANCH  27  31
ATOM     31  C   LIG    1        4.180 -10.921  -8.146  0.00  0.00    +0.280 C 
BRANCH  31  32
ATOM     32  C   LIG    1        3.595 -12.106  -7.375  0.00  0.00    +0.250 C 
BRANCH  32  33
ATOM     33  N   LIG    1        4.057 -13.361  -7.984  0.00  0.00    -0.380 N 
ATOM     34  H   LIG    1        3.824 -13.364  -8.966  0.00  0.00    +0.430 HD
BRANCH  33  36
ATOM     35  C   LIG    1        5.858 -13.590  -6.341  0.00  0.00    +0.080 C 
ATOM     36  C   LIG    1        5.513 -13.475  -7.827  0.00  0.00    +0.250 C 
ENDBRANCH  33  36
BRANCH  33  37
ATOM     37  C   LIG    1        3.403 -14.497  -7.321  0.00  0.00    +0.240 C 
ATOM     38  C   LIG    1        3.792 -15.795  -8.030  0.00  0.00    +0.080 C 
ENDBRANCH  33  37
ENDBRANCH  32  33
ENDBRANCH  31  32
ENDBRANCH  27  31
ENDBRANCH  21  29
ENDBRANCH   1  24
TORSDOF 10
