REMARK  Name = ZINCpk00000eb3rx.0
REMARK                            x       y       z     vdW  Elec       q    Type
REMARK                         _______ _______ _______ _____ _____    ______ ____
ROOT
ATOM      1  C   LIG    1       -2.948   3.185  -2.901  0.00  0.00    +0.180 C 
ENDROOT
BRANCH   1   9
ATOM      2  C   LIG    1       -1.836   8.255  -6.799  0.00  0.00    +0.160 C 
ATOM      3  C   LIG    1       -1.603   8.039  -5.326  0.00  0.00    +0.140 A 
ATOM      4  C   LIG    1       -1.063   9.031  -4.582  0.00  0.00    -0.020 A 
ATOM      5  C   LIG    1       -0.843   8.843  -3.211  0.00  0.00    +0.140 A 
ATOM      6  C   LIG    1       -1.175   7.654  -2.633  0.00  0.00    +0.020 A 
ATOM      7  C   LIG    1       -1.736   6.634  -3.423  0.00  0.00    +0.400 A 
ATOM      8  N   LIG    1       -2.066   5.473  -2.860  0.00  0.00    -0.540 NA
ATOM      9  C   LIG    1       -2.591   4.487  -3.570  0.00  0.00    +0.220 A 
ATOM     10  C   LIG    1       -2.817   4.653  -4.923  0.00  0.00    -0.150 A 
ATOM     11  C   LIG    1       -2.477   5.872  -5.521  0.00  0.00    +0.510 A 
ATOM     12  O   LIG    1       -2.664   6.050  -6.715  0.00  0.00    -0.520 OA
ATOM     13  N   LIG    1       -1.939   6.848  -4.758  0.00  0.00    -0.430 N 
ENDBRANCH   1   9
BRANCH   1  14
ATOM     14  S   LIG    1       -1.438   2.243  -2.571  0.00  0.00    +0.090 S 
BRANCH  14  15
ATOM     15  C   LIG    1       -2.131   0.812  -1.810  0.00  0.00    +0.220 A 
ATOM     16  N   LIG    1       -3.407   0.585  -1.589  0.00  0.00    -0.340 NA
ATOM     17  N   LIG    1       -3.569  -0.553  -1.017  0.00  0.00    -0.030 NA
ATOM     18  N   LIG    1       -2.431  -1.131  -0.839  0.00  0.00    -0.080 NA
ATOM     19  N   LIG    1       -1.449  -0.261  -1.344  0.00  0.00    -0.360 N 
BRANCH  19  20
ATOM     20  C   LIG    1        0.001  -0.472  -1.366  0.00  0.00    +0.340 C 
BRANCH  20  21
ATOM     21  C   LIG    1        0.617   0.088  -0.082  0.00  0.00    +0.150 C 
ATOM     22  C   LIG    1        2.127  -0.232  -0.041  0.00  0.00    +0.020 C 
ATOM     23  C   LIG    1        2.724   1.070   0.559  0.00  0.00    +0.010 C 
ATOM     24  C   LIG    1        1.771   2.134  -0.042  0.00  0.00    +0.200 C 
ATOM     25  O   LIG    1        0.476   1.513  -0.056  0.00  0.00    -0.370 OA
ENDBRANCH  20  21
ENDBRANCH  19  20
ENDBRANCH  14  15
ENDBRANCH   1  14
TORSDOF 5
