REMARK  Name = ZINCpk00000y6y7S.0
REMARK                            x       y       z     vdW  Elec       q    Type
REMARK                         _______ _______ _______ _____ _____    ______ ____
ROOT
ATOM      1  C   LIG    1       -0.783   1.608   1.247  0.00  0.00    +0.150 C 
ATOM      2  C   LIG    1       -1.232   3.013   0.763  0.00  0.00    +0.080 C 
ATOM      3  C   LIG    1       -1.519   2.789  -0.737  0.00  0.00    +0.370 C 
ATOM      4  N   LIG    1       -0.768   1.595  -1.151  0.00  0.00    -0.610 N 
ATOM      5  C   LIG    1       -0.769   1.056  -2.386  0.00  0.00    +0.700 C 
ATOM      6  O   LIG    1       -1.434   1.564  -3.273  0.00  0.00    -0.590 OA
ATOM      7  C   LIG    1       -0.013   1.086   0.008  0.00  0.00    +0.260 C 
ENDROOT
BRANCH   5   8
ATOM      8  N   LIG    1       -0.042  -0.035  -2.639  0.00  0.00    -0.680 NA
ATOM      9  C   LIG    1       -0.043  -0.568  -3.861  0.00  0.00    +0.530 C 
ATOM     10  N   LIG    1       -0.734  -0.115  -4.927  0.00  0.00    -0.330 NA
ATOM     11  N   LIG    1       -0.451  -0.961  -6.008  0.00  0.00    -0.410 NA
ATOM     12  C   LIG    1        0.376  -1.894  -5.594  0.00  0.00    +0.350 C 
ATOM     13  C   LIG    1        0.976  -2.993  -6.259  0.00  0.00    +0.010 C 
ATOM     14  C   LIG    1        1.808  -3.812  -5.571  0.00  0.00    +0.160 C 
ATOM     15  C   LIG    1        2.067  -3.563  -4.208  0.00  0.00    -0.010 C 
ATOM     16  C   LIG    1        1.495  -2.519  -3.582  0.00  0.00    +0.340 C 
ATOM     17  H   LIG    1       -0.807  -0.875  -6.906  0.00  0.00    +0.460 HD
ATOM     18  N   LIG    1        0.649  -1.675  -4.258  0.00  0.00    -0.400 N 
ENDBRANCH   5   8
BRANCH   3  19
ATOM     19  C   LIG    1       -2.994   2.566  -0.949  0.00  0.00    +0.190 A 
ATOM     20  N   LIG    1       -3.849   3.420  -1.458  0.00  0.00    -0.470 NA
ATOM     21  C   LIG    1       -5.037   2.791  -1.454  0.00  0.00    +0.170 A 
ATOM     22  N   LIG    1       -4.850   1.610  -0.945  0.00  0.00    -0.390 NA
ATOM     23  C   LIG    1       -6.346   3.353  -1.945  0.00  0.00    +0.210 C 
ATOM     24  O   LIG    1       -3.683   1.460  -0.648  0.00  0.00    +0.080 OA
ENDBRANCH   3  19
BRANCH   1  26
ATOM     25  C   LIG    1        0.107   0.530   3.194  0.00  0.00    +0.210 C 
ATOM     26  O   LIG    1        0.079   1.706   2.382  0.00  0.00    -0.370 OA
ENDBRANCH   1  26
TORSDOF 3
