REMARK  Name = ZINCpe000000SuFP.0
REMARK                            x       y       z     vdW  Elec       q    Type
REMARK                         _______ _______ _______ _____ _____    ______ ____
ROOT
ATOM      1  N   LIG    1       -3.814   1.426  -7.508  0.00  0.00    -0.570 N 
ATOM      2  C   LIG    1       -3.603   2.617  -6.919  0.00  0.00    +0.570 C 
ATOM      3  C   LIG    1       -2.947   2.386  -5.612  0.00  0.00    -0.120 A 
ATOM      4  C   LIG    1       -2.504   3.217  -4.596  0.00  0.00    +0.110 A 
ATOM      5  C   LIG    1       -1.918   2.673  -3.465  0.00  0.00    +0.110 A 
ATOM      6  C   LIG    1       -1.764   1.292  -3.348  0.00  0.00    -0.100 A 
ATOM      7  C   LIG    1       -2.209   0.447  -4.369  0.00  0.00    +0.130 A 
ATOM      8  C   LIG    1       -2.799   0.989  -5.497  0.00  0.00    -0.140 A 
ATOM      9  O   LIG    1       -3.902   3.699  -7.381  0.00  0.00    -0.450 OA
ATOM     10  C   LIG    1       -3.369   0.418  -6.736  0.00  0.00    +0.580 C 
ATOM     11  O   LIG    1       -3.425  -0.763  -7.012  0.00  0.00    -0.460 OA
ENDROOT
BRANCH   6  12
ATOM     12  C   LIG    1       -1.132   0.720  -2.138  0.00  0.00    +0.560 C 
ATOM     13  N   LIG    1       -0.123  -0.165  -2.259  0.00  0.00    -0.600 N 
ATOM     14  C   LIG    1        0.569  -0.679  -1.069  0.00  0.00    +0.290 C 
ATOM     15  C   LIG    1        2.075  -0.452  -1.234  0.00  0.00    +0.030 C 
ATOM     16  C   LIG    1        2.539  -1.075  -2.552  0.00  0.00    -0.010 C 
ATOM     17  C   LIG    1        1.815  -0.404  -3.722  0.00  0.00    +0.050 C 
ATOM     18  C   LIG    1        0.307  -0.634  -3.583  0.00  0.00    +0.270 C 
ATOM     19  O   LIG    1       -1.524   1.048  -1.035  0.00  0.00    -0.520 OA
BRANCH  16  20
ATOM     20  C   LIG    1        4.026  -0.880  -2.703  0.00  0.00    +0.520 C 
ATOM     21  O   LIG    1        4.463  -0.266  -3.652  0.00  0.00    -0.540 OA
ATOM     22  N   LIG    1        4.869  -1.389  -1.783  0.00  0.00    -0.860 N 
ATOM     23  H   LIG    1        5.826  -1.264  -1.880  0.00  0.00    +0.400 HD
ATOM     24  H   LIG    1        4.519  -1.881  -1.024  0.00  0.00    +0.400 HD
ENDBRANCH  16  20
ENDBRANCH   6  12
BRANCH   1  25
ATOM     25  C   LIG    1       -4.445   1.250  -8.818  0.00  0.00    +0.350 C 
BRANCH  25  27
ATOM     26  C   LIG    1       -6.750   1.903  -9.287  0.00  0.00    +0.060 C 
ATOM     27  C   LIG    1       -5.935   1.105  -8.643  0.00  0.00    -0.070 C 
ENDBRANCH  25  27
ENDBRANCH   1  25
TORSDOF 4
