REMARK  Name = ZINCrD00000eWseY.0
REMARK                            x       y       z     vdW  Elec       q    Type
REMARK                         _______ _______ _______ _____ _____    ______ ____
ROOT
ATOM      1  C   LIG    1        1.157   3.164   0.007  0.00  0.00    -0.100 A 
ATOM      2  C   LIG    1        1.175   1.782   0.000  0.00  0.00    +0.040 A 
ATOM      3  C   LIG    1       -0.013   1.076   0.008  0.00  0.00    +0.040 A 
ATOM      4  C   LIG    1       -1.221   1.750   0.017  0.00  0.00    -0.090 A 
ATOM      5  C   LIG    1       -2.641   1.244   0.034  0.00  0.00    +0.310 C 
ATOM      6  N   LIG    1       -3.530   2.410   0.048  0.00  0.00    -0.610 N 
ATOM      7  C   LIG    1       -2.672   3.599   0.046  0.00  0.00    +0.330 C 
ATOM      8  C   LIG    1       -4.878   2.392   0.061  0.00  0.00    +0.620 C 
ATOM      9  O   LIG    1       -5.500   3.437   0.073  0.00  0.00    -0.510 OA
ATOM     10  C   LIG    1       -1.239   3.131   0.030  0.00  0.00    -0.100 A 
ATOM     11  C   LIG    1       -0.049   3.838   0.022  0.00  0.00    +0.060 A 
ENDROOT
BRANCH   8  12
ATOM     12  C   LIG    1       -5.596   1.109   0.062  0.00  0.00    -0.270 A 
ATOM     13  C   LIG    1       -6.964   0.898   0.074  0.00  0.00    +0.080 A 
ATOM     14  C   LIG    1       -7.262  -0.446   0.070  0.00  0.00    +0.090 A 
ATOM     15  N   LIG    1       -6.276  -1.286   0.057  0.00  0.00    -0.520 NA
ATOM     16  C   LIG    1       -8.691  -0.924   0.082  0.00  0.00    +0.150 C 
ATOM     17  S   LIG    1       -4.911  -0.524   0.039  0.00  0.00    +0.420 S 
ENDBRANCH   8  12
BRANCH   1  18
ATOM     18  C   LIG    1        2.451   3.935  -0.001  0.00  0.00    +0.330 C 
BRANCH  18  20
ATOM     19  C   LIG    1        3.994   4.872  -1.639  0.00  0.00    +0.600 C 
ATOM     20  N   LIG    1        2.858   4.192  -1.385  0.00  0.00    -0.720 N 
ATOM     21  H   LIG    1        2.309   3.873  -2.119  0.00  0.00    +0.400 HD
ATOM     22  O   LIG    1        4.681   5.271  -0.719  0.00  0.00    -0.520 OA
BRANCH  19  27
ATOM     23  C   LIG    1        6.700   6.526  -5.572  0.00  0.00    +0.150 C 
ATOM     24  C   LIG    1        5.567   5.843  -4.851  0.00  0.00    +0.090 A 
ATOM     25  N   LIG    1        4.604   5.277  -5.505  0.00  0.00    -0.520 NA
ATOM     26  S   LIG    1        3.568   4.650  -4.516  0.00  0.00    +0.420 S 
ATOM     27  C   LIG    1        4.401   5.129  -3.029  0.00  0.00    -0.270 A 
ATOM     28  C   LIG    1        5.521   5.808  -3.476  0.00  0.00    +0.080 A 
ENDBRANCH  19  27
ENDBRANCH  18  20
ENDBRANCH   1  18
TORSDOF 4
