REMARK  Name = ZINCpk00000y6uoL.0
REMARK                            x       y       z     vdW  Elec       q    Type
REMARK                         _______ _______ _______ _____ _____    ______ ____
ROOT
ATOM      1  N   LIG    1        2.511  -0.264  -0.005  0.00  0.00    -0.710 N 
ATOM      2  H   LIG    1        1.711  -0.801   0.111  0.00  0.00    +0.400 HD
ATOM      3  C   LIG    1        2.424   1.081  -0.011  0.00  0.00    +0.550 C 
ATOM      4  O   LIG    1        3.434   1.754  -0.064  0.00  0.00    -0.470 OA
ENDROOT
BRANCH   3   5
ATOM      5  C   LIG    1        1.095   1.738   0.047  0.00  0.00    +0.030 A 
ATOM      6  C   LIG    1        0.987   3.137   0.042  0.00  0.00    +0.040 A 
ATOM      7  N   LIG    1        1.864   4.151  -0.007  0.00  0.00    -0.510 NA
ATOM      8  C   LIG    1        1.189   5.283   0.017  0.00  0.00    +0.460 A 
ATOM      9  N   LIG    1       -0.114   5.043   0.081  0.00  0.00    -0.560 NA
ATOM     10  C   LIG    1       -0.306   3.728   0.100  0.00  0.00    +0.230 A 
ATOM     11  N   LIG    1       -1.408   2.929   0.159  0.00  0.00    -0.460 N 
ATOM     12  H   LIG    1       -2.289   3.333   0.198  0.00  0.00    +0.430 HD
ATOM     13  C   LIG    1       -1.293   1.593   0.158  0.00  0.00    +0.330 A 
ATOM     14  C   LIG    1       -0.077   0.978   0.109  0.00  0.00    -0.020 A 
ENDBRANCH   3   5
BRANCH   1  17
ATOM     15  C   LIG    1        4.811  -2.352  -1.368  0.00  0.00    +0.160 C 
ATOM     16  C   LIG    1        4.316  -0.919  -1.626  0.00  0.00    +0.060 C 
ATOM     17  C   LIG    1        3.812  -0.915  -0.173  0.00  0.00    +0.170 C 
ATOM     18  C   LIG    1        3.726  -2.447  -0.281  0.00  0.00    -0.070 C 
ATOM     19  C   LIG    1        2.378  -2.949  -0.803  0.00  0.00    +0.090 C 
ATOM     20  C   LIG    1        4.186  -3.178   0.982  0.00  0.00    +0.050 C 
BRANCH  17  21
ATOM     21  C   LIG    1        4.838  -0.438   0.822  0.00  0.00    +0.490 C 
ATOM     22  O   LIG    1        5.989  -0.292   0.481  0.00  0.00    -0.470 OA
BRANCH  21  23
ATOM     23  O   LIG    1        4.475  -0.173   2.087  0.00  0.00    -0.360 OA
ATOM     24  C   LIG    1        5.516   0.283   2.990  0.00  0.00    +0.260 C 
ENDBRANCH  21  23
ENDBRANCH  17  21
BRANCH  15  25
ATOM     25  O   LIG    1        6.142  -2.414  -0.854  0.00  0.00    -0.340 OA
BRANCH  25  27
ATOM     26  C   LIG    1        8.472  -3.007  -1.105  0.00  0.00    +0.050 C 
ATOM     27  C   LIG    1        7.087  -2.992  -1.757  0.00  0.00    +0.160 C 
ENDBRANCH  25  27
ENDBRANCH  15  25
ENDBRANCH   1  17
TORSDOF 6
