REMARK  Name = ZINCrg000000thvY.0
REMARK                            x       y       z     vdW  Elec       q    Type
REMARK                         _______ _______ _______ _____ _____    ______ ____
ROOT
ATOM      1  O   LIG    1       -7.866   3.229  -1.621  0.00  0.00    -0.500 OA
ATOM      2  C   LIG    1       -6.820   3.841  -1.622  0.00  0.00    +0.510 C 
ATOM      3  N   LIG    1       -5.650   3.178  -1.531  0.00  0.00    -0.610 N 
ATOM      4  C   LIG    1       -5.628   1.712  -1.428  0.00  0.00    +0.290 C 
ATOM      5  C   LIG    1       -4.840   1.320  -0.173  0.00  0.00    +0.310 C 
ATOM      6  N   LIG    1       -3.564   2.049  -0.173  0.00  0.00    -0.630 N 
ATOM      7  C   LIG    1       -3.586   3.515  -0.270  0.00  0.00    +0.260 C 
ATOM      8  C   LIG    1       -2.394   1.385  -0.081  0.00  0.00    +0.710 C 
ATOM      9  N   LIG    1       -1.238   2.069   0.025  0.00  0.00    -0.680 N 
ATOM     10  H   LIG    1       -1.252   3.035   0.111  0.00  0.00    +0.410 HD
ATOM     11  O   LIG    1       -2.383   0.169  -0.093  0.00  0.00    -0.560 OA
ATOM     12  C   LIG    1       -4.374   3.906  -1.531  0.00  0.00    +0.280 C 
ENDROOT
BRANCH   9  13
ATOM     13  C   LIG    1       -0.017   1.385   0.011  0.00  0.00    +0.160 A 
ATOM     14  C   LIG    1        0.126   0.232  -0.750  0.00  0.00    +0.060 A 
ATOM     15  C   LIG    1        1.334  -0.437  -0.767  0.00  0.00    +0.040 A 
ATOM     16  C   LIG    1        2.401   0.040  -0.027  0.00  0.00    +0.050 A 
ATOM     17  C   LIG    1        2.261   1.187   0.732  0.00  0.00    -0.160 A 
ATOM     18  C   LIG    1        1.056   1.861   0.753  0.00  0.00    +0.040 A 
BRANCH  17  19
ATOM     19  C   LIG    1        3.426   1.703   1.537  0.00  0.00    +0.510 C 
ATOM     20  F   LIG    1        3.079   1.734   2.892  0.00  0.00    -0.180 F 
ATOM     21  F   LIG    1        3.753   2.995   1.110  0.00  0.00    -0.180 F 
ATOM     22  F   LIG    1        4.528   0.860   1.357  0.00  0.00    -0.170 F 
ENDBRANCH  17  19
ENDBRANCH   9  13
BRANCH   2  23
ATOM     23  C   LIG    1       -6.826   5.345  -1.727  0.00  0.00    +0.380 C 
BRANCH  23  24
ATOM     24  N   LIG    1       -8.209   5.822  -1.814  0.00  0.00    -0.310 N 
ATOM     25  C   LIG    1       -8.795   6.726  -1.006  0.00  0.00    +0.400 A 
ATOM     26  N   LIG    1      -10.027   6.866  -1.431  0.00  0.00    -0.300 NA
ATOM     27  N   LIG    1      -10.191   6.084  -2.441  0.00  0.00    -0.070 NA
ATOM     28  N   LIG    1       -9.095   5.451  -2.675  0.00  0.00    -0.060 NA
ENDBRANCH  23  24
ENDBRANCH   2  23
TORSDOF 4
