REMARK  Name = ZINCvU0000000BuQ.0
REMARK                            x       y       z     vdW  Elec       q    Type
REMARK                         _______ _______ _______ _____ _____    ______ ____
ROOT
ATOM      1  C   LIG    1       -2.292   2.643  -7.364  0.00  0.00    +0.370 C 
ATOM      2  C   LIG    1       -1.910   4.049  -7.691  0.00  0.00    -0.230 A 
ATOM      3  C   LIG    1       -3.063   4.780  -7.788  0.00  0.00    +0.090 A 
ATOM      4  C   LIG    1       -4.202   3.882  -7.539  0.00  0.00    +0.570 C 
ATOM      5  O   LIG    1       -5.370   4.218  -7.555  0.00  0.00    -0.450 OA
ATOM      6  O   LIG    1       -3.065   6.098  -8.066  0.00  0.00    -0.180 OA
ATOM      7  C   LIG    1       -1.924   6.693  -8.497  0.00  0.00    +0.150 A 
ATOM      8  C   LIG    1       -1.989   7.988  -9.010  0.00  0.00    +0.040 A 
ATOM      9  C   LIG    1       -0.846   8.620  -9.445  0.00  0.00    +0.120 A 
ATOM     10  C   LIG    1        0.387   7.983  -9.380  0.00  0.00    -0.060 A 
ATOM     11  C   LIG    1        0.477   6.703  -8.879  0.00  0.00    +0.140 A 
ATOM     12 CL   LIG    1        1.815   8.802  -9.931  0.00  0.00    -0.040 Cl
ATOM     13  C   LIG    1       -0.675   6.053  -8.438  0.00  0.00    -0.200 A 
ATOM     14  C   LIG    1       -0.599   4.670  -7.900  0.00  0.00    +0.460 A 
ATOM     15  O   LIG    1        0.453   4.106  -7.657  0.00  0.00    -0.410 OA
ATOM     16  N   LIG    1       -3.762   2.632  -7.289  0.00  0.00    -0.500 N 
ENDROOT
BRANCH   1  20
ATOM     17  C   LIG    1       -0.617   1.496  -3.603  0.00  0.00    +0.140 A 
ATOM     18  C   LIG    1       -1.763   2.277  -3.644  0.00  0.00    -0.080 A 
ATOM     19  C   LIG    1       -2.300   2.650  -4.861  0.00  0.00    +0.050 A 
ATOM     20  C   LIG    1       -1.701   2.239  -6.037  0.00  0.00    -0.130 A 
ATOM     21  C   LIG    1       -0.562   1.456  -5.999  0.00  0.00    +0.100 A 
ATOM     22  C   LIG    1       -0.018   1.084  -4.785  0.00  0.00    -0.010 A 
BRANCH  17  23
ATOM     23  O   LIG    1       -0.084   1.132  -2.407  0.00  0.00    -0.310 OA
BRANCH  23  24
ATOM     24  C   LIG    1       -0.753   1.593  -1.232  0.00  0.00    +0.180 C 
BRANCH  24  26
ATOM     25  C   LIG    1       -0.729   1.579   1.267  0.00  0.00    +0.040 C 
ATOM     26  C   LIG    1       -0.013   1.086   0.008  0.00  0.00    +0.020 C 
ENDBRANCH  24  26
ENDBRANCH  23  24
ENDBRANCH  17  23
ENDBRANCH   1  20
BRANCH  16  27
ATOM     27  C   LIG    1       -4.556   1.528  -7.011  0.00  0.00    +0.270 A 
ATOM     28  N   LIG    1       -4.111   0.332  -6.779  0.00  0.00    -0.490 NA
ATOM     29  C   LIG    1       -5.009  -0.601  -6.527  0.00  0.00    +0.250 A 
ATOM     30  C   LIG    1       -6.274  -0.176  -6.557  0.00  0.00    -0.100 A 
ATOM     31  S   LIG    1       -6.264   1.545  -6.931  0.00  0.00    +0.210 S 
ENDBRANCH  16  27
TORSDOF 5
