REMARK  Name = ZINCtj00001yywxp.0
REMARK                            x       y       z     vdW  Elec       q    Type
REMARK                         _______ _______ _______ _____ _____    ______ ____
ROOT
ATOM      1  N   LIG    1       -1.483  -0.513   0.259  0.00  0.00    -0.590 N 
ATOM      2  C   LIG    1       -2.791   0.153   0.160  0.00  0.00    +0.340 C 
ATOM      3  C   LIG    1       -3.556  -0.461  -1.023  0.00  0.00    +0.270 C 
ATOM      4  N   LIG    1       -3.630  -1.917  -0.851  0.00  0.00    -0.380 N 
ATOM      5  C   LIG    1       -2.282  -2.497  -0.910  0.00  0.00    +0.270 C 
ATOM      6  H   LIG    1       -4.046  -2.128   0.044  0.00  0.00    +0.420 HD
ATOM      7  C   LIG    1       -1.454  -1.984   0.273  0.00  0.00    +0.350 C 
ENDROOT
BRANCH   1  11
ATOM      8  C   LIG    1        3.333  -0.281   0.344  0.00  0.00    +0.380 C 
ATOM      9  N   LIG    1        2.032   0.392   0.390  0.00  0.00    -0.430 N 
ATOM     10  N   LIG    1        0.859  -0.367   0.303  0.00  0.00    -0.260 NA
ATOM     11  C   LIG    1       -0.305   0.228   0.344  0.00  0.00    +0.310 A 
ATOM     12  C   LIG    1       -0.351   1.694   0.481  0.00  0.00    +0.540 A 
ATOM     13  N   LIG    1        0.806   2.382   0.561  0.00  0.00    -0.540 N 
ATOM     14  C   LIG    1        0.783   3.840   0.697  0.00  0.00    +0.350 C 
ATOM     15  O   LIG    1       -1.419   2.276   0.516  0.00  0.00    -0.480 OA
ATOM     16  C   LIG    1        1.983   1.730   0.515  0.00  0.00    +0.670 A 
ATOM     17  O   LIG    1        3.020   2.362   0.587  0.00  0.00    -0.520 OA
ENDBRANCH   1  11
BRANCH   4  18
ATOM     18  C   LIG    1       -4.456  -2.494  -1.920  0.00  0.00    +0.280 C 
BRANCH  18  19
ATOM     19  C   LIG    1       -5.842  -1.904  -1.857  0.00  0.00    -0.130 A 
ATOM     20  C   LIG    1       -6.475  -1.755  -0.637  0.00  0.00    +0.000 A 
ATOM     21  C   LIG    1       -7.744  -1.210  -0.579  0.00  0.00    +0.040 A 
ATOM     22  C   LIG    1       -8.384  -0.822  -1.742  0.00  0.00    +0.050 A 
ATOM     23  C   LIG    1       -7.752  -0.976  -2.962  0.00  0.00    +0.040 A 
ATOM     24  C   LIG    1       -6.481  -1.516  -3.019  0.00  0.00    +0.040 A 
ENDBRANCH  18  19
BRANCH  18  25
ATOM     25  C   LIG    1       -4.538  -3.988  -1.742  0.00  0.00    -0.130 A 
ATOM     26  C   LIG    1       -4.691  -4.526  -0.477  0.00  0.00    +0.000 A 
ATOM     27  C   LIG    1       -4.770  -5.896  -0.314  0.00  0.00    +0.040 A 
ATOM     28  C   LIG    1       -4.687  -6.729  -1.414  0.00  0.00    +0.050 A 
ATOM     29  C   LIG    1       -4.529  -6.191  -2.678  0.00  0.00    +0.040 A 
ATOM     30  C   LIG    1       -4.455  -4.821  -2.842  0.00  0.00    +0.040 A 
ENDBRANCH  18  25
ENDBRANCH   4  18
TORSDOF 4
