REMARK  Name = ZINCrH000004sPsK.0
REMARK                            x       y       z     vdW  Elec       q    Type
REMARK                         _______ _______ _______ _____ _____    ______ ____
ROOT
ATOM      1  C   LIG    1        1.242   2.093   0.001  0.00  0.00    +0.300 C 
ENDROOT
BRANCH   1   2
ATOM      2  C   LIG    1        1.751   2.236   1.413  0.00  0.00    -0.100 A 
ATOM      3  C   LIG    1        0.867   2.499   2.443  0.00  0.00    +0.020 A 
ATOM      4  C   LIG    1        1.333   2.626   3.738  0.00  0.00    +0.000 A 
ATOM      5  C   LIG    1        2.684   2.499   4.002  0.00  0.00    +0.010 A 
ATOM      6  C   LIG    1        3.568   2.242   2.971  0.00  0.00    +0.000 A 
ATOM      7  C   LIG    1        3.102   2.111   1.677  0.00  0.00    +0.020 A 
ENDBRANCH   1   2
BRANCH   1   8
ATOM      8  N   LIG    1       -0.016   1.344   0.009  0.00  0.00    -0.720 N 
ATOM      9  H   LIG    1       -0.863   1.817   0.016  0.00  0.00    +0.410 HD
ATOM     10  C   LIG    1        0.002  -0.004   0.002  0.00  0.00    +0.520 C 
ATOM     11  O   LIG    1        1.060  -0.596  -0.011  0.00  0.00    -0.530 OA
BRANCH  10  12
ATOM     12  C   LIG    1       -1.293  -0.775   0.010  0.00  0.00    +0.000 C 
ATOM     13  C   LIG    1       -2.088  -0.423   1.269  0.00  0.00    +0.040 C 
BRANCH  12  14
ATOM     14  C   LIG    1       -0.993  -2.276  -0.001  0.00  0.00    +0.110 C 
BRANCH  14  15
ATOM     15  C   LIG    1       -2.283  -3.045  -0.116  0.00  0.00    -0.050 A 
ATOM     16  C   LIG    1       -2.784  -3.371  -1.363  0.00  0.00    +0.000 A 
ATOM     17  C   LIG    1       -3.968  -4.076  -1.470  0.00  0.00    +0.040 A 
ATOM     18  C   LIG    1       -4.652  -4.457  -0.332  0.00  0.00    -0.020 A 
ATOM     19  C   LIG    1       -4.151  -4.132   0.917  0.00  0.00    +0.100 A 
ATOM     20  F   LIG    1       -4.819  -4.504   2.031  0.00  0.00    -0.140 F 
ATOM     21  C   LIG    1       -2.963  -3.429   1.024  0.00  0.00    -0.010 A 
ENDBRANCH  14  15
ENDBRANCH  12  14
ENDBRANCH  10  12
ENDBRANCH   1   8
BRANCH   1  22
ATOM     22  C   LIG    1        1.006   3.481  -0.599  0.00  0.00    +0.210 C 
BRANCH  22  27
ATOM     23  C   LIG    1       -1.578   2.967  -4.857  0.00  0.00    +0.210 C 
ATOM     24  C   LIG    1       -0.464   3.125  -3.855  0.00  0.00    +0.170 A 
ATOM     25  N   LIG    1        0.806   3.197  -4.121  0.00  0.00    -0.380 NA
ATOM     26  O   LIG    1        1.443   3.328  -3.097  0.00  0.00    +0.080 OA
ATOM     27  C   LIG    1        0.616   3.341  -2.047  0.00  0.00    +0.180 A 
ATOM     28  N   LIG    1       -0.601   3.217  -2.520  0.00  0.00    -0.480 NA
ENDBRANCH  22  27
ENDBRANCH   1  22
TORSDOF 7
