REMARK  Name = ZINCrH000004lCoy.0
REMARK                            x       y       z     vdW  Elec       q    Type
REMARK                         _______ _______ _______ _____ _____    ______ ____
ROOT
ATOM      1  C   LIG    1       -4.894   1.350   0.248  0.00  0.00    +0.270 C 
ATOM      2  C   LIG    1       -5.076   0.474  -0.994  0.00  0.00    +0.080 C 
ENDROOT
BRANCH   1   3
ATOM      3  N   LIG    1       -6.017   2.285   0.355  0.00  0.00    -0.560 N 
ATOM      4  C   LIG    1       -6.332   3.205  -0.574  0.00  0.00    +0.590 C 
ATOM      5  C   LIG    1       -7.521   3.952  -0.112  0.00  0.00    -0.120 A 
ATOM      6  C   LIG    1       -8.277   4.987  -0.637  0.00  0.00    +0.140 A 
ATOM      7  C   LIG    1       -9.361   5.479   0.077  0.00  0.00    -0.010 A 
ATOM      8  C   LIG    1       -9.691   4.940   1.309  0.00  0.00    -0.020 A 
ATOM      9  C   LIG    1       -8.942   3.903   1.846  0.00  0.00    +0.140 A 
ATOM     10 CL   LIG    1      -11.051   5.566   2.188  0.00  0.00    -0.020 Cl
ATOM     11 CL   LIG    1      -10.309   6.776  -0.580  0.00  0.00    -0.020 Cl
ATOM     12  C   LIG    1       -7.857   3.403   1.143  0.00  0.00    -0.120 A 
ATOM     13  O   LIG    1       -5.741   3.390  -1.618  0.00  0.00    -0.430 OA
ATOM     14  C   LIG    1       -6.865   2.339   1.398  0.00  0.00    +0.580 C 
ATOM     15  O   LIG    1       -6.821   1.632   2.385  0.00  0.00    -0.450 OA
ENDBRANCH   1   3
BRANCH   1  18
ATOM     16  N   LIG    1       -2.434   1.468   0.021  0.00  0.00    -0.670 N 
ATOM     17  H   LIG    1       -2.424   0.500  -0.049  0.00  0.00    +0.410 HD
ATOM     18  C   LIG    1       -3.606   2.123   0.132  0.00  0.00    +0.510 C 
ATOM     19  O   LIG    1       -3.624   3.336   0.139  0.00  0.00    -0.500 OA
BRANCH  16  25
ATOM     20  C   LIG    1       -0.095   1.644   0.600  0.00  0.00    -0.110 A 
ATOM     21  C   LIG    1        1.092   2.349   0.581  0.00  0.00    +0.060 A 
ATOM     22  C   LIG    1        1.150   3.593  -0.022  0.00  0.00    +0.000 A 
ATOM     23  C   LIG    1        0.020   4.134  -0.607  0.00  0.00    +0.030 A 
ATOM     24  C   LIG    1       -1.171   3.434  -0.590  0.00  0.00    +0.020 A 
ATOM     25  C   LIG    1       -1.231   2.182   0.009  0.00  0.00    +0.140 A 
BRANCH  20  26
ATOM     26  C   LIG    1       -0.157   0.289   1.257  0.00  0.00    +0.230 C 
BRANCH  26  28
ATOM     27  C   LIG    1        1.181  -1.318   2.429  0.00  0.00    +0.200 C 
ATOM     28  O   LIG    1        1.130  -0.045   1.782  0.00  0.00    -0.380 OA
ENDBRANCH  26  28
ENDBRANCH  20  26
ENDBRANCH  16  25
ENDBRANCH   1  18
TORSDOF 5
