REMARK  Name = ZINCpk00000ebaw6.0
REMARK                            x       y       z     vdW  Elec       q    Type
REMARK                         _______ _______ _______ _____ _____    ______ ____
ROOT
ATOM      1  N   LIG    1       -3.358  -2.153   1.010  0.00  0.00    -0.530 NA
ATOM      2  C   LIG    1       -3.277  -0.708   1.262  0.00  0.00    +0.170 C 
ATOM      3  C   LIG    1       -2.482  -0.041   0.135  0.00  0.00    +0.300 C 
ATOM      4  N   LIG    1       -1.185  -0.724   0.009  0.00  0.00    -0.570 N 
ATOM      5  C   LIG    1       -1.180  -2.190  -0.115  0.00  0.00    +0.300 C 
ATOM      6  C   LIG    1       -2.026  -2.773   1.028  0.00  0.00    +0.170 C 
ENDROOT
BRANCH   4   7
ATOM      7  C   LIG    1        0.002  -0.004   0.002  0.00  0.00    +0.350 A 
ATOM      8  N   LIG    1        1.160  -0.628   0.031  0.00  0.00    -0.510 NA
ATOM      9  C   LIG    1        2.304   0.057   0.025  0.00  0.00    +0.200 A 
ATOM     10  C   LIG    1        2.322   1.407  -0.011  0.00  0.00    +0.150 A 
ATOM     11  N   LIG    1        1.162   2.122  -0.042  0.00  0.00    -0.480 N 
ATOM     12  C   LIG    1        1.194   3.586  -0.081  0.00  0.00    +0.330 C 
ATOM     13  C   LIG    1       -0.018   1.463  -0.037  0.00  0.00    +0.480 A 
ATOM     14  O   LIG    1       -1.074   2.072  -0.065  0.00  0.00    -0.530 OA
ENDBRANCH   4   7
BRANCH   1  15
ATOM     15  C   LIG    1       -4.255  -2.806   1.973  0.00  0.00    +0.260 C 
BRANCH  15  22
ATOM     16  C   LIG    1       -2.539  -5.337   2.804  0.00  0.00    +0.140 C 
ATOM     17  C   LIG    1       -3.750  -5.345   1.908  0.00  0.00    +0.080 A 
ATOM     18  N   LIG    1       -4.276  -6.399   1.338  0.00  0.00    -0.290 NA
ATOM     19  N   LIG    1       -5.385  -5.985   0.590  0.00  0.00    -0.360 N 
ATOM     20  C   LIG    1       -5.509  -4.649   0.736  0.00  0.00    +0.110 A 
ATOM     21  C   LIG    1       -6.570  -3.781   0.110  0.00  0.00    +0.140 C 
ATOM     22  C   LIG    1       -4.507  -4.228   1.542  0.00  0.00    -0.230 A 
BRANCH  19  23
ATOM     23  C   LIG    1       -6.260  -6.850  -0.205  0.00  0.00    +0.260 C 
ATOM     24  C   LIG    1       -6.908  -7.896   0.704  0.00  0.00    +0.040 C 
ATOM     25  C   LIG    1       -5.436  -7.554  -1.286  0.00  0.00    +0.040 C 
ENDBRANCH  19  23
ENDBRANCH  15  22
ENDBRANCH   1  15
TORSDOF 4
