REMARK  Name = ZINCpe000000Y71G.0
REMARK                            x       y       z     vdW  Elec       q    Type
REMARK                         _______ _______ _______ _____ _____    ______ ____
ROOT
ATOM      1  C   LIG    1       -3.141   4.059   0.311  0.00  0.00    +0.190 C 
ATOM      2  C   LIG    1       -4.081   2.881   0.262  0.00  0.00    +0.120 A 
ATOM      3  N   LIG    1       -5.378   2.947   0.157  0.00  0.00    -0.240 NA
ATOM      4  N   LIG    1       -5.918   1.656   0.142  0.00  0.00    -0.390 N 
ATOM      5  C   LIG    1       -4.886   0.759   0.244  0.00  0.00    +0.320 A 
ATOM      6  N   LIG    1       -4.828  -0.564   0.279  0.00  0.00    -0.480 NA
ATOM      7  C   LIG    1       -3.688  -1.209   0.385  0.00  0.00    +0.230 A 
ATOM      8  C   LIG    1       -2.476  -0.538   0.460  0.00  0.00    -0.030 A 
ATOM      9  C   LIG    1       -2.464   0.855   0.435  0.00  0.00    -0.000 A 
ATOM     10  C   LIG    1       -7.340   1.321   0.036  0.00  0.00    +0.360 C 
ATOM     11  C   LIG    1       -3.703   1.523   0.322  0.00  0.00    -0.180 A 
ENDROOT
BRANCH   9  12
ATOM     12  C   LIG    1       -1.195   1.609   0.520  0.00  0.00    +0.550 C 
ATOM     13  N   LIG    1       -0.040   0.959   0.765  0.00  0.00    -0.720 N 
ATOM     14  H   LIG    1       -0.042  -0.003   0.887  0.00  0.00    +0.400 HD
ATOM     15  O   LIG    1       -1.193   2.815   0.367  0.00  0.00    -0.510 OA
BRANCH  13  16
ATOM     16  C   LIG    1        1.218   1.705   0.843  0.00  0.00    +0.280 C 
BRANCH  16  17
ATOM     17  C   LIG    1        2.369   0.737   1.123  0.00  0.00    +0.020 C 
BRANCH  17  18
ATOM     18  C   LIG    1        3.683   1.516   1.203  0.00  0.00    +0.280 C 
BRANCH  18  19
ATOM     19  N   LIG    1        4.785   0.589   1.471  0.00  0.00    -1.120 NA
ATOM     20  H   LIG    1        4.598  -0.311   1.781  0.00  0.00    +0.420 HD
BRANCH  19  21
ATOM     21  S   LIG    1        6.352   1.077   1.246  0.00  0.00    +2.620 S 
ATOM     22  O   LIG    1        6.364   1.619  -0.068  0.00  0.00    -0.950 OA
ATOM     23  O   LIG    1        7.126  -0.069   1.573  0.00  0.00    -0.960 OA
ATOM     24  C   LIG    1        6.599   2.386   2.477  0.00  0.00    -0.280 C 
ENDBRANCH  19  21
ENDBRANCH  18  19
ENDBRANCH  17  18
ENDBRANCH  16  17
ENDBRANCH  13  16
ENDBRANCH   9  12
BRANCH   7  25
ATOM     25  C   LIG    1       -3.696  -2.716   0.418  0.00  0.00    +0.020 C 
ATOM     26  C   LIG    1       -2.371  -3.435   0.159  0.00  0.00    +0.040 C 
ATOM     27  C   LIG    1       -3.472  -3.453  -0.904  0.00  0.00    +0.050 C 
ENDBRANCH   7  25
TORSDOF 7
