REMARK  Name = ZINCkj00000HICW2.0
REMARK                            x       y       z     vdW  Elec       q    Type
REMARK                         _______ _______ _______ _____ _____    ______ ____
ROOT
ATOM      1  N   LIG    1       -3.195   7.275  -0.572  0.00  0.00    -0.390 N 
ATOM      2  C   LIG    1       -2.025   7.682  -1.359  0.00  0.00    +0.290 C 
ATOM      3  C   LIG    1       -1.004   6.542  -1.389  0.00  0.00    +0.070 C 
ATOM      4  C   LIG    1       -0.570   6.214   0.042  0.00  0.00    +0.270 C 
ATOM      5  C   LIG    1       -1.808   5.863   0.873  0.00  0.00    +0.070 C 
ATOM      6  C   LIG    1       -2.799   7.028   0.820  0.00  0.00    +0.270 C 
ATOM      7  H   LIG    1       -3.586   6.431  -0.964  0.00  0.00    +0.430 HD
ENDROOT
BRANCH   4   8
ATOM      8  N   LIG    1        0.349   5.074   0.026  0.00  0.00    -0.300 N 
ATOM      9  C   LIG    1       -0.008   3.768   0.017  0.00  0.00    +0.170 A 
ATOM     10  C   LIG    1        1.147   3.062   0.008  0.00  0.00    -0.010 A 
ATOM     11  N   LIG    1        2.140   3.958   0.002  0.00  0.00    -0.240 NA
ATOM     12  N   LIG    1        1.634   5.141   0.014  0.00  0.00    -0.070 NA
BRANCH  10  13
ATOM     13  C   LIG    1        1.286   1.562  -0.002  0.00  0.00    +0.310 C 
BRANCH  13  14
ATOM     14  O   LIG    1       -0.011   0.963   0.007  0.00  0.00    -0.580 OA
ATOM     15  H   LIG    1        0.002  -0.004   0.002  0.00  0.00    +0.400 HD
ENDBRANCH  13  14
ENDBRANCH  10  13
ENDBRANCH   4   8
BRANCH   1  16
ATOM     16  C   LIG    1       -4.205   8.342  -0.610  0.00  0.00    +0.390 C 
BRANCH  16  21
ATOM     17  C   LIG    1       -6.952   8.059   3.644  0.00  0.00    +0.170 C 
ATOM     18  C   LIG    1       -6.648   7.814   2.188  0.00  0.00    +0.120 A 
ATOM     19  N   LIG    1       -7.469   7.158   1.421  0.00  0.00    -0.420 NA
ATOM     20  S   LIG    1       -6.772   7.100  -0.124  0.00  0.00    +0.320 S 
ATOM     21  C   LIG    1       -5.353   7.979   0.295  0.00  0.00    -0.280 A 
ATOM     22  C   LIG    1       -5.484   8.271   1.608  0.00  0.00    +0.030 A 
ENDBRANCH  16  21
ENDBRANCH   1  16
TORSDOF 5
