REMARK  Name = ZINCnE000001Q7y3.1
REMARK                            x       y       z     vdW  Elec       q    Type
REMARK                         _______ _______ _______ _____ _____    ______ ____
ROOT
ATOM      1  C   LIG    1        3.465   0.351   5.667  0.00  0.00    -0.320 A 
ATOM      2  C   LIG    1        2.227  -0.142   5.736  0.00  0.00    +0.230 A 
ATOM      3  N   LIG    1        1.442   0.206   4.733  0.00  0.00    -0.560 NA
ATOM      4  C   LIG    1        1.960   0.962   3.817  0.00  0.00    +0.340 A 
ATOM      5  S   LIG    1        3.589   1.316   4.198  0.00  0.00    +0.030 S 
ENDROOT
BRANCH   4   6
ATOM      6  N   LIG    1        1.288   1.422   2.691  0.00  0.00    -0.690 NA
ATOM      7  C   LIG    1        0.000   1.080   2.488  0.00  0.00    +0.450 C 
ATOM      8  O   LIG    1       -0.572   0.370   3.288  0.00  0.00    -0.560 OA
BRANCH   7   9
ATOM      9  C   LIG    1       -0.729   1.579   1.267  0.00  0.00    +0.240 C 
ATOM     10  C   LIG    1       -0.013   1.086   0.008  0.00  0.00    +0.070 C 
BRANCH   9  11
ATOM     11  N   LIG    1       -2.103   1.072   1.277  0.00  0.00    -0.430 N 
ATOM     12  C   LIG    1       -3.247   1.825   1.292  0.00  0.00    +0.100 A 
ATOM     13  C   LIG    1       -4.281   0.962   1.297  0.00  0.00    +0.120 A 
ATOM     14  N   LIG    1       -3.783  -0.283   1.286  0.00  0.00    -0.510 NA
ATOM     15  C   LIG    1       -2.479  -0.225   1.268  0.00  0.00    +0.410 A 
ENDBRANCH   9  11
ENDBRANCH   7   9
ENDBRANCH   4   6
BRANCH   1  16
ATOM     16  C   LIG    1        4.565   0.124   6.672  0.00  0.00    +0.170 C 
BRANCH  16  22
ATOM     17  C   LIG    1        5.284  -4.821   6.934  0.00  0.00    +0.090 C 
ATOM     18  C   LIG    1        5.696  -3.469   6.412  0.00  0.00    -0.090 A 
ATOM     19  C   LIG    1        6.794  -3.353   5.582  0.00  0.00    -0.010 A 
ATOM     20  C   LIG    1        7.171  -2.112   5.103  0.00  0.00    +0.000 A 
ATOM     21  C   LIG    1        6.450  -0.987   5.456  0.00  0.00    +0.000 A 
ATOM     22  C   LIG    1        5.351  -1.103   6.287  0.00  0.00    -0.060 A 
ATOM     23  C   LIG    1        4.978  -2.342   6.770  0.00  0.00    +0.010 A 
ENDBRANCH  16  22
ENDBRANCH   1  16
TORSDOF 5
