REMARK  Name = ZINCpk00000y6xMk.0
REMARK                            x       y       z     vdW  Elec       q    Type
REMARK                         _______ _______ _______ _____ _____    ______ ____
ROOT
ATOM      1  C   UNK A  0        3.396   1.616   0.012  0.00  0.00    +0.260 C 
ATOM      2  O   UNK A  0        3.985   1.221  -1.242  0.00  0.00    -0.350 OA
ATOM      3  C   UNK A  0        3.009   0.410  -1.930  0.00  0.00    +0.220 C 
ATOM      4  C   UNK A  0        2.394  -0.454  -0.800  0.00  0.00    +0.040 C 
ATOM      5  C   UNK A  0        2.358   0.541   0.386  0.00  0.00    -0.030 C 
ENDROOT
BRANCH   1  10
ATOM      6  N   UNK A  0        4.478   2.553   2.123  0.00  0.00    -0.310 N 
ATOM      7  N   UNK A  0        5.632   2.292   2.873  0.00  0.00    -0.260 NA
ATOM      8  C   UNK A  0        6.286   1.318   2.292  0.00  0.00    +0.230 A 
ATOM      9  C   UNK A  0        5.568   0.923   1.158  0.00  0.00    -0.080 A 
ATOM     10  C   UNK A  0        4.459   1.695   1.078  0.00  0.00    +0.070 A 
BRANCH   6  16
ATOM     11  C   UNK A  0        2.970   3.624   3.687  0.00  0.00    +0.140 A 
ATOM     12  C   UNK A  0        2.016   4.591   3.962  0.00  0.00    -0.060 A 
ATOM     13  C   UNK A  0        1.604   5.459   2.967  0.00  0.00    +0.060 A 
ATOM     14  C   UNK A  0        2.142   5.365   1.696  0.00  0.00    +0.010 A 
ATOM     15  C   UNK A  0        3.098   4.407   1.416  0.00  0.00    +0.060 A 
ATOM     16  C   UNK A  0        3.512   3.530   2.407  0.00  0.00    +0.110 A 
BRANCH  11  18
ATOM     17  C   UNK A  0        2.777   2.926   5.951  0.00  0.00    +0.250 C 
ATOM     18  O   UNK A  0        3.376   2.770   4.663  0.00  0.00    -0.300 OA
ENDBRANCH  11  18
ENDBRANCH   6  16
ENDBRANCH   1  10
BRANCH   5  19
ATOM     19  C   UNK A  0        0.988   1.154   0.518  0.00  0.00    +0.520 C 
ATOM     20  N   ALA A  1        0.095   0.629   1.380  0.00  0.00    -0.720 N 
ATOM     21  H   ALA A  1        0.334  -0.143   1.915  0.00  0.00    +0.410 HD
ATOM     22  O   UNK A  0        0.688   2.120  -0.152  0.00  0.00    -0.530 OA
BRANCH  20  23
ATOM     23  CA  ALA A  1       -1.240   1.222   1.504  0.00  0.00    +0.240 C 
ATOM     24  CB  ALA A  1       -1.191   2.383   2.499  0.00  0.00    +0.020 C 
BRANCH  23  25
ATOM     25  C   ALA A  1       -2.224   0.162   2.004  0.00  0.00    +0.180 C 
BRANCH  25  26
ATOM     26  O   ALA A  1       -1.863  -0.236   3.328  0.00  0.00    -0.570 OA
ATOM     27  H   ALA A  1       -2.445  -0.907   3.709  0.00  0.00    +0.380 HD
ENDBRANCH  25  26
ENDBRANCH  23  25
ENDBRANCH  20  23
ENDBRANCH   5  19
TORSDOF 7
