REMARK  Name = ZINCrg00000SjSAv.0
REMARK                            x       y       z     vdW  Elec       q    Type
REMARK                         _______ _______ _______ _____ _____    ______ ____
ROOT
ATOM      1  N   LIG    1       -0.698   1.558   1.213  0.00  0.00    -0.740 N 
ATOM      2  H   LIG    1       -1.495   2.106   1.135  0.00  0.00    +0.390 HD
ATOM      3  C   LIG    1       -0.222   1.232   2.431  0.00  0.00    +0.720 C 
ATOM      4  N   LIG    1       -0.853   1.667   3.540  0.00  0.00    -0.640 N 
ATOM      5  C   LIG    1       -2.065   2.499   3.566  0.00  0.00    +0.240 C 
ATOM      6  C   LIG    1       -2.405   2.767   5.047  0.00  0.00    +0.050 C 
ATOM      7  C   LIG    1       -1.046   2.544   5.762  0.00  0.00    +0.130 C 
ATOM      8  C   LIG    1       -0.446   1.382   4.928  0.00  0.00    +0.300 C 
ATOM      9  O   LIG    1        0.777   0.546   2.530  0.00  0.00    -0.580 OA
ENDROOT
BRANCH   7  10
ATOM     10  N   LIG    1       -1.246   2.138   7.159  0.00  0.00    -0.530 NA
ATOM     11  C   LIG    1       -2.060   3.126   7.883  0.00  0.00    +0.150 C 
ATOM     12  C   LIG    1       -2.293   2.636   9.315  0.00  0.00    +0.220 C 
ATOM     13  O   LIG    1       -1.031   2.406   9.947  0.00  0.00    -0.380 OA
ATOM     14  C   LIG    1       -0.213   1.449   9.268  0.00  0.00    +0.220 C 
ATOM     15  C   LIG    1        0.041   1.927   7.837  0.00  0.00    +0.150 C 
ENDBRANCH   7  10
BRANCH   1  16
ATOM     16  C   LIG    1       -0.013   1.086   0.008  0.00  0.00    +0.290 C 
BRANCH  16  22
ATOM     17  C   LIG    1        0.029   1.203  -2.489  0.00  0.00    +0.260 C 
ATOM     18  O   LIG    1       -0.693   1.627  -3.647  0.00  0.00    -0.380 OA
ATOM     19  C   LIG    1       -1.985   1.031  -3.780  0.00  0.00    +0.220 C 
ATOM     20  C   LIG    1       -2.848   1.414  -2.574  0.00  0.00    -0.010 C 
ATOM     21  C   LIG    1       -2.147   0.962  -1.289  0.00  0.00    +0.020 C 
ATOM     22  C   LIG    1       -0.753   1.593  -1.232  0.00  0.00    -0.030 C 
BRANCH  17  28
ATOM     23  C   LIG    1        0.796   3.883  -3.844  0.00  0.00    +0.350 C 
ATOM     24  N   LIG    1        1.701   3.038  -3.062  0.00  0.00    -0.350 N 
ATOM     25  N   LIG    1        3.052   3.299  -2.799  0.00  0.00    -0.290 NA
ATOM     26  C   LIG    1        3.523   2.320  -2.071  0.00  0.00    +0.240 A 
ATOM     27  C   LIG    1        2.488   1.407  -1.843  0.00  0.00    -0.110 A 
ATOM     28  C   LIG    1        1.380   1.870  -2.467  0.00  0.00    +0.090 A 
ENDBRANCH  17  28
ENDBRANCH  16  22
ENDBRANCH   1  16
TORSDOF 4
