REMARK  Name = ZINCvU00000007Pz.0
REMARK                            x       y       z     vdW  Elec       q    Type
REMARK                         _______ _______ _______ _____ _____    ______ ____
ROOT
ATOM      1  C   LIG    1        1.202   0.717   2.791  0.00  0.00    +0.520 C 
ATOM      2  N   LIG    1        1.415   1.443   1.675  0.00  0.00    -0.610 N 
ATOM      3  C   LIG    1        2.608   1.214   0.849  0.00  0.00    +0.270 C 
ATOM      4  C   LIG    1        2.169   0.966  -0.597  0.00  0.00    +0.020 C 
ATOM      5  C   LIG    1        1.294   2.129  -1.068  0.00  0.00    -0.020 C 
ATOM      6  C   LIG    1        0.042   2.215  -0.191  0.00  0.00    +0.020 C 
ATOM      7  C   LIG    1        0.456   2.477   1.260  0.00  0.00    +0.260 C 
ATOM      8  O   LIG    1        1.955  -0.189   3.078  0.00  0.00    -0.540 OA
ENDROOT
BRANCH   1  14
ATOM      9  O   LIG    1       -1.180   2.678   8.049  0.00  0.00    -0.530 OA
ATOM     10  C   LIG    1       -1.315   1.591   7.523  0.00  0.00    +0.560 C 
ATOM     11  N   LIG    1       -1.214   1.474   6.184  0.00  0.00    -0.600 N 
ATOM     12  C   LIG    1       -1.420   0.175   5.529  0.00  0.00    +0.270 C 
ATOM     13  C   LIG    1       -0.204  -0.132   4.649  0.00  0.00    +0.040 C 
ATOM     14  C   LIG    1        0.027   1.030   3.681  0.00  0.00    -0.010 C 
ATOM     15  C   LIG    1        0.315   2.307   4.474  0.00  0.00    +0.040 C 
ATOM     16  C   LIG    1       -0.896   2.642   5.352  0.00  0.00    +0.280 C 
BRANCH  10  17
ATOM     17  C   LIG    1       -1.590   0.398   8.351  0.00  0.00    -0.120 A 
ATOM     18  C   LIG    1       -2.388  -0.633   7.851  0.00  0.00    +0.050 A 
ATOM     19  C   LIG    1       -2.637  -1.745   8.627  0.00  0.00    +0.040 A 
ATOM     20  C   LIG    1       -2.107  -1.837   9.902  0.00  0.00    -0.070 A 
ATOM     21  C   LIG    1       -1.319  -0.815  10.406  0.00  0.00    +0.050 A 
ATOM     22 BR   LIG    1       -2.460  -3.363  10.962  0.00  0.00    -0.040 Br
ATOM     23  C   LIG    1       -1.058   0.300   9.638  0.00  0.00    +0.080 A 
ENDBRANCH  10  17
ENDBRANCH   1  14
BRANCH   5  24
ATOM     24  C   LIG    1        0.882   1.902  -2.523  0.00  0.00    +0.020 C 
BRANCH  24  25
ATOM     25  C   LIG    1        0.112   3.122  -3.033  0.00  0.00    +0.060 C 
BRANCH  25  26
ATOM     26  C   LIG    1       -0.294   2.897  -4.466  0.00  0.00    -0.080 A 
ATOM     27  C   LIG    1        0.544   3.294  -5.492  0.00  0.00    +0.000 A 
ATOM     28  C   LIG    1        0.174   3.084  -6.807  0.00  0.00    +0.000 A 
ATOM     29  C   LIG    1       -1.038   2.487  -7.097  0.00  0.00    -0.010 A 
ATOM     30  C   LIG    1       -1.878   2.095  -6.072  0.00  0.00    +0.000 A 
ATOM     31  C   LIG    1       -1.506   2.300  -4.756  0.00  0.00    +0.000 A 
ENDBRANCH  25  26
ENDBRANCH  24  25
ENDBRANCH   5  24
TORSDOF 5
