REMARK  Name = ZINCrg000000tbVd.0
REMARK                            x       y       z     vdW  Elec       q    Type
REMARK                         _______ _______ _______ _____ _____    ______ ____
ROOT
ATOM      1  O   LIG    1       -5.540   9.782   0.832  0.00  0.00    -0.520 OA
ATOM      2  C   LIG    1       -4.984   9.199   1.738  0.00  0.00    +0.500 C 
ATOM      3  N   LIG    1       -4.194   8.139   1.474  0.00  0.00    -0.730 N 
ATOM      4  H   LIG    1       -3.750   7.673   2.199  0.00  0.00    +0.400 HD
ENDROOT
BRANCH   3   5
ATOM      5  C   LIG    1       -4.008   7.692   0.092  0.00  0.00    +0.340 C 
BRANCH   5   6
ATOM      6  C   LIG    1       -3.087   6.499   0.070  0.00  0.00    -0.180 A 
ATOM      7  C   LIG    1       -1.716   6.673  -0.049  0.00  0.00    +0.130 A 
ATOM      8  C   LIG    1       -0.905   5.551  -0.058  0.00  0.00    -0.030 A 
ATOM      9  C   LIG    1       -1.490   4.295   0.039  0.00  0.00    +0.360 A 
ATOM     10  N   LIG    1       -2.802   4.169   0.151  0.00  0.00    -0.500 NA
ATOM     11  C   LIG    1       -3.599   5.220   0.168  0.00  0.00    +0.330 A 
BRANCH   9  12
ATOM     12  N   LIG    1       -0.683   3.153   0.025  0.00  0.00    -0.420 N 
ATOM     13  C   LIG    1       -1.114   1.850   0.017  0.00  0.00    +0.150 A 
ATOM     14  C   LIG    1       -0.013   1.076   0.008  0.00  0.00    +0.150 A 
ATOM     15  N   LIG    1        1.063   1.877   0.002  0.00  0.00    -0.470 NA
ATOM     16  C   LIG    1        0.675   3.123   0.012  0.00  0.00    +0.400 A 
ENDBRANCH   9  12
ENDBRANCH   5   6
ENDBRANCH   3   5
BRANCH   2  17
ATOM     17  C   LIG    1       -5.176   9.659   3.160  0.00  0.00    +0.330 C 
BRANCH  17  18
ATOM     18  N   LIG    1       -6.071  10.819   3.182  0.00  0.00    -0.580 N 
ATOM     19  C   LIG    1       -5.631  12.103   3.095  0.00  0.00    +0.550 C 
ATOM     20  C   LIG    1       -6.847  12.937   2.833  0.00  0.00    +0.000 C 
ATOM     21  C   LIG    1       -6.935  14.339   3.397  0.00  0.00    +0.060 C 
ATOM     22  C   LIG    1       -8.313  14.886   2.974  0.00  0.00    +0.020 C 
ATOM     23  C   LIG    1       -9.452  13.999   3.465  0.00  0.00    +0.020 C 
ATOM     24  C   LIG    1       -9.261  12.540   3.064  0.00  0.00    +0.050 C 
ATOM     25  C   LIG    1       -7.917  12.097   3.591  0.00  0.00    -0.010 C 
ATOM     26  O   LIG    1       -4.488  12.492   3.205  0.00  0.00    -0.470 OA
ATOM     27  C   LIG    1       -7.423  10.717   3.296  0.00  0.00    +0.550 C 
ATOM     28  O   LIG    1       -8.091   9.711   3.182  0.00  0.00    -0.460 OA
ENDBRANCH  17  18
ENDBRANCH   2  17
TORSDOF 5
