REMARK  Name = ZINCbu0000000prK.0
REMARK                            x       y       z     vdW  Elec       q    Type
REMARK                         _______ _______ _______ _____ _____    ______ ____
ROOT
ATOM      1  C   LIG    1       -0.742   1.585  -1.213  0.00  0.00    -0.160 A 
ATOM      2  C   LIG    1       -0.215   2.624  -1.956  0.00  0.00    +0.080 A 
ATOM      3  C   LIG    1       -0.883   3.083  -3.076  0.00  0.00    +0.040 A 
ATOM      4  C   LIG    1       -2.079   2.502  -3.453  0.00  0.00    +0.080 A 
ATOM      5  C   LIG    1       -2.608   1.462  -2.711  0.00  0.00    +0.050 A 
ATOM      6  C   LIG    1       -1.936   0.999  -1.594  0.00  0.00    -0.030 A 
ATOM      7 CL   LIG    1       -2.595  -0.312  -0.666  0.00  0.00    -0.060 Cl
ENDROOT
BRANCH   1   8
ATOM      8  C   LIG    1       -0.013   1.086   0.008  0.00  0.00    +0.330 C 
BRANCH   8   9
ATOM      9  N   LIG    1       -0.700   1.560   1.217  0.00  0.00    -0.510 N 
ATOM     10  H   LIG    1       -1.647   1.210   1.224  0.00  0.00    +0.420 HD
ATOM     11  H   LIG    1       -0.714   2.568   1.222  0.00  0.00    +0.430 HD
BRANCH   9  13
ATOM     12  C   LIG    1       -0.706   1.566   3.666  0.00  0.00    +0.080 C 
ATOM     13  C   LIG    1        0.010   1.073   2.407  0.00  0.00    +0.250 C 
ENDBRANCH   9  13
ENDBRANCH   8   9
ENDBRANCH   1   8
TORSDOF 3
