REMARK  Name = ZINCpk00000xI0yU.0
REMARK                            x       y       z     vdW  Elec       q    Type
REMARK                         _______ _______ _______ _____ _____    ______ ____
ROOT
ATOM      1  C   LIG    1       -3.792  -1.659  -2.443  0.00  0.00    +0.140 C 
ATOM      2  C   LIG    1       -2.991  -1.537  -3.713  0.00  0.00    -0.110 A 
ATOM      3  C   LIG    1       -3.587  -1.736  -4.923  0.00  0.00    +0.140 A 
ATOM      4  C   LIG    1       -2.828  -1.622  -6.096  0.00  0.00    +0.010 A 
ATOM      5  C   LIG    1       -1.512  -1.319  -6.025  0.00  0.00    +0.290 A 
ATOM      6  N   LIG    1       -0.905  -1.123  -4.820  0.00  0.00    -0.440 N 
ATOM      7  C   LIG    1        0.415  -0.833  -4.786  0.00  0.00    +0.550 A 
ATOM      8  C   LIG    1        1.035  -0.644  -3.525  0.00  0.00    -0.360 A 
ATOM      9  C   LIG    1        0.232  -0.721  -2.361  0.00  0.00    +0.520 A 
ATOM     10  N   LIG    1        0.804  -0.475  -1.130  0.00  0.00    -0.490 N 
ATOM     11  C   LIG    1        2.170  -0.698  -1.004  0.00  0.00    +0.470 A 
ATOM     12  C   LIG    1        3.013  -0.377  -2.176  0.00  0.00    -0.190 A 
ATOM     13  N   LIG    1        2.687  -1.172   0.101  0.00  0.00    -0.720 NA
ATOM     14  H   LIG    1        3.643  -1.320   0.165  0.00  0.00    +0.360 HD
ATOM     15  N   LIG    1       -1.053  -1.008  -2.470  0.00  0.00    -0.560 NA
ATOM     16  C   LIG    1        2.409  -0.376  -3.428  0.00  0.00    +0.270 A 
ATOM     17  O   LIG    1        1.057  -0.734  -5.817  0.00  0.00    -0.500 OA
ATOM     18  C   LIG    1       -1.622  -1.218  -3.659  0.00  0.00    +0.450 A 
ENDROOT
BRANCH  12  19
ATOM     19  C   LIG    1        4.405  -0.077  -2.025  0.00  0.00    +0.270 C 
ATOM     20  N   LIG    1        5.510   0.161  -1.905  0.00  0.00    -0.420 NA
ENDBRANCH  12  19
BRANCH  10  21
ATOM     21  C   LIG    1        0.002  -0.004   0.002  0.00  0.00    +0.330 C 
BRANCH  21  22
ATOM     22  C   LIG    1       -0.019   1.526   0.010  0.00  0.00    +0.140 C 
ATOM     23  C   LIG    1       -0.759   2.033   1.267  0.00  0.00    +0.020 C 
ATOM     24  C   LIG    1       -1.558   3.244   0.710  0.00  0.00    +0.010 C 
ATOM     25  C   LIG    1       -1.886   2.749  -0.721  0.00  0.00    +0.190 C 
ATOM     26  O   LIG    1       -0.728   2.008  -1.137  0.00  0.00    -0.370 OA
ENDBRANCH  21  22
ENDBRANCH  10  21
TORSDOF 3
