REMARK  Name = ZINCpe000027pGVl.0
REMARK                            x       y       z     vdW  Elec       q    Type
REMARK                         _______ _______ _______ _____ _____    ______ ____
ROOT
ATOM      1  C   LIG    1       -3.634   0.979  -0.326  0.00  0.00    +0.550 C 
ATOM      2  N   LIG    1       -2.380   0.767   0.120  0.00  0.00    -0.710 N 
ATOM      3  H   LIG    1       -2.142  -0.088   0.509  0.00  0.00    +0.410 HD
ATOM      4  O   LIG    1       -3.933   2.053  -0.814  0.00  0.00    -0.540 OA
ENDROOT
BRANCH   1   6
ATOM      5  C   LIG    1       -5.892   0.128  -0.667  0.00  0.00    +0.120 C 
ATOM      6  C   LIG    1       -4.639  -0.084  -0.222  0.00  0.00    -0.070 C 
BRANCH   5  10
ATOM      7  C   LIG    1       -8.801  -2.952  -0.367  0.00  0.00    -0.120 A 
ATOM      8  C   LIG    1       -9.145  -1.719  -0.927  0.00  0.00    +0.080 A 
ATOM      9  C   LIG    1       -8.203  -0.721  -1.025  0.00  0.00    +0.030 A 
ATOM     10  C   LIG    1       -6.901  -0.940  -0.563  0.00  0.00    -0.040 A 
ATOM     11  C   LIG    1       -6.556  -2.176  -0.006  0.00  0.00    +0.020 A 
ATOM     12  C   LIG    1       -7.501  -3.172   0.095  0.00  0.00    +0.080 A 
BRANCH   7  13
ATOM     13  C   LIG    1       -9.813  -4.024  -0.262  0.00  0.00    +0.510 C 
ATOM     14  O   LIG    1      -10.944  -3.833  -0.663  0.00  0.00    -0.500 OA
BRANCH  13  16
ATOM     15  C   LIG    1      -10.527  -6.218   0.349  0.00  0.00    +0.290 C 
ATOM     16  O   LIG    1       -9.482  -5.212   0.279  0.00  0.00    -0.350 OA
ENDBRANCH  13  16
ENDBRANCH   7  13
ENDBRANCH   5  10
ENDBRANCH   1   6
BRANCH   2  17
ATOM     17  C   LIG    1       -1.377   1.830   0.016  0.00  0.00    +0.240 C 
ATOM     18  C   LIG    1       -1.492   2.760   1.225  0.00  0.00    +0.060 C 
BRANCH  17  19
ATOM     19  C   LIG    1        0.001   1.218  -0.018  0.00  0.00    +0.520 C 
ATOM     20  N   LIG    1        1.046   1.937  -0.475  0.00  0.00    -0.610 N 
ATOM     21  C   LIG    1        2.415   1.402  -0.417  0.00  0.00    +0.260 C 
ATOM     22  C   LIG    1        3.047   1.551  -1.810  0.00  0.00    +0.220 C 
ATOM     23  O   LIG    1        2.913   2.907  -2.243  0.00  0.00    -0.380 OA
ATOM     24  C   LIG    1        1.560   3.341  -2.399  0.00  0.00    +0.220 C 
ATOM     25  C   LIG    1        0.851   3.281  -1.041  0.00  0.00    +0.260 C 
ATOM     26  O   LIG    1        0.168   0.079   0.361  0.00  0.00    -0.530 OA
ENDBRANCH  17  19
ENDBRANCH   2  17
TORSDOF 6
