REMARK  Name = ZINCrD000000C8lk.0
REMARK                            x       y       z     vdW  Elec       q    Type
REMARK                         _______ _______ _______ _____ _____    ______ ____
ROOT
ATOM      1  O   LIG    1       -0.872   1.641   1.922  0.00  0.00    -0.490 OA
ATOM      2  C   LIG    1       -1.206   1.530   0.762  0.00  0.00    +0.510 C 
ATOM      3  N   LIG    1       -2.492   1.726   0.409  0.00  0.00    -0.660 N 
ATOM      4  H   LIG    1       -2.755   1.665  -0.522  0.00  0.00    +0.410 HD
ENDROOT
BRANCH   3   5
ATOM      5  C   LIG    1       -3.449   2.017   1.388  0.00  0.00    +0.150 A 
ATOM      6  C   LIG    1       -3.061   2.623   2.572  0.00  0.00    +0.030 A 
ATOM      7  C   LIG    1       -4.007   2.909   3.537  0.00  0.00    +0.020 A 
ATOM      8  C   LIG    1       -5.331   2.588   3.317  0.00  0.00    -0.020 A 
ATOM      9  C   LIG    1       -5.726   1.979   2.131  0.00  0.00    -0.060 A 
ATOM     10  C   LIG    1       -7.186   1.651   1.965  0.00  0.00    +0.070 C 
ATOM     11  C   LIG    1       -7.518   1.405   0.494  0.00  0.00    +0.020 C 
ATOM     12  C   LIG    1       -6.519   0.385  -0.063  0.00  0.00    +0.020 C 
ATOM     13  C   LIG    1       -5.147   1.052  -0.148  0.00  0.00    +0.060 C 
ATOM     14  C   LIG    1       -4.790   1.701   1.163  0.00  0.00    -0.110 A 
ENDBRANCH   3   5
BRANCH   2  15
ATOM     15  C   LIG    1       -0.184   1.173  -0.286  0.00  0.00    +0.230 C 
ATOM     16  C   LIG    1        0.284  -0.293  -0.105  0.00  0.00    +0.060 C 
ATOM     17  C   LIG    1        1.681  -0.260  -0.780  0.00  0.00    +0.050 C 
ATOM     18  C   LIG    1        2.205   1.147  -0.419  0.00  0.00    +0.270 C 
ATOM     19  N   LIG    1        1.035   1.982  -0.110  0.00  0.00    -0.990 NA
BRANCH  19  20
ATOM     20  S   LIG    1        1.080   3.570   0.357  0.00  0.00    +2.700 S 
ATOM     21  O   LIG    1        2.293   3.743   1.077  0.00  0.00    -0.940 OA
ATOM     22  O   LIG    1       -0.198   3.864   0.905  0.00  0.00    -0.930 OA
BRANCH  20  23
ATOM     23  C   LIG    1        1.228   4.540  -1.107  0.00  0.00    -0.680 A 
ATOM     24  C   LIG    1        2.476   4.787  -1.649  0.00  0.00    +0.120 A 
ATOM     25  C   LIG    1        2.592   5.545  -2.799  0.00  0.00    +0.000 A 
ATOM     26  C   LIG    1        1.461   6.063  -3.403  0.00  0.00    +0.070 A 
ATOM     27  C   LIG    1        0.214   5.820  -2.858  0.00  0.00    -0.010 A 
ATOM     28  C   LIG    1        0.098   5.059  -1.710  0.00  0.00    +0.120 A 
ENDBRANCH  20  23
ENDBRANCH  19  20
ENDBRANCH   2  15
TORSDOF 4
