REMARK  Name = ZINCnE000004vUtt.2
REMARK                            x       y       z     vdW  Elec       q    Type
REMARK                         _______ _______ _______ _____ _____    ______ ____
ROOT
ATOM      1  N   LIG    1        4.191   2.182   1.354  0.00  0.00    -0.550 NA
ATOM      2  C   LIG    1        3.298   2.995   2.163  0.00  0.00    +0.240 C 
ATOM      3  C   LIG    1        3.143   4.396   1.564  0.00  0.00    +0.030 C 
ATOM      4  C   LIG    1        4.290   5.254   2.056  0.00  0.00    -0.100 A 
ATOM      5  C   LIG    1        4.042   6.282   2.949  0.00  0.00    -0.020 A 
ATOM      6  C   LIG    1        5.084   7.067   3.400  0.00  0.00    +0.030 A 
ATOM      7  C   LIG    1        6.385   6.821   2.953  0.00  0.00    -0.130 A 
ATOM      8  C   LIG    1        6.623   5.779   2.051  0.00  0.00    +0.040 A 
ATOM      9  C   LIG    1        5.569   5.006   1.613  0.00  0.00    -0.100 A 
ATOM     10  C   LIG    1        5.822   3.876   0.636  0.00  0.00    +0.040 C 
ATOM     11  C   LIG    1        5.598   2.549   1.367  0.00  0.00    +0.230 C 
ENDROOT
BRANCH   7  12
ATOM     12  C   LIG    1        7.503   7.657   3.432  0.00  0.00    +0.520 C 
ATOM     13  O   LIG    1        7.292   8.567   4.221  0.00  0.00    -0.690 OA
ATOM     14  O   LIG    1        8.640   7.439   3.040  0.00  0.00    -0.690 OA
ENDBRANCH   7  12
BRANCH   1  15
ATOM     15  C   LIG    1        3.691   2.059  -0.022  0.00  0.00    +0.260 C 
BRANCH  15  19
ATOM     16  C   LIG    1        3.476  -2.788  -1.285  0.00  0.00    +0.110 C 
ATOM     17  C   LIG    1        4.193  -1.462  -1.267  0.00  0.00    -0.010 A 
ATOM     18  C   LIG    1        3.620  -0.353  -0.666  0.00  0.00    -0.010 A 
ATOM     19  C   LIG    1        4.305   0.847  -0.673  0.00  0.00    +0.160 A 
ATOM     20  N   LIG    1        5.490   0.944  -1.244  0.00  0.00    -0.470 NA
ATOM     21  C   LIG    1        6.067  -0.089  -1.826  0.00  0.00    +0.300 A 
ATOM     22  C   LIG    1        5.441  -1.322  -1.857  0.00  0.00    -0.160 A 
ATOM     23 BR   LIG    1        6.276  -2.798  -2.695  0.00  0.00    -0.040 Br
ENDBRANCH  15  19
ENDBRANCH   1  15
TORSDOF 3
