REMARK  Name = ZINCqH0000003RZ3.0
REMARK                            x       y       z     vdW  Elec       q    Type
REMARK                         _______ _______ _______ _____ _____    ______ ____
ROOT
ATOM      1  C   LIG    1        3.751  -0.910  -0.149  0.00  0.00    +0.190 A 
ATOM      2  C   LIG    1        4.958  -0.223  -0.160  0.00  0.00    +0.060 A 
ATOM      3  C   LIG    1        6.147  -0.918  -0.249  0.00  0.00    +0.080 A 
ATOM      4  C   LIG    1        6.136  -2.303  -0.342  0.00  0.00    +0.130 A 
ATOM      5  C   LIG    1        4.929  -2.990  -0.337  0.00  0.00    +0.070 A 
ATOM      6  C   LIG    1        3.740  -2.296  -0.241  0.00  0.00    -0.200 A 
ENDROOT
BRANCH   4   7
ATOM      7  N   LIG    1        7.343  -3.008  -0.439  0.00  0.00    -0.670 N 
ATOM      8  H   LIG    1        7.393  -3.812  -0.979  0.00  0.00    +0.410 HD
ATOM      9  C   LIG    1        8.435  -2.569   0.218  0.00  0.00    +0.510 C 
ATOM     10  O   LIG    1        8.396  -1.520   0.826  0.00  0.00    -0.520 OA
ATOM     11  C   LIG    1        9.704  -3.381   0.197  0.00  0.00    +0.110 C 
ENDBRANCH   4   7
BRANCH   1  13
ATOM     12  C   LIG    1        2.420   1.002  -0.638  0.00  0.00    +0.570 C 
ATOM     13  N   LIG    1        2.545  -0.205  -0.051  0.00  0.00    -0.680 N 
ATOM     14  H   LIG    1        1.800  -0.586   0.439  0.00  0.00    +0.410 HD
ATOM     15  O   LIG    1        3.379   1.516  -1.181  0.00  0.00    -0.490 OA
BRANCH  12  21
ATOM     16  C   LIG    1        0.976   2.956  -1.229  0.00  0.00    +0.380 A 
ATOM     17  N   LIG    1       -0.191   3.577  -1.211  0.00  0.00    -0.540 NA
ATOM     18  C   LIG    1       -1.251   3.048  -0.632  0.00  0.00    +0.350 A 
ATOM     19  C   LIG    1       -1.190   1.810  -0.018  0.00  0.00    -0.070 A 
ATOM     20  C   LIG    1        0.009   1.118  -0.001  0.00  0.00    +0.140 A 
ATOM     21  C   LIG    1        1.120   1.698  -0.622  0.00  0.00    -0.220 A 
BRANCH  16  22
ATOM     22  O   LIG    1        2.039   3.536  -1.835  0.00  0.00    -0.270 OA
BRANCH  22  24
ATOM     23  C   LIG    1        3.129   5.308  -3.064  0.00  0.00    +0.070 C 
ATOM     24  C   LIG    1        1.825   4.816  -2.433  0.00  0.00    +0.200 C 
ENDBRANCH  22  24
ENDBRANCH  16  22
ENDBRANCH  12  21
ENDBRANCH   1  13
BRANCH   6  25
ATOM     25  C   LIG    1        2.431  -3.041  -0.236  0.00  0.00    +0.510 C 
ATOM     26  F   LIG    1        1.653  -2.624  -1.321  0.00  0.00    -0.170 F 
ATOM     27  F   LIG    1        1.748  -2.776   0.956  0.00  0.00    -0.180 F 
ATOM     28  F   LIG    1        2.675  -4.415  -0.338  0.00  0.00    -0.170 F 
ENDBRANCH   6  25
TORSDOF 6
