REMARK  Name = ZINCrH000004j3cK.1
REMARK                            x       y       z     vdW  Elec       q    Type
REMARK                         _______ _______ _______ _____ _____    ______ ____
ROOT
ATOM      1  C   LIG    1       -0.994   2.107  -0.250  0.00  0.00    -0.190 A 
ATOM      2  C   LIG    1       -1.056   3.470  -0.232  0.00  0.00    +0.060 A 
ATOM      3  C   LIG    1        0.101   4.222  -0.462  0.00  0.00    -0.290 A 
ATOM      4  C   LIG    1        1.326   3.574  -0.706  0.00  0.00    +0.200 A 
ATOM      5  O   LIG    1        2.441   4.303  -0.927  0.00  0.00    -0.270 OA
ATOM      6  C   LIG    1        2.413   5.645  -0.922  0.00  0.00    +0.510 A 
ATOM      7  C   LIG    1        1.220   6.360  -0.685  0.00  0.00    -0.130 A 
ATOM      8  O   LIG    1        3.443   6.261  -1.127  0.00  0.00    -0.480 OA
ATOM      9  C   LIG    1        1.372   2.188  -0.715  0.00  0.00    -0.150 A 
ATOM     10  C   LIG    1        0.063   5.686  -0.455  0.00  0.00    +0.000 A 
ATOM     11  C   LIG    1        0.217   1.459  -0.485  0.00  0.00    +0.330 A 
ATOM     12  O   LIG    1        0.264   0.102  -0.494  0.00  0.00    -0.640 OA
ENDROOT
BRANCH   1  14
ATOM     13  C   LIG    1       -2.803   0.812  -1.347  0.00  0.00    +0.010 C 
ATOM     14  C   LIG    1       -2.242   1.298  -0.008  0.00  0.00    +0.060 C 
ENDBRANCH   1  14
BRANCH  10  15
ATOM     15  C   LIG    1       -1.225   6.426  -0.199  0.00  0.00    +0.320 C 
BRANCH  15  16
ATOM     16  N   LIG    1       -1.970   6.561  -1.458  0.00  0.00    -0.380 N 
ATOM     17  C   LIG    1       -2.373   5.231  -1.934  0.00  0.00    +0.330 C 
ATOM     18  H   LIG    1       -1.383   7.002  -2.151  0.00  0.00    +0.430 HD
BRANCH  16  19
ATOM     19  C   LIG    1       -3.166   7.384  -1.234  0.00  0.00    +0.290 C 
BRANCH  19  20
ATOM     20  C   LIG    1       -2.744   8.815  -0.894  0.00  0.00    +0.220 C 
BRANCH  20  21
ATOM     21  O   LIG    1       -2.082   9.395  -2.020  0.00  0.00    -0.320 OA
BRANCH  21  22
ATOM     22  C   LIG    1       -1.640  10.674  -1.884  0.00  0.00    +0.080 A 
ATOM     23  C   LIG    1       -1.839  11.355  -0.693  0.00  0.00    -0.040 A 
ATOM     24  C   LIG    1       -1.389  12.654  -0.557  0.00  0.00    +0.050 A 
ATOM     25  C   LIG    1       -0.741  13.277  -1.607  0.00  0.00    +0.030 A 
ATOM     26  C   LIG    1       -0.540  12.602  -2.797  0.00  0.00    +0.040 A 
ATOM     27  C   LIG    1       -0.983  11.299  -2.937  0.00  0.00    +0.080 A 
ATOM     28  F   LIG    1       -0.782  10.637  -4.097  0.00  0.00    -0.130 F 
ENDBRANCH  21  22
ENDBRANCH  20  21
ENDBRANCH  19  20
ENDBRANCH  16  19
ENDBRANCH  15  16
ENDBRANCH  10  15
TORSDOF 7
