REMARK  Name = ZINCrH000004j3cK.2
REMARK                            x       y       z     vdW  Elec       q    Type
REMARK                         _______ _______ _______ _____ _____    ______ ____
ROOT
ATOM      1  C   LIG    1       -1.236   2.028   0.019  0.00  0.00    -0.180 A 
ATOM      2  C   LIG    1       -1.271   3.392   0.033  0.00  0.00    +0.050 A 
ATOM      3  C   LIG    1       -0.075   4.119   0.025  0.00  0.00    -0.290 A 
ATOM      4  C   LIG    1        1.160   3.443   0.009  0.00  0.00    +0.200 A 
ATOM      5  O   LIG    1        2.311   4.148   0.003  0.00  0.00    -0.270 OA
ATOM      6  C   LIG    1        2.312   5.490   0.010  0.00  0.00    +0.510 A 
ATOM      7  C   LIG    1        1.112   6.231   0.025  0.00  0.00    -0.140 A 
ATOM      8  O   LIG    1        3.375   6.083   0.003  0.00  0.00    -0.490 OA
ATOM      9  C   LIG    1        1.177   2.056   0.002  0.00  0.00    -0.150 A 
ATOM     10  C   LIG    1       -0.082   5.583   0.033  0.00  0.00    +0.000 A 
ATOM     11  C   LIG    1       -0.016   1.353   0.009  0.00  0.00    +0.330 A 
ATOM     12  O   LIG    1        0.002  -0.004   0.002  0.00  0.00    -0.640 OA
ENDROOT
BRANCH   1  14
ATOM     13  C   LIG    1       -2.837   0.775  -1.401  0.00  0.00    +0.010 C 
ATOM     14  C   LIG    1       -2.524   1.246   0.021  0.00  0.00    +0.060 C 
ENDBRANCH   1  14
BRANCH  10  15
ATOM     15  C   LIG    1       -1.379   6.350   0.049  0.00  0.00    +0.320 C 
BRANCH  15  16
ATOM     16  N   LIG    1       -1.875   6.503  -1.325  0.00  0.00    -0.390 N 
ATOM     17  C   LIG    1       -0.940   7.336  -2.093  0.00  0.00    +0.320 C 
ATOM     18  H   LIG    1       -1.950   5.595  -1.759  0.00  0.00    +0.440 HD
BRANCH  16  19
ATOM     19  C   LIG    1       -3.196   7.145  -1.301  0.00  0.00    +0.290 C 
BRANCH  19  20
ATOM     20  C   LIG    1       -3.766   7.191  -2.720  0.00  0.00    +0.230 C 
BRANCH  20  21
ATOM     21  O   LIG    1       -4.001   5.860  -3.183  0.00  0.00    -0.320 OA
BRANCH  21  22
ATOM     22  C   LIG    1       -4.512   5.723  -4.436  0.00  0.00    +0.080 A 
ATOM     23  C   LIG    1       -4.780   6.846  -5.202  0.00  0.00    -0.040 A 
ATOM     24  C   LIG    1       -5.299   6.705  -6.476  0.00  0.00    +0.050 A 
ATOM     25  C   LIG    1       -5.550   5.445  -6.986  0.00  0.00    +0.030 A 
ATOM     26  C   LIG    1       -5.284   4.322  -6.224  0.00  0.00    +0.040 A 
ATOM     27  C   LIG    1       -4.759   4.457  -4.952  0.00  0.00    +0.080 A 
ATOM     28  F   LIG    1       -4.494   3.360  -4.209  0.00  0.00    -0.120 F 
ENDBRANCH  21  22
ENDBRANCH  20  21
ENDBRANCH  19  20
ENDBRANCH  16  19
ENDBRANCH  15  16
ENDBRANCH  10  15
TORSDOF 7
