REMARK  Name = ZINCvU00000006W0.0
REMARK                            x       y       z     vdW  Elec       q    Type
REMARK                         _______ _______ _______ _____ _____    ______ ____
ROOT
ATOM      1  C   LIG    1       -0.701   2.614   1.076  0.00  0.00    -0.220 A 
ATOM      2  C   LIG    1       -1.898   2.798   0.480  0.00  0.00    +0.280 A 
ATOM      3  N   LIG    1       -2.686   3.504   1.332  0.00  0.00    -0.310 N 
ATOM      4  N   LIG    1       -1.944   3.771   2.489  0.00  0.00    -0.260 NA
ATOM      5  C   LIG    1       -0.747   3.237   2.341  0.00  0.00    +0.180 A 
ENDROOT
BRANCH   3   6
ATOM      6  C   LIG    1       -4.008   3.901   1.093  0.00  0.00    +0.160 A 
ATOM      7  C   LIG    1       -4.627   3.573  -0.106  0.00  0.00    -0.010 A 
ATOM      8  C   LIG    1       -5.932   3.962  -0.337  0.00  0.00    +0.040 A 
ATOM      9  C   LIG    1       -6.619   4.686   0.621  0.00  0.00    +0.000 A 
ATOM     10  C   LIG    1       -6.004   5.019   1.813  0.00  0.00    +0.030 A 
ATOM     11  C   LIG    1       -4.701   4.628   2.052  0.00  0.00    +0.020 A 
ENDBRANCH   3   6
BRANCH   5  12
ATOM     12  C   LIG    1        0.353   3.284   3.327  0.00  0.00    +0.050 A 
ATOM     13  C   LIG    1        0.643   4.327   4.150  0.00  0.00    -0.010 A 
ATOM     14  C   LIG    1        1.762   3.940   4.916  0.00  0.00    -0.060 A 
ATOM     15  C   LIG    1        2.095   2.694   4.527  0.00  0.00    -0.000 A 
ATOM     16  C   LIG    1        3.235   1.877   5.077  0.00  0.00    +0.170 C 
ATOM     17  O   LIG    1        1.239   2.299   3.570  0.00  0.00    -0.160 OA
ENDBRANCH   5  12
BRANCH   1  18
ATOM     18  C   LIG    1        0.477   1.878   0.492  0.00  0.00    +0.380 C 
BRANCH  18  19
ATOM     19  N   LIG    1        0.341   0.445   0.763  0.00  0.00    -0.590 N 
ATOM     20  C   LIG    1       -0.421  -0.324  -0.040  0.00  0.00    +0.550 C 
ATOM     21  O   LIG    1       -0.979   0.169  -1.002  0.00  0.00    -0.540 OA
BRANCH  20  22
ATOM     22  C   LIG    1       -0.578  -1.758   0.246  0.00  0.00    -0.090 C 
ATOM     23  C   LIG    1       -1.435  -2.488  -0.463  0.00  0.00    +0.120 C 
ENDBRANCH  20  22
BRANCH  19  24
ATOM     24  C   LIG    1        1.034  -0.154   1.907  0.00  0.00    +0.280 C 
BRANCH  24  25
ATOM     25  C   LIG    1        0.010  -0.806   2.838  0.00  0.00    +0.000 C 
BRANCH  25  26
ATOM     26  C   LIG    1       -0.938   0.264   3.384  0.00  0.00    -0.030 C 
ATOM     27  C   LIG    1       -2.417  -0.105   3.519  0.00  0.00    -0.020 C 
ATOM     28  C   LIG    1       -1.964   0.858   2.418  0.00  0.00    +0.010 C 
ENDBRANCH  25  26
BRANCH  25  29
ATOM     29  C   LIG    1        0.738  -1.484   4.001  0.00  0.00    +0.180 C 
BRANCH  29  31
ATOM     30  C   LIG    1       -1.020  -2.733   5.534  0.00  0.00    +0.000 C 
ATOM     31  C   LIG    1       -0.240  -2.179   4.854  0.00  0.00    -0.180 C 
ENDBRANCH  29  31
ENDBRANCH  25  29
ENDBRANCH  24  25
ENDBRANCH  19  24
ENDBRANCH  18  19
ENDBRANCH   1  18
TORSDOF 10
