REMARK  Name = ZINCpe000000YZr6.0
REMARK                            x       y       z     vdW  Elec       q    Type
REMARK                         _______ _______ _______ _____ _____    ______ ____
ROOT
ATOM      1  O   LIG    1        0.237   3.244  -1.902  0.00  0.00    -0.500 OA
ATOM      2  C   LIG    1        0.979   3.841  -1.151  0.00  0.00    +0.510 C 
ATOM      3  N   LIG    1        1.226   5.151  -1.348  0.00  0.00    -0.610 N 
ATOM      4  C   LIG    1        2.118   5.889  -0.444  0.00  0.00    +0.270 C 
ATOM      5  C   LIG    1        3.204   6.579  -1.283  0.00  0.00    +0.040 C 
ATOM      6  C   LIG    1        2.539   7.445  -2.355  0.00  0.00    +0.040 C 
ATOM      7  C   LIG    1        1.703   6.560  -3.283  0.00  0.00    +0.100 C 
ATOM      8  C   LIG    1        0.604   5.869  -2.469  0.00  0.00    +0.290 C 
ENDROOT
BRANCH   7   9
ATOM      9  C   LIG    1        1.074   7.410  -4.357  0.00  0.00    +0.300 A 
ATOM     10  N   LIG    1        1.560   7.616  -5.552  0.00  0.00    -0.520 NA
ATOM     11  C   LIG    1        0.740   8.418  -6.244  0.00  0.00    +0.270 A 
ATOM     12  N   LIG    1       -0.281   8.738  -5.478  0.00  0.00    -0.300 NA
ATOM     13  N   LIG    1       -0.080   8.091  -4.248  0.00  0.00    -0.480 N 
ATOM     14  H   LIG    1       -0.660   8.130  -3.471  0.00  0.00    +0.440 HD
BRANCH  11  15
ATOM     15  C   LIG    1        0.951   8.875  -7.640  0.00  0.00    -0.020 A 
ATOM     16  C   LIG    1        2.081   8.468  -8.345  0.00  0.00    +0.060 A 
ATOM     17  C   LIG    1        2.270   8.893  -9.645  0.00  0.00    +0.010 A 
ATOM     18  C   LIG    1        1.344   9.729 -10.244  0.00  0.00    +0.030 A 
ATOM     19  C   LIG    1        0.223  10.140  -9.546  0.00  0.00    +0.010 A 
ATOM     20  C   LIG    1        0.022   9.717  -8.248  0.00  0.00    +0.050 A 
ENDBRANCH  11  15
ENDBRANCH   7   9
BRANCH   2  21
ATOM     21  C   LIG    1        1.625   3.118   0.003  0.00  0.00    +0.390 C 
BRANCH  21  22
ATOM     22  N   LIG    1        1.200   1.716  -0.000  0.00  0.00    -0.310 N 
ATOM     23  C   LIG    1        2.005   0.637  -0.014  0.00  0.00    +0.400 A 
ATOM     24  N   LIG    1        1.223  -0.415  -0.012  0.00  0.00    -0.300 NA
ATOM     25  N   LIG    1        0.002  -0.004   0.002  0.00  0.00    -0.070 NA
ATOM     26  N   LIG    1       -0.015   1.283   0.009  0.00  0.00    -0.070 NA
ENDBRANCH  21  22
ENDBRANCH   2  21
TORSDOF 4
