REMARK  Name = ZINCpe000000YZr6.1
REMARK                            x       y       z     vdW  Elec       q    Type
REMARK                         _______ _______ _______ _____ _____    ______ ____
ROOT
ATOM      1  O   LIG    1        0.237   3.244  -1.902  0.00  0.00    -0.500 OA
ATOM      2  C   LIG    1        0.979   3.841  -1.151  0.00  0.00    +0.510 C 
ATOM      3  N   LIG    1        1.226   5.151  -1.348  0.00  0.00    -0.610 N 
ATOM      4  C   LIG    1        2.122   5.888  -0.447  0.00  0.00    +0.270 C 
ATOM      5  C   LIG    1        3.205   6.577  -1.284  0.00  0.00    +0.030 C 
ATOM      6  C   LIG    1        2.540   7.444  -2.356  0.00  0.00    +0.040 C 
ATOM      7  C   LIG    1        1.704   6.559  -3.283  0.00  0.00    +0.110 C 
ATOM      8  C   LIG    1        0.609   5.868  -2.473  0.00  0.00    +0.290 C 
ENDROOT
BRANCH   7   9
ATOM      9  C   LIG    1        1.075   7.409  -4.358  0.00  0.00    +0.190 A 
ATOM     10  N   LIG    1        1.552   7.617  -5.556  0.00  0.00    -0.280 NA
ATOM     11  N   LIG    1        0.766   8.390  -6.215  0.00  0.00    -0.270 NA
ATOM     12  C   LIG    1       -0.263   8.719  -5.466  0.00  0.00    +0.230 A 
ATOM     13  N   LIG    1       -0.095   8.095  -4.260  0.00  0.00    -0.580 N 
ATOM     14  H   LIG    1       -0.687   8.136  -3.493  0.00  0.00    +0.430 HD
BRANCH  12  15
ATOM     15  C   LIG    1       -1.392   9.593  -5.856  0.00  0.00    -0.020 A 
ATOM     16  C   LIG    1       -2.423   9.850  -4.952  0.00  0.00    +0.010 A 
ATOM     17  C   LIG    1       -3.471  10.669  -5.320  0.00  0.00    +0.010 A 
ATOM     18  C   LIG    1       -3.505  11.226  -6.586  0.00  0.00    +0.030 A 
ATOM     19  C   LIG    1       -2.489  10.971  -7.488  0.00  0.00    +0.010 A 
ATOM     20  C   LIG    1       -1.433  10.158  -7.131  0.00  0.00    +0.070 A 
ENDBRANCH  12  15
ENDBRANCH   7   9
BRANCH   2  21
ATOM     21  C   LIG    1        1.625   3.118   0.003  0.00  0.00    +0.390 C 
BRANCH  21  22
ATOM     22  N   LIG    1        1.200   1.716  -0.000  0.00  0.00    -0.310 N 
ATOM     23  C   LIG    1        2.005   0.637  -0.014  0.00  0.00    +0.400 A 
ATOM     24  N   LIG    1        1.223  -0.415  -0.012  0.00  0.00    -0.300 NA
ATOM     25  N   LIG    1        0.002  -0.004   0.002  0.00  0.00    -0.070 NA
ATOM     26  N   LIG    1       -0.015   1.283   0.009  0.00  0.00    -0.070 NA
ENDBRANCH  21  22
ENDBRANCH   2  21
TORSDOF 4
