REMARK  Name = ZINCpk00000y6viL.0
REMARK                            x       y       z     vdW  Elec       q    Type
REMARK                         _______ _______ _______ _____ _____    ______ ____
ROOT
ATOM      1  C   LIG    1       -1.455  -7.074  -0.358  0.00  0.00    +0.210 C 
ATOM      2  C   LIG    1       -0.091  -6.550  -0.879  0.00  0.00    +0.090 C 
ATOM      3  C   LIG    1        0.023  -5.193  -0.142  0.00  0.00    +0.260 C 
ATOM      4  N   LIG    1       -1.352  -4.662  -0.113  0.00  0.00    -0.610 N 
ATOM      5  C   LIG    1       -1.690  -3.362  -0.001  0.00  0.00    +0.580 C 
ATOM      6  O   LIG    1       -2.860  -3.043   0.080  0.00  0.00    -0.530 OA
ATOM      7  C   LIG    1       -2.293  -5.785  -0.222  0.00  0.00    +0.270 C 
ENDROOT
BRANCH   5   8
ATOM      8  C   LIG    1       -0.638  -2.325   0.023  0.00  0.00    -0.140 A 
ATOM      9  C   LIG    1       -0.922  -1.032  -0.434  0.00  0.00    +0.090 A 
ATOM     10  C   LIG    1        0.041  -0.065  -0.417  0.00  0.00    +0.010 A 
ATOM     11  C   LIG    1        1.315  -0.357   0.057  0.00  0.00    +0.070 A 
ATOM     12  N   LIG    1        2.472   0.377   0.200  0.00  0.00    -0.600 N 
ATOM     13  H   LIG    1        2.592   1.312  -0.030  0.00  0.00    +0.430 HD
ATOM     14  C   LIG    1        3.416  -0.450   0.726  0.00  0.00    +0.490 A 
ATOM     15  N   LIG    1        2.918  -1.636   0.913  0.00  0.00    -0.490 NA
ATOM     16  C   LIG    1        1.618  -1.651   0.519  0.00  0.00    +0.030 A 
ATOM     17  C   LIG    1        0.632  -2.636   0.500  0.00  0.00    +0.110 A 
ENDBRANCH   5   8
BRANCH   1  20
ATOM     18  N   LIG    1       -2.935  -9.761  -2.309  0.00  0.00    -0.280 N 
ATOM     19  C   LIG    1       -2.400  -9.316  -1.148  0.00  0.00    +0.160 A 
ATOM     20  C   LIG    1       -2.080  -8.017  -1.354  0.00  0.00    -0.050 A 
ATOM     21  N   LIG    1       -2.422  -7.737  -2.616  0.00  0.00    -0.250 NA
ATOM     22  N   LIG    1       -2.925  -8.791  -3.155  0.00  0.00    -0.080 NA
BRANCH  18  24
ATOM     23  C   LIG    1       -2.268 -12.018  -2.974  0.00  0.00    +0.060 C 
ATOM     24  C   LIG    1       -3.433 -11.115  -2.561  0.00  0.00    +0.250 C 
ATOM     25  C   LIG    1       -4.079 -11.667  -1.289  0.00  0.00    +0.060 C 
ENDBRANCH  18  24
ENDBRANCH   1  20
BRANCH   1  26
ATOM     26  O   LIG    1       -1.300  -7.712   0.911  0.00  0.00    -0.540 OA
ATOM     27  H   LIG    1       -2.124  -8.057   1.281  0.00  0.00    +0.380 HD
ENDBRANCH   1  26
TORSDOF 4
