REMARK  Name = ZINCkj00000wDeWn.0
REMARK                            x       y       z     vdW  Elec       q    Type
REMARK                         _______ _______ _______ _____ _____    ______ ____
ROOT
ATOM      1  N   LIG    1       -0.092   1.501   0.045  0.00  0.00    -0.370 N 
ATOM      2  C   LIG    1       -0.101   0.043  -0.128  0.00  0.00    +0.240 C 
ATOM      3  C   LIG    1        0.647  -0.326  -1.410  0.00  0.00    +0.050 C 
ATOM      4  C   LIG    1        2.093   0.169  -1.312  0.00  0.00    +0.050 C 
ATOM      5  C   LIG    1        2.089   1.679  -1.057  0.00  0.00    +0.080 C 
ATOM      6  C   LIG    1        1.287   1.974   0.212  0.00  0.00    +0.160 C 
ATOM      7  H   LIG    1       -0.501   1.938  -0.767  0.00  0.00    +0.430 HD
ENDROOT
BRANCH   1   8
ATOM      8  C   LIG    1       -0.878   1.856   1.235  0.00  0.00    +0.230 C 
BRANCH   8   9
ATOM      9  C   LIG    1       -2.349   1.513   0.996  0.00  0.00    +0.310 C 
BRANCH   9  15
ATOM     10  O   LIG    1       -3.657   3.998   1.607  0.00  0.00    -0.520 OA
ATOM     11  C   LIG    1       -3.708   3.066   2.381  0.00  0.00    +0.520 C 
ATOM     12  C   LIG    1       -4.426   3.083   3.712  0.00  0.00    +0.060 C 
ATOM     13  C   LIG    1       -3.852   1.864   4.470  0.00  0.00    +0.060 C 
ATOM     14  C   LIG    1       -3.396   0.957   3.303  0.00  0.00    +0.260 C 
ATOM     15  N   LIG    1       -3.133   1.867   2.182  0.00  0.00    -0.620 N 
ENDBRANCH   9  15
ENDBRANCH   8   9
ENDBRANCH   1   8
BRANCH   6  16
ATOM     16  C   LIG    1        1.931   1.257   1.400  0.00  0.00    +0.340 C 
BRANCH  16  17
ATOM     17  N   LIG    1        3.251   1.837   1.663  0.00  0.00    -0.390 N 
ATOM     18  C   LIG    1        3.664   2.373   2.831  0.00  0.00    +0.240 A 
ATOM     19  C   LIG    1        4.939   2.794   2.662  0.00  0.00    -0.090 A 
ATOM     20  C   LIG    1        5.318   2.506   1.347  0.00  0.00    +0.260 A 
ATOM     21  N   LIG    1        4.308   1.927   0.749  0.00  0.00    -0.300 NA
ENDBRANCH  16  17
ENDBRANCH   6  16
TORSDOF 5
