REMARK  Name = ZINCkj00000wDeWn.1
REMARK                            x       y       z     vdW  Elec       q    Type
REMARK                         _______ _______ _______ _____ _____    ______ ____
ROOT
ATOM      1  N   LIG    1       -0.516   2.157  -1.036  0.00  0.00    -0.380 N 
ATOM      2  C   LIG    1       -0.317   3.611  -1.020  0.00  0.00    +0.250 C 
ATOM      3  C   LIG    1        1.179   3.926  -1.099  0.00  0.00    +0.060 C 
ATOM      4  C   LIG    1        1.891   3.299   0.103  0.00  0.00    +0.040 C 
ATOM      5  C   LIG    1        1.615   1.792   0.118  0.00  0.00    +0.060 C 
ATOM      6  C   LIG    1        0.103   1.556   0.151  0.00  0.00    +0.170 C 
ATOM      7  H   LIG    1       -0.093   1.770  -1.867  0.00  0.00    +0.430 HD
ENDROOT
BRANCH   1   8
ATOM      8  C   LIG    1       -1.955   1.861  -1.039  0.00  0.00    +0.230 C 
BRANCH   8   9
ATOM      9  C   LIG    1       -2.578   2.373  -2.340  0.00  0.00    +0.310 C 
BRANCH   9  15
ATOM     10  O   LIG    1       -4.745   3.994  -1.376  0.00  0.00    -0.520 OA
ATOM     11  C   LIG    1       -4.958   2.904  -1.863  0.00  0.00    +0.520 C 
ATOM     12  C   LIG    1       -6.326   2.276  -2.018  0.00  0.00    +0.060 C 
ATOM     13  C   LIG    1       -6.029   0.781  -2.280  0.00  0.00    +0.060 C 
ATOM     14  C   LIG    1       -4.604   0.844  -2.876  0.00  0.00    +0.260 C 
ATOM     15  N   LIG    1       -4.013   2.077  -2.343  0.00  0.00    -0.620 N 
ENDBRANCH   9  15
ENDBRANCH   8   9
ENDBRANCH   1   8
BRANCH   6  16
ATOM     16  C   LIG    1       -0.177   0.052   0.166  0.00  0.00    +0.360 C 
BRANCH  16  17
ATOM     17  N   LIG    1        0.426  -0.569  -1.015  0.00  0.00    -0.400 N 
ATOM     18  C   LIG    1        1.336  -1.566  -1.010  0.00  0.00    +0.260 A 
ATOM     19  C   LIG    1        1.636  -1.856  -2.297  0.00  0.00    -0.100 A 
ATOM     20  C   LIG    1        0.892  -1.001  -3.116  0.00  0.00    +0.280 A 
ATOM     21  N   LIG    1        0.166  -0.229  -2.349  0.00  0.00    -0.350 NA
ENDBRANCH  16  17
ENDBRANCH   6  16
TORSDOF 5
