REMARK  Name = ZINCvU0000000Df9.0
REMARK                            x       y       z     vdW  Elec       q    Type
REMARK                         _______ _______ _______ _____ _____    ______ ____
ROOT
ATOM      1  C   LIG    1       -4.482   0.686  -1.360  0.00  0.00    +0.170 C 
ENDROOT
BRANCH   1   2
ATOM      2  C   LIG    1       -5.592   0.551  -0.350  0.00  0.00    -0.070 A 
ATOM      3  C   LIG    1       -6.054   1.666   0.323  0.00  0.00    +0.050 A 
ATOM      4  C   LIG    1       -7.075   1.542   1.247  0.00  0.00    +0.000 A 
ATOM      5  C   LIG    1       -7.629   0.301   1.503  0.00  0.00    +0.000 A 
ATOM      6  C   LIG    1       -7.163  -0.815   0.834  0.00  0.00    +0.000 A 
ATOM      7  C   LIG    1       -6.144  -0.690  -0.092  0.00  0.00    +0.000 A 
ENDBRANCH   1   2
BRANCH   1   8
ATOM      8  N   LIG    1       -3.482   1.641  -0.863  0.00  0.00    -0.660 NA
ATOM      9  H   LIG    1       -3.015   2.107  -1.627  0.00  0.00    +0.360 HD
BRANCH   8  11
ATOM     10  C   LIG    1       -3.072   0.922   1.442  0.00  0.00    +0.040 C 
ATOM     11  C   LIG    1       -2.513   0.977   0.019  0.00  0.00    +0.180 C 
BRANCH  11  12
ATOM     12  C   LIG    1       -1.219   1.750   0.017  0.00  0.00    -0.090 A 
ATOM     13  C   LIG    1       -1.242   3.132   0.031  0.00  0.00    +0.050 A 
ATOM     14  C   LIG    1       -0.057   3.845   0.021  0.00  0.00    +0.030 A 
ATOM     15  C   LIG    1        1.157   3.175   0.005  0.00  0.00    +0.050 A 
ATOM     16  O   LIG    1        2.314   3.890  -0.007  0.00  0.00    -0.310 OA
ATOM     17  C   LIG    1        3.508   3.188   0.358  0.00  0.00    +0.220 C 
ATOM     18  C   LIG    1        3.524   1.848  -0.389  0.00  0.00    +0.220 C 
ATOM     19  O   LIG    1        2.360   1.107  -0.007  0.00  0.00    -0.310 OA
ATOM     20  C   LIG    1        1.179   1.785   0.000  0.00  0.00    +0.050 A 
ATOM     21  C   LIG    1       -0.013   1.076   0.008  0.00  0.00    +0.020 A 
ENDBRANCH  11  12
ENDBRANCH   8  11
ENDBRANCH   1   8
BRANCH   1  22
ATOM     22  C   LIG    1       -5.048   1.185  -2.664  0.00  0.00    +0.430 C 
ATOM     23  O   LIG    1       -4.872   2.339  -3.001  0.00  0.00    -0.450 OA
BRANCH  22  24
ATOM     24  C   LIG    1       -5.785   0.309  -3.498  0.00  0.00    -0.270 A 
ATOM     25  C   LIG    1       -6.069  -1.019  -3.258  0.00  0.00    +0.320 A 
ATOM     26  N   LIG    1       -6.792  -1.519  -4.279  0.00  0.00    -0.570 N 
ATOM     27  H   LIG    1       -7.110  -2.433  -4.334  0.00  0.00    +0.420 HD
ATOM     28  C   LIG    1       -7.018  -0.551  -5.237  0.00  0.00    +0.070 A 
ATOM     29  C   LIG    1       -7.693  -0.558  -6.453  0.00  0.00    +0.000 A 
ATOM     30  C   LIG    1       -7.753   0.590  -7.213  0.00  0.00    +0.030 A 
ATOM     31  C   LIG    1       -7.145   1.758  -6.779  0.00  0.00    +0.000 A 
ATOM     32  C   LIG    1       -6.471   1.785  -5.577  0.00  0.00    +0.060 A 
ATOM     33  C   LIG    1       -6.409   0.635  -4.796  0.00  0.00    -0.060 A 
ENDBRANCH  22  24
ENDBRANCH   1  22
TORSDOF 6
