REMARK  Name = ZINCvU0000000G3m.0
REMARK                            x       y       z     vdW  Elec       q    Type
REMARK                         _______ _______ _______ _____ _____    ______ ____
ROOT
ATOM      1  C   LIG    1        2.326   5.219   0.119  0.00  0.00    +0.560 C 
ATOM      2  S   LIG    1        0.870   6.111  -0.004  0.00  0.00    -0.550 S 
ENDROOT
BRANCH   1   6
ATOM      3  N   LIG    1        5.837   7.239  -0.324  0.00  0.00    -0.490 N 
ATOM      4  C   LIG    1        4.544   7.921  -0.475  0.00  0.00    +0.200 C 
ATOM      5  C   LIG    1        3.534   7.318   0.506  0.00  0.00    +0.330 C 
ATOM      6  N   LIG    1        3.496   5.862   0.302  0.00  0.00    -0.530 N 
ATOM      7  C   LIG    1        4.769   5.125   0.309  0.00  0.00    +0.290 C 
ATOM      8  C   LIG    1        5.731   5.815  -0.670  0.00  0.00    +0.220 C 
BRANCH   3  12
ATOM      9  C   LIG    1        8.778   9.106  -2.582  0.00  0.00    -0.200 A 
ATOM     10  C   LIG    1        9.092   7.978  -1.813  0.00  0.00    +0.110 A 
ATOM     11  C   LIG    1        8.122   7.367  -1.071  0.00  0.00    -0.020 A 
ATOM     12  C   LIG    1        6.821   7.864  -1.079  0.00  0.00    +0.140 A 
ATOM     13  C   LIG    1        6.502   8.982  -1.847  0.00  0.00    -0.040 A 
ATOM     14  C   LIG    1        7.468   9.602  -2.587  0.00  0.00    +0.100 A 
BRANCH   9  16
ATOM     15  C   LIG    1        9.506  11.044  -4.115  0.00  0.00    +0.070 C 
ATOM     16  C   LIG    1        9.817   9.765  -3.381  0.00  0.00    +0.400 C 
ATOM     17  O   LIG    1       10.928   9.281  -3.450  0.00  0.00    -0.460 OA
ENDBRANCH   9  16
ENDBRANCH   3  12
ENDBRANCH   1   6
BRANCH   1  18
ATOM     18  N   LIG    1        2.302   3.874   0.032  0.00  0.00    -0.700 N 
ATOM     19  H   LIG    1        2.038   3.344   0.800  0.00  0.00    +0.430 HD
BRANCH  18  20
ATOM     20  C   LIG    1        2.659   3.244  -1.167  0.00  0.00    +0.190 A 
ATOM     21  C   LIG    1        2.934   4.003  -2.296  0.00  0.00    -0.040 A 
ATOM     22  C   LIG    1        3.286   3.380  -3.477  0.00  0.00    +0.040 A 
ATOM     23  C   LIG    1        3.359   1.996  -3.537  0.00  0.00    +0.050 A 
ATOM     24  C   LIG    1        3.089   1.237  -2.408  0.00  0.00    +0.060 A 
ATOM     25  C   LIG    1        2.737   1.858  -1.226  0.00  0.00    -0.010 A 
BRANCH  23  26
ATOM     26  O   LIG    1        3.699   1.383  -4.702  0.00  0.00    -0.250 OA
BRANCH  26  27
ATOM     27  C   LIG    1        5.003   1.416  -5.082  0.00  0.00    +0.120 A 
ATOM     28  C   LIG    1        5.958   1.972  -4.244  0.00  0.00    -0.070 A 
ATOM     29  C   LIG    1        7.284   2.000  -4.631  0.00  0.00    +0.040 A 
ATOM     30  C   LIG    1        7.658   1.483  -5.857  0.00  0.00    -0.020 A 
ATOM     31  C   LIG    1        6.708   0.932  -6.697  0.00  0.00    +0.050 A 
ATOM     32  C   LIG    1        5.382   0.898  -6.313  0.00  0.00    -0.020 A 
ENDBRANCH  26  27
ENDBRANCH  23  26
ENDBRANCH  18  20
ENDBRANCH   1  18
TORSDOF 7
