REMARK  Name = ZINCrD000000fokF.0
REMARK                            x       y       z     vdW  Elec       q    Type
REMARK                         _______ _______ _______ _____ _____    ______ ____
ROOT
ATOM      1  C   LIG    1        2.188   1.443  -0.149  0.00  0.00    -0.680 A 
ATOM      2  C   LIG    1        1.121   2.014  -0.818  0.00  0.00    +0.150 A 
ATOM      3  C   LIG    1        0.089   1.223  -1.293  0.00  0.00    +0.000 A 
ATOM      4  C   LIG    1        0.119  -0.143  -1.100  0.00  0.00    +0.100 A 
ATOM      5  C   LIG    1        1.193  -0.726  -0.425  0.00  0.00    -0.150 A 
ATOM      6  C   LIG    1        2.230   0.078   0.050  0.00  0.00    +0.190 A 
ENDROOT
BRANCH   5   7
ATOM      7  C   LIG    1        1.232  -2.189  -0.216  0.00  0.00    +0.560 C 
ATOM      8  N   LIG    1        0.101  -2.857   0.087  0.00  0.00    -0.600 N 
ATOM      9  C   LIG    1       -1.184  -2.152   0.103  0.00  0.00    +0.290 C 
ATOM     10  O   LIG    1        2.284  -2.790  -0.317  0.00  0.00    -0.520 OA
BRANCH   8  11
ATOM     11  C   LIG    1        0.156  -4.287   0.399  0.00  0.00    +0.290 C 
ATOM     12  C   LIG    1       -0.350  -4.511   1.823  0.00  0.00    +0.010 C 
ATOM     13  C   LIG    1       -0.491  -6.020   2.054  0.00  0.00    +0.030 C 
ATOM     14  C   LIG    1       -1.660  -6.529   1.214  0.00  0.00    +0.080 C 
ATOM     15  C   LIG    1       -1.520  -6.079  -0.216  0.00  0.00    -0.060 A 
ATOM     16  C   LIG    1       -2.269  -6.742  -1.179  0.00  0.00    +0.000 A 
ATOM     17  C   LIG    1       -2.193  -6.369  -2.506  0.00  0.00    +0.010 A 
ATOM     18  C   LIG    1       -1.366  -5.327  -2.880  0.00  0.00    +0.000 A 
ATOM     19  C   LIG    1       -0.618  -4.669  -1.925  0.00  0.00    +0.020 A 
ATOM     20  C   LIG    1       -0.691  -5.044  -0.590  0.00  0.00    -0.090 A 
ENDBRANCH   8  11
ENDBRANCH   5   7
BRANCH   1  21
ATOM     21  S   LIG    1        3.496   2.459   0.451  0.00  0.00    +2.700 S 
ATOM     22  O   LIG    1        4.108   1.741   1.513  0.00  0.00    -0.950 OA
ATOM     23  O   LIG    1        2.951   3.763   0.607  0.00  0.00    -0.950 OA
BRANCH  21  24
ATOM     24  N   LIG    1        4.626   2.566  -0.754  0.00  0.00    -1.110 NA
ATOM     25  H   LIG    1        5.510   2.188  -0.625  0.00  0.00    +0.420 HD
BRANCH  24  26
ATOM     26  C   LIG    1        4.291   3.230  -2.017  0.00  0.00    +0.300 C 
BRANCH  26  28
ATOM     27  C   LIG    1        5.691   3.088  -4.012  0.00  0.00    +0.050 C 
ATOM     28  C   LIG    1        5.556   3.520  -2.783  0.00  0.00    -0.050 C 
ENDBRANCH  26  28
ENDBRANCH  24  26
ENDBRANCH  21  24
ENDBRANCH   1  21
TORSDOF 6
