REMARK  Name = ZINCqH0000050CqD.0
REMARK                            x       y       z     vdW  Elec       q    Type
REMARK                         _______ _______ _______ _____ _____    ______ ____
ROOT
ATOM      1  C   LIG    1       -0.961   3.169   0.384  0.00  0.00    +0.290 C 
ENDROOT
BRANCH   1   2
ATOM      2  C   LIG    1       -2.350   3.704   0.032  0.00  0.00    -0.030 C 
ATOM      3  C   LIG    1       -2.885   2.971  -1.202  0.00  0.00    +0.010 C 
ATOM      4  C   LIG    1       -1.970   3.267  -2.395  0.00  0.00    +0.210 C 
ATOM      5  O   LIG    1       -1.906   4.679  -2.607  0.00  0.00    -0.380 OA
ATOM      6  C   LIG    1       -1.371   5.411  -1.503  0.00  0.00    +0.200 C 
ATOM      7  C   LIG    1       -2.260   5.202  -0.275  0.00  0.00    +0.020 C 
BRANCH   2  14
ATOM      8  C   LIG    1       -1.963   5.163   2.496  0.00  0.00    +0.090 C 
ATOM      9  C   LIG    1       -3.099   4.181   2.373  0.00  0.00    -0.070 A 
ATOM     10  C   LIG    1       -3.956   3.978   3.438  0.00  0.00    +0.000 A 
ATOM     11  C   LIG    1       -4.999   3.077   3.325  0.00  0.00    +0.000 A 
ATOM     12  C   LIG    1       -5.184   2.380   2.146  0.00  0.00    +0.000 A 
ATOM     13  C   LIG    1       -4.330   2.586   1.079  0.00  0.00    +0.010 A 
ATOM     14  C   LIG    1       -3.285   3.483   1.194  0.00  0.00    -0.080 A 
ENDBRANCH   2  14
ENDBRANCH   1   2
BRANCH   1  15
ATOM     15  N   LIG    1       -1.020   1.712   0.525  0.00  0.00    -0.720 N 
ATOM     16  H   LIG    1       -1.866   1.249   0.424  0.00  0.00    +0.400 HD
ATOM     17  C   LIG    1        0.102   1.016   0.795  0.00  0.00    +0.590 C 
ATOM     18  O   LIG    1        1.165   1.597   0.917  0.00  0.00    -0.510 OA
BRANCH  17  19
ATOM     19  C   LIG    1        0.043  -0.442   0.936  0.00  0.00    -0.270 A 
ATOM     20  C   LIG    1        1.109  -1.257   1.198  0.00  0.00    +0.170 A 
ATOM     21  C   LIG    1        0.769  -2.586   1.284  0.00  0.00    -0.080 A 
ATOM     22  C   LIG    1       -0.528  -2.854   1.088  0.00  0.00    -0.130 A 
ATOM     23  C   LIG    1       -1.130  -4.235   1.128  0.00  0.00    +0.180 C 
ATOM     24  S   LIG    1       -1.408  -1.423   0.788  0.00  0.00    +0.320 S 
BRANCH  21  25
ATOM     25  N   LIG    1        1.764  -3.644   1.565  0.00  0.00    +0.050 N 
ATOM     26  O   LIG    1        1.415  -4.809   1.626  0.00  0.00    -0.150 OA
ATOM     27  O   LIG    1        2.934  -3.350   1.736  0.00  0.00    -0.150 OA
ENDBRANCH  21  25
ENDBRANCH  17  19
ENDBRANCH   1  15
TORSDOF 5
