REMARK  Name = ZINCrg00000J3AQM.0
REMARK                            x       y       z     vdW  Elec       q    Type
REMARK                         _______ _______ _______ _____ _____    ______ ____
ROOT
ATOM      1  C   LIG    1        2.163  -3.878  -1.638  0.00  0.00    +0.060 C 
ENDROOT
BRANCH   1   2
ATOM      2  C   LIG    1        2.436  -2.535  -0.959  0.00  0.00    +0.110 C 
BRANCH   2   3
ATOM      3  C   LIG    1        1.134  -1.808  -0.741  0.00  0.00    +0.460 C 
ATOM      4  O   LIG    1        0.094  -2.313  -1.093  0.00  0.00    -0.500 OA
BRANCH   3   5
ATOM      5  O   LIG    1        1.129  -0.601  -0.155  0.00  0.00    -0.330 OA
BRANCH   5   7
ATOM      6  C   LIG    1       -0.749  -0.361   1.377  0.00  0.00    +0.060 C 
ATOM      7  C   LIG    1       -0.162   0.041   0.022  0.00  0.00    +0.180 C 
BRANCH   7   8
ATOM      8  C   LIG    1        0.010   1.537  -0.027  0.00  0.00    +0.530 C 
ATOM      9  N   LIG    1       -1.072   2.337  -0.105  0.00  0.00    -0.620 N 
ATOM     10  C   LIG    1       -2.472   1.892  -0.059  0.00  0.00    +0.240 C 
ATOM     11  C   LIG    1       -3.357   3.147  -0.208  0.00  0.00    +0.040 C 
ATOM     12  C   LIG    1       -2.409   4.158  -0.904  0.00  0.00    +0.040 C 
ATOM     13  C   LIG    1       -1.047   3.804  -0.258  0.00  0.00    +0.260 C 
ATOM     14  O   LIG    1        1.122   2.021  -0.002  0.00  0.00    -0.510 OA
ENDBRANCH   7   8
ENDBRANCH   5   7
ENDBRANCH   3   5
ENDBRANCH   2   3
ENDBRANCH   1   2
BRANCH   1  15
ATOM     15  C   LIG    1        3.485  -4.616  -1.859  0.00  0.00    +0.190 C 
BRANCH  15  16
ATOM     16  N   LIG    1        3.224  -5.902  -2.510  0.00  0.00    -0.500 NA
ATOM     17  C   LIG    1        3.669  -6.126  -3.713  0.00  0.00    +0.380 C 
ATOM     18  N   LIG    1        4.386  -5.177  -4.398  0.00  0.00    -1.050 N 
ATOM     19  H   LIG    1        4.630  -4.291  -4.088  0.00  0.00    +0.450 HD
ATOM     20  S   LIG    1        4.753  -5.868  -5.875  0.00  0.00    +2.670 S 
ATOM     21  C   LIG    1        3.982  -7.450  -5.678  0.00  0.00    -0.630 A 
ATOM     22  C   LIG    1        3.867  -8.553  -6.480  0.00  0.00    +0.150 A 
ATOM     23  C   LIG    1        3.180  -9.668  -6.023  0.00  0.00    +0.040 A 
ATOM     24  C   LIG    1        2.618  -9.652  -4.759  0.00  0.00    +0.070 A 
ATOM     25  C   LIG    1        2.732  -8.544  -3.950  0.00  0.00    +0.100 A 
ATOM     26  O   LIG    1        6.159  -6.075  -5.911  0.00  0.00    -0.930 OA
ATOM     27  O   LIG    1        4.027  -5.159  -6.869  0.00  0.00    -0.930 OA
ATOM     28  C   LIG    1        3.429  -7.409  -4.394  0.00  0.00    -0.020 A 
ENDBRANCH  15  16
ENDBRANCH   1  15
TORSDOF 7
