REMARK  Name = ZINCqH00000028vQ.0
REMARK                            x       y       z     vdW  Elec       q    Type
REMARK                         _______ _______ _______ _____ _____    ______ ____
ROOT
ATOM      1  C   LIG    1       -1.272   1.648   0.040  0.00  0.00    +0.290 C 
ENDROOT
BRANCH   1   2
ATOM      2  N   LIG    1       -0.944   2.509  -1.099  0.00  0.00    -1.100 NA
ATOM      3  H   LIG    1       -1.316   2.318  -1.974  0.00  0.00    +0.430 HD
BRANCH   2   4
ATOM      4  S   LIG    1        0.057   3.811  -0.892  0.00  0.00    +2.700 S 
ATOM      5  O   LIG    1       -0.423   4.508   0.249  0.00  0.00    -0.940 OA
ATOM      6  O   LIG    1        0.199   4.416  -2.170  0.00  0.00    -0.950 OA
BRANCH   4   7
ATOM      7  C   LIG    1        1.646   3.184  -0.459  0.00  0.00    -0.730 A 
ATOM      8  C   LIG    1        2.716   3.365  -1.314  0.00  0.00    +0.210 A 
ATOM      9  C   LIG    1        3.965   2.879  -0.974  0.00  0.00    -0.020 A 
ATOM     10  C   LIG    1        4.141   2.199   0.220  0.00  0.00    +0.190 A 
ATOM     11  C   LIG    1        3.069   2.012   1.074  0.00  0.00    -0.050 A 
ATOM     12  F   LIG    1        5.360   1.719   0.550  0.00  0.00    -0.120 F 
ATOM     13  C   LIG    1        1.821   2.504   0.735  0.00  0.00    +0.220 A 
ATOM     14  F   LIG    1        0.773   2.322   1.568  0.00  0.00    -0.110 F 
ENDBRANCH   4   7
ENDBRANCH   2   4
ENDBRANCH   1   2
BRANCH   1  15
ATOM     15  C   LIG    1       -2.497   0.796  -0.300  0.00  0.00    +0.230 C 
BRANCH  15  20
ATOM     16  C   LIG    1       -1.615  -2.821  -4.638  0.00  0.00    +0.010 C 
ATOM     17  C   LIG    1       -1.876  -2.240  -3.246  0.00  0.00    -0.020 C 
ATOM     18  C   LIG    1       -3.170  -1.422  -3.268  0.00  0.00    +0.030 C 
ATOM     19  C   LIG    1       -3.394  -0.793  -1.891  0.00  0.00    +0.180 C 
ATOM     20  N   LIG    1       -2.254   0.068  -1.553  0.00  0.00    -0.530 NA
ATOM     21  C   LIG    1       -1.007  -0.705  -1.480  0.00  0.00    +0.170 C 
ATOM     22  C   LIG    1       -0.712  -1.330  -2.845  0.00  0.00    +0.030 C 
ENDBRANCH  15  20
BRANCH  15  23
ATOM     23  C   LIG    1       -3.700   1.688  -0.463  0.00  0.00    -0.180 A 
ATOM     24  C   LIG    1       -4.640   1.888   0.462  0.00  0.00    +0.010 A 
ATOM     25  C   LIG    1       -5.653   2.753   0.087  0.00  0.00    +0.000 A 
ATOM     26  C   LIG    1       -5.537   3.256  -1.143  0.00  0.00    -0.060 A 
ATOM     27  S   LIG    1       -4.076   2.632  -1.899  0.00  0.00    +0.140 S 
ENDBRANCH  15  23
ENDBRANCH   1  15
TORSDOF 6
