REMARK  Name = ZINCkj00000y7wHp.0
REMARK                            x       y       z     vdW  Elec       q    Type
REMARK                         _______ _______ _______ _____ _____    ______ ____
ROOT
ATOM      1  C   LIG    1       -2.900   1.122  -1.442  0.00  0.00    +0.190 C 
ENDROOT
BRANCH   1   2
ATOM      2  O   LIG    1       -2.891   2.316  -2.226  0.00  0.00    -0.540 OA
ATOM      3  H   LIG    1       -3.451   3.022  -1.874  0.00  0.00    +0.390 HD
ENDBRANCH   1   2
BRANCH   1   4
ATOM      4  C   LIG    1       -2.516   1.456   0.001  0.00  0.00    +0.300 C 
BRANCH   4   9
ATOM      5  C   LIG    1       -0.023   1.156   0.121  0.00  0.00    +0.210 A 
ATOM      6  N   LIG    1        1.027   1.931   0.138  0.00  0.00    -0.480 NA
ATOM      7  C   LIG    1        0.633   3.211   0.066  0.00  0.00    +0.150 A 
ATOM      8  C   LIG    1       -0.712   3.230   0.000  0.00  0.00    +0.130 A 
ATOM      9  N   LIG    1       -1.129   1.927   0.040  0.00  0.00    -0.460 N 
BRANCH   5  10
ATOM     10  C   LIG    1       -0.004  -0.349   0.185  0.00  0.00    +0.140 C 
BRANCH  10  12
ATOM     11  C   LIG    1        0.203  -2.318   1.710  0.00  0.00    +0.020 C 
ATOM     12  C   LIG    1        0.063  -0.796   1.647  0.00  0.00    +0.020 C 
ENDBRANCH  10  12
ENDBRANCH   5  10
ENDBRANCH   4   9
ENDBRANCH   1   4
BRANCH   1  13
ATOM     13  C   LIG    1       -4.300   0.506  -1.467  0.00  0.00    +0.250 C 
BRANCH  13  14
ATOM     14  N   LIG    1       -4.642   0.123  -2.844  0.00  0.00    -0.380 N 
ATOM     15  C   LIG    1       -6.037  -0.336  -2.893  0.00  0.00    +0.240 C 
ATOM     16  C   LIG    1       -6.391  -0.735  -4.327  0.00  0.00    +0.150 C 
ATOM     17  O   LIG    1       -5.487  -1.751  -4.771  0.00  0.00    -0.350 OA
ATOM     18  C   LIG    1       -4.113  -1.360  -4.719  0.00  0.00    +0.220 C 
ATOM     19  C   LIG    1       -3.884  -0.168  -5.651  0.00  0.00    +0.040 C 
ATOM     20  C   LIG    1       -7.823  -1.270  -4.371  0.00  0.00    +0.110 C 
ATOM     21  C   LIG    1       -3.755  -0.963  -3.285  0.00  0.00    +0.240 C 
ATOM     22  H   LIG    1       -4.528   0.919  -3.453  0.00  0.00    +0.430 HD
ENDBRANCH  13  14
ENDBRANCH   1  13
TORSDOF 7
