REMARK  Name = ZINCvU0000000DMI.0
REMARK                            x       y       z     vdW  Elec       q    Type
REMARK                         _______ _______ _______ _____ _____    ______ ____
ROOT
ATOM      1  C   LIG    1        1.349   0.588  -0.981  0.00  0.00    -0.010 C 
ATOM      2  C   LIG    1        1.220   1.096   0.457  0.00  0.00    +0.040 C 
ATOM      3  C   LIG    1        2.246   2.205   0.702  0.00  0.00    +0.020 C 
ATOM      4  C   LIG    1        3.658   1.641   0.513  0.00  0.00    +0.260 C 
ATOM      5  N   LIG    1        3.745   1.020  -0.816  0.00  0.00    -0.620 N 
ATOM      6  C   LIG    1        4.719   1.376  -1.678  0.00  0.00    +0.520 C 
ATOM      7  O   LIG    1        4.780   0.857  -2.772  0.00  0.00    -0.520 OA
ATOM      8  C   LIG    1        2.750   0.005  -1.189  0.00  0.00    +0.310 C 
ENDROOT
BRANCH   1  10
ATOM      9  O   LIG    1        0.666  -1.599  -1.544  0.00  0.00    -0.510 OA
ATOM     10  C   LIG    1        0.317  -0.481  -1.231  0.00  0.00    +0.520 C 
ATOM     11  N   LIG    1       -0.994  -0.193  -1.111  0.00  0.00    -0.670 N 
ATOM     12  H   LIG    1       -1.272   0.681  -0.797  0.00  0.00    +0.410 HD
BRANCH  11  13
ATOM     13  C   LIG    1       -1.955  -1.156  -1.441  0.00  0.00    +0.140 A 
ATOM     14  C   LIG    1       -3.143  -0.774  -2.049  0.00  0.00    -0.020 A 
ATOM     15  C   LIG    1       -4.087  -1.727  -2.378  0.00  0.00    +0.030 A 
ATOM     16  C   LIG    1       -3.854  -3.060  -2.092  0.00  0.00    -0.010 A 
ATOM     17  C   LIG    1       -2.674  -3.443  -1.482  0.00  0.00    +0.030 A 
ATOM     18  C   LIG    1       -1.724  -2.495  -1.155  0.00  0.00    +0.020 A 
ENDBRANCH  11  13
ENDBRANCH   1  10
BRANCH   6  19
ATOM     19  C   LIG    1        5.732   2.419  -1.281  0.00  0.00    +0.070 C 
BRANCH  19  20
ATOM     20  C   LIG    1        6.718   2.635  -2.430  0.00  0.00    +0.110 C 
BRANCH  20  21
ATOM     21  C   LIG    1        7.801   3.586  -1.990  0.00  0.00    -0.070 A 
ATOM     22  C   LIG    1        7.466   4.808  -1.436  0.00  0.00    +0.010 A 
ATOM     23  C   LIG    1        8.460   5.677  -1.028  0.00  0.00    +0.000 A 
ATOM     24  C   LIG    1        9.789   5.330  -1.183  0.00  0.00    +0.000 A 
ATOM     25  C   LIG    1       10.124   4.111  -1.742  0.00  0.00    +0.000 A 
ATOM     26  C   LIG    1        9.130   3.239  -2.145  0.00  0.00    +0.010 A 
ENDBRANCH  20  21
BRANCH  20  27
ATOM     27  C   LIG    1        5.990   3.217  -3.614  0.00  0.00    -0.060 A 
ATOM     28  C   LIG    1        6.108   2.625  -4.858  0.00  0.00    +0.030 A 
ATOM     29  C   LIG    1        5.436   3.156  -5.943  0.00  0.00    +0.000 A 
ATOM     30  C   LIG    1        4.654   4.286  -5.787  0.00  0.00    +0.000 A 
ATOM     31  C   LIG    1        4.540   4.881  -4.544  0.00  0.00    +0.000 A 
ATOM     32  C   LIG    1        5.208   4.347  -3.458  0.00  0.00    +0.000 A 
ENDBRANCH  20  27
ENDBRANCH  19  20
ENDBRANCH   6  19
TORSDOF 6
