REMARK  Name = ZINCpk00000jcG2Q.0
REMARK                            x       y       z     vdW  Elec       q    Type
REMARK                         _______ _______ _______ _____ _____    ______ ____
ROOT
ATOM      1  C   LIG    1       -2.938   0.712   1.441  0.00  0.00    +0.460 C 
ATOM      2  O   LIG    1       -2.260   1.110   2.358  0.00  0.00    -0.490 OA
ENDROOT
BRANCH   1   3
ATOM      3  O   LIG    1       -4.070   0.034   1.688  0.00  0.00    -0.360 OA
BRANCH   3   4
ATOM      4  C   LIG    1       -4.416  -0.185   3.080  0.00  0.00    +0.260 C 
BRANCH   4   6
ATOM      5  C   LIG    1       -6.841  -0.174   2.478  0.00  0.00    +0.040 C 
ATOM      6  C   LIG    1       -5.728  -0.969   3.162  0.00  0.00    +0.200 C 
ATOM      7  C   LIG    1       -5.559  -2.318   2.461  0.00  0.00    +0.040 C 
BRANCH   6   8
ATOM      8  N   LIG    1       -6.077  -1.190   4.568  0.00  0.00    -0.630 N 
ATOM      9  C   LIG    1       -7.272  -1.901   5.047  0.00  0.00    +0.250 C 
ATOM     10  C   LIG    1       -7.145  -1.845   6.581  0.00  0.00    +0.250 C 
ATOM     11  N   LIG    1       -5.897  -1.100   6.804  0.00  0.00    -0.740 N 
ATOM     12  H   LIG    1       -5.519  -0.882   7.671  0.00  0.00    +0.430 HD
ATOM     13  C   LIG    1       -5.363  -0.771   5.620  0.00  0.00    +0.700 C 
ATOM     14  O   LIG    1       -4.324  -0.149   5.511  0.00  0.00    -0.580 OA
ENDBRANCH   6   8
ENDBRANCH   4   6
ENDBRANCH   3   4
ENDBRANCH   1   3
BRANCH   1  15
ATOM     15  C   LIG    1       -2.514   0.978   0.019  0.00  0.00    +0.170 C 
BRANCH  15  16
ATOM     16  C   LIG    1       -1.220   1.751   0.017  0.00  0.00    -0.100 A 
ATOM     17  C   LIG    1       -1.242   3.133   0.030  0.00  0.00    +0.060 A 
ATOM     18  C   LIG    1       -0.059   3.845   0.023  0.00  0.00    -0.020 A 
ATOM     19  C   LIG    1        1.154   3.171   0.008  0.00  0.00    +0.160 A 
ATOM     20  N   LIG    1        2.356   3.885  -0.000  0.00  0.00    -0.660 N 
ATOM     21  H   LIG    1        2.365   4.816   0.271  0.00  0.00    +0.410 HD
ATOM     22  C   LIG    1        3.501   3.290  -0.382  0.00  0.00    +0.520 C 
ATOM     23  C   LIG    1        3.510   1.852  -0.825  0.00  0.00    +0.080 C 
ATOM     24  C   LIG    1        2.490   1.050  -0.015  0.00  0.00    +0.090 C 
ATOM     25  O   LIG    1        4.538   3.920  -0.368  0.00  0.00    -0.530 OA
ATOM     26  C   LIG    1        1.174   1.782   0.000  0.00  0.00    -0.120 A 
ATOM     27  C   LIG    1       -0.013   1.076   0.008  0.00  0.00    +0.070 A 
ENDBRANCH  15  16
ENDBRANCH   1  15
TORSDOF 6
