REMARK  Name = ZINCvU0000000Bks.0
REMARK                            x       y       z     vdW  Elec       q    Type
REMARK                         _______ _______ _______ _____ _____    ______ ____
ROOT
ATOM      1  C   LIG    1        0.997  -4.042   1.803  0.00  0.00    +0.490 A 
ATOM      2  C   LIG    1        1.650  -4.527   2.964  0.00  0.00    -0.220 A 
ATOM      3  C   LIG    1        2.259  -3.805   4.073  0.00  0.00    -0.020 A 
ATOM      4  C   LIG    1        2.792  -4.585   5.013  0.00  0.00    -0.020 A 
ATOM      5  S   LIG    1        2.582  -6.282   4.627  0.00  0.00    +0.190 S 
ATOM      6  C   LIG    1        1.749  -5.912   3.124  0.00  0.00    +0.120 A 
ATOM      7  N   LIG    1        1.241  -6.714   2.182  0.00  0.00    -0.520 NA
ATOM      8  C   LIG    1        0.646  -6.217   1.113  0.00  0.00    +0.430 A 
ATOM      9  N   LIG    1        0.523  -4.908   0.922  0.00  0.00    -0.540 NA
ENDROOT
BRANCH   3  10
ATOM     10  C   LIG    1        2.284  -2.325   4.149  0.00  0.00    -0.040 A 
ATOM     11  C   LIG    1        2.890  -1.582   3.137  0.00  0.00    +0.000 A 
ATOM     12  C   LIG    1        2.905  -0.204   3.211  0.00  0.00    +0.020 A 
ATOM     13  C   LIG    1        2.331   0.440   4.292  0.00  0.00    +0.020 A 
ATOM     14  C   LIG    1        1.732  -0.292   5.302  0.00  0.00    +0.020 A 
ATOM     15  C   LIG    1        1.706  -1.670   5.236  0.00  0.00    +0.030 A 
ENDBRANCH   3  10
BRANCH   8  16
ATOM     16  C   LIG    1        0.098  -7.147   0.097  0.00  0.00    +0.170 A 
ATOM     17  C   LIG    1        0.218  -8.523   0.282  0.00  0.00    +0.030 A 
ATOM     18  C   LIG    1       -0.298  -9.379  -0.676  0.00  0.00    +0.060 A 
ATOM     19  C   LIG    1       -0.919  -8.830  -1.788  0.00  0.00    -0.010 A 
ATOM     20  C   LIG    1       -1.003  -7.454  -1.909  0.00  0.00    +0.260 A 
ATOM     21  N   LIG    1       -0.508  -6.663  -0.980  0.00  0.00    -0.440 NA
ENDBRANCH   8  16
BRANCH   1  22
ATOM     22  N   LIG    1        0.863  -2.681   1.591  0.00  0.00    -0.700 N 
ATOM     23  H   LIG    1        1.143  -2.054   2.275  0.00  0.00    +0.420 HD
BRANCH  22  24
ATOM     24  C   LIG    1        0.297  -2.188   0.333  0.00  0.00    +0.320 C 
BRANCH  24  30
ATOM     25  C   LIG    1        1.407   0.041   0.082  0.00  0.00    -0.070 A 
ATOM     26  C   LIG    1        1.373   1.423   0.101  0.00  0.00    +0.030 A 
ATOM     27  C   LIG    1        0.194   2.082   0.394  0.00  0.00    +0.010 A 
ATOM     28  C   LIG    1       -0.952   1.359   0.666  0.00  0.00    +0.000 A 
ATOM     29  C   LIG    1       -0.919  -0.023   0.647  0.00  0.00    +0.030 A 
ATOM     30  C   LIG    1        0.260  -0.682   0.355  0.00  0.00    -0.110 A 
BRANCH  25  31
ATOM     31  C   LIG    1        2.692  -0.677  -0.238  0.00  0.00    +0.230 C 
BRANCH  31  32
ATOM     32  O   LIG    1        3.725   0.281  -0.481  0.00  0.00    -0.570 OA
ATOM     33  H   LIG    1        4.583  -0.112  -0.693  0.00  0.00    +0.380 HD
ENDBRANCH  31  32
ENDBRANCH  25  31
ENDBRANCH  24  30
ENDBRANCH  22  24
ENDBRANCH   1  22
TORSDOF 7
