REMARK  Name = ZINCrD00000dHG3T.0
REMARK                            x       y       z     vdW  Elec       q    Type
REMARK                         _______ _______ _______ _____ _____    ______ ____
ROOT
ATOM      1  N   LIG    1       -0.915   3.067   1.122  0.00  0.00    -0.710 N 
ATOM      2  H   LIG    1       -0.866   3.505   0.257  0.00  0.00    +0.410 HD
ATOM      3  C   LIG    1       -1.093   3.800   2.239  0.00  0.00    +0.590 C 
ATOM      4  O   LIG    1       -1.155   3.252   3.322  0.00  0.00    -0.500 OA
ENDROOT
BRANCH   3   5
ATOM      5  C   LIG    1       -1.213   5.267   2.147  0.00  0.00    -0.060 A 
ATOM      6  N   LIG    1       -1.141   5.867   0.979  0.00  0.00    -0.140 NA
ATOM      7  N   LIG    1       -1.242   7.132   0.812  0.00  0.00    -0.420 N 
ATOM      8  H   LIG    1       -1.181   7.484  -0.090  0.00  0.00    +0.450 HD
ATOM      9  C   LIG    1       -1.424   8.018   1.846  0.00  0.00    +0.110 A 
ATOM     10  C   LIG    1       -1.522   9.390   1.619  0.00  0.00    +0.060 A 
ATOM     11  C   LIG    1       -1.706  10.249   2.683  0.00  0.00    +0.060 A 
ATOM     12  C   LIG    1       -1.796   9.766   3.981  0.00  0.00    +0.030 A 
ATOM     13  C   LIG    1       -1.702   8.414   4.229  0.00  0.00    +0.120 A 
ATOM     14  F   LIG    1       -1.437   9.877   0.361  0.00  0.00    -0.130 F 
ATOM     15  C   LIG    1       -1.516   7.534   3.166  0.00  0.00    -0.170 A 
ATOM     16  C   LIG    1       -1.408   6.076   3.364  0.00  0.00    +0.410 A 
ATOM     17  O   LIG    1       -1.476   5.570   4.470  0.00  0.00    -0.410 OA
ENDBRANCH   3   5
BRANCH   1  18
ATOM     18  C   LIG    1       -0.796   1.610   1.213  0.00  0.00    +0.250 C 
BRANCH  18  19
ATOM     19  C   LIG    1       -0.013   1.086   0.008  0.00  0.00    +0.000 C 
ATOM     20  C   LIG    1       -0.596   1.634  -1.312  0.00  0.00    +0.090 C 
ATOM     21  C   LIG    1        0.184   2.900  -1.594  0.00  0.00    -0.110 A 
ATOM     22  C   LIG    1       -0.098   3.957  -2.442  0.00  0.00    +0.020 A 
ATOM     23  C   LIG    1        0.776   5.023  -2.538  0.00  0.00    +0.000 A 
ATOM     24  C   LIG    1        1.935   5.035  -1.786  0.00  0.00    +0.000 A 
ATOM     25  C   LIG    1        2.219   3.981  -0.940  0.00  0.00    +0.010 A 
ATOM     26  C   LIG    1        1.344   2.911  -0.842  0.00  0.00    -0.090 A 
ATOM     27  C   LIG    1        1.422   1.654  -0.003  0.00  0.00    +0.090 C 
ENDBRANCH  18  19
BRANCH  18  29
ATOM     28  C   LIG    1       -2.932   1.411   2.495  0.00  0.00    +0.010 C 
ATOM     29  C   LIG    1       -2.192   0.984   1.225  0.00  0.00    +0.000 C 
ENDBRANCH  18  29
ENDBRANCH   1  18
TORSDOF 4
