REMARK  Name = ZINCtV000002OKy4.0
REMARK                            x       y       z     vdW  Elec       q    Type
REMARK                         _______ _______ _______ _____ _____    ______ ____
ROOT
ATOM      1  C   LIG    1        8.367   0.600  -0.072  0.00  0.00    -0.080 A 
ATOM      2  C   LIG    1        8.769  -0.725   0.020  0.00  0.00    +0.040 A 
ATOM      3  C   LIG    1       10.139  -1.032   0.001  0.00  0.00    +0.200 A 
ATOM      4  N   LIG    1       11.066  -0.104  -0.101  0.00  0.00    -0.440 NA
ATOM      5  C   LIG    1       10.770   1.193  -0.195  0.00  0.00    +0.130 A 
ATOM      6  C   LIG    1       11.783   2.163  -0.304  0.00  0.00    +0.050 A 
ATOM      7  C   LIG    1       11.449   3.478  -0.416  0.00  0.00    +0.040 A 
ATOM      8  C   LIG    1       10.117   3.885  -0.406  0.00  0.00    +0.030 A 
ATOM      9  C   LIG    1        9.109   2.974  -0.296  0.00  0.00    +0.060 A 
ATOM     10  C   LIG    1        9.415   1.613  -0.192  0.00  0.00    -0.060 A 
ENDROOT
BRANCH   3  11
ATOM     11  C   LIG    1       10.555  -2.452   0.101  0.00  0.00    -0.060 A 
ATOM     12  C   LIG    1        9.595  -3.456   0.216  0.00  0.00    +0.030 A 
ATOM     13  C   LIG    1        9.988  -4.776   0.303  0.00  0.00    +0.010 A 
ATOM     14  C   LIG    1       11.332  -5.103   0.286  0.00  0.00    +0.030 A 
ATOM     15  C   LIG    1       12.290  -4.110   0.177  0.00  0.00    +0.010 A 
ATOM     16  C   LIG    1       11.908  -2.787   0.085  0.00  0.00    +0.070 A 
ENDBRANCH   3  11
BRANCH   1  18
ATOM     17  O   LIG    1        6.613   2.143  -0.035  0.00  0.00    -0.480 OA
ATOM     18  C   LIG    1        6.936   0.972  -0.057  0.00  0.00    +0.570 C 
ATOM     19  N   LIG    1        5.990   0.012  -0.068  0.00  0.00    -0.620 N 
ATOM     20  H   LIG    1        6.248  -0.923  -0.086  0.00  0.00    +0.430 HD
BRANCH  19  21
ATOM     21  C   LIG    1        4.650   0.360  -0.054  0.00  0.00    +0.320 A 
ATOM     22  N   LIG    1        3.673  -0.479  -0.063  0.00  0.00    -0.490 NA
ATOM     23  C   LIG    1        2.419   0.015  -0.047  0.00  0.00    +0.110 A 
ATOM     24  C   LIG    1        1.193  -0.686  -0.051  0.00  0.00    +0.010 A 
ATOM     25  C   LIG    1        0.002  -0.004  -0.031  0.00  0.00    +0.060 A 
ATOM     26  C   LIG    1       -0.017   1.383  -0.007  0.00  0.00    +0.050 A 
ATOM     27  C   LIG    1        1.167   2.087  -0.003  0.00  0.00    +0.080 A 
ATOM     28 CL   LIG    1        1.192  -2.422  -0.081  0.00  0.00    -0.050 Cl
ATOM     29  C   LIG    1        2.385   1.412  -0.022  0.00  0.00    -0.210 A 
ATOM     30  S   LIG    1        4.042   2.009  -0.022  0.00  0.00    +0.200 S 
ENDBRANCH  19  21
ENDBRANCH   1  18
TORSDOF 3
