REMARK  Name = ZINCqj00000ryfXu.0
REMARK                            x       y       z     vdW  Elec       q    Type
REMARK                         _______ _______ _______ _____ _____    ______ ____
ROOT
ATOM      1  N   LIG    1        1.295   2.816   8.267  0.00  0.00    -0.490 N 
ATOM      2  H   LIG    1        0.388   2.389   8.383  0.00  0.00    +0.420 HD
ATOM      3  H   LIG    1        1.189   3.817   8.195  0.00  0.00    +0.440 HD
ENDROOT
BRANCH   1   6
ATOM      4  C   LIG    1        2.178   4.254  10.610  0.00  0.00    +0.180 C 
ATOM      5  C   LIG    1        3.216   3.554   9.716  0.00  0.00    +0.090 C 
ATOM      6  C   LIG    1        2.139   2.495   9.425  0.00  0.00    +0.150 C 
ATOM      7  C   LIG    1        1.512   2.883  10.770  0.00  0.00    -0.100 C 
ATOM      8  C   LIG    1        2.048   2.075  11.951  0.00  0.00    +0.120 C 
ATOM      9  C   LIG    1        1.387   0.693  11.950  0.00  0.00    +0.270 C 
ATOM     10  N   LIG    1       -0.071   0.846  12.017  0.00  0.00    -0.510 N 
ATOM     11  C   LIG    1       -0.565   1.507  10.803  0.00  0.00    +0.260 C 
ATOM     12  H   LIG    1       -0.498  -0.065  12.099  0.00  0.00    +0.440 HD
ATOM     13  H   LIG    1       -0.312   1.402  12.823  0.00  0.00    +0.440 HD
ATOM     14  C   LIG    1       -0.015   2.936  10.740  0.00  0.00    +0.080 C 
BRANCH   4  16
ATOM     15  C   LIG    1        1.597   6.560  10.309  0.00  0.00    +0.260 C 
ATOM     16  O   LIG    1        1.371   5.206   9.913  0.00  0.00    -0.390 OA
ENDBRANCH   4  16
ENDBRANCH   1   6
BRANCH   1  17
ATOM     17  C   LIG    1        1.925   2.301   7.044  0.00  0.00    +0.320 C 
BRANCH  17  18
ATOM     18  C   LIG    1        1.059   2.631   5.856  0.00  0.00    -0.160 A 
ATOM     19  C   LIG    1        1.244   3.819   5.174  0.00  0.00    +0.060 A 
ATOM     20  C   LIG    1        0.450   4.121   4.083  0.00  0.00    +0.050 A 
ATOM     21  C   LIG    1       -0.529   3.234   3.675  0.00  0.00    -0.050 A 
ATOM     22  C   LIG    1       -0.718   2.049   4.360  0.00  0.00    +0.020 A 
ATOM     23  C   LIG    1        0.080   1.744   5.447  0.00  0.00    +0.040 A 
BRANCH  21  24
ATOM     24  C   LIG    1       -1.395   3.563   2.486  0.00  0.00    +0.250 C 
BRANCH  24  25
ATOM     25  N   LIG    1       -0.764   3.049   1.263  0.00  0.00    -0.540 NA
ATOM     26  C   LIG    1       -0.729   1.579   1.267  0.00  0.00    +0.200 C 
ATOM     27  C   LIG    1       -0.013   1.086   0.008  0.00  0.00    +0.280 C 
ATOM     28  N   LIG    1       -0.723   1.572  -1.182  0.00  0.00    -0.510 N 
ATOM     29  C   LIG    1       -0.729   3.041  -1.185  0.00  0.00    +0.280 C 
ATOM     30  H   LIG    1       -1.673   1.233  -1.169  0.00  0.00    +0.430 HD
ATOM     31  H   LIG    1       -0.258   1.236  -2.012  0.00  0.00    +0.440 HD
ATOM     32  C   LIG    1       -1.451   3.551   0.065  0.00  0.00    +0.220 C 
ENDBRANCH  24  25
ENDBRANCH  21  24
ENDBRANCH  17  18
ENDBRANCH   1  17
TORSDOF 6
