REMARK  Name = ZINCpe000000XKzo.0
REMARK                            x       y       z     vdW  Elec       q    Type
REMARK                         _______ _______ _______ _____ _____    ______ ____
ROOT
ATOM      1  C   LIG    1       -0.092  -2.041  -1.693  0.00  0.00    +0.580 C 
ATOM      2  N   LIG    1        0.645  -2.635  -0.734  0.00  0.00    -0.600 N 
ATOM      3  C   LIG    1        0.581  -4.090  -0.526  0.00  0.00    +0.230 C 
ATOM      4  C   LIG    1        0.317  -4.358   0.960  0.00  0.00    +0.220 C 
ATOM      5  N   LIG    1        1.326  -3.659   1.767  0.00  0.00    -0.680 NA
ATOM      6  H   LIG    1        2.254  -3.990   1.552  0.00  0.00    +0.340 HD
ATOM      7  C   LIG    1        1.233  -2.203   1.592  0.00  0.00    +0.250 C 
ATOM      8  C   LIG    1        1.534  -1.847   0.133  0.00  0.00    +0.290 C 
ATOM      9  O   LIG    1        0.023  -0.848  -1.896  0.00  0.00    -0.480 OA
ENDROOT
BRANCH   1  17
ATOM     10  C   LIG    1       -2.826  -6.537  -6.883  0.00  0.00    +0.180 C 
ATOM     11  C   LIG    1       -2.539  -5.604  -5.735  0.00  0.00    +0.120 A 
ATOM     12  N   LIG    1       -1.358  -5.130  -5.414  0.00  0.00    -0.310 NA
ATOM     13  N   LIG    1       -1.493  -4.300  -4.295  0.00  0.00    -0.310 N 
ATOM     14  C   LIG    1       -2.820  -4.287  -3.944  0.00  0.00    +0.260 A 
ATOM     15  N   LIG    1       -3.248  -3.567  -2.896  0.00  0.00    -0.460 NA
ATOM     16  C   LIG    1       -2.416  -2.857  -2.176  0.00  0.00    +0.400 A 
ATOM     17  C   LIG    1       -1.038  -2.838  -2.498  0.00  0.00    -0.240 A 
ATOM     18  C   LIG    1       -0.593  -3.573  -3.579  0.00  0.00    +0.240 A 
ATOM     19  C   LIG    1        0.866  -3.574  -3.955  0.00  0.00    +0.170 C 
ATOM     20  C   LIG    1       -3.483  -5.105  -4.847  0.00  0.00    -0.090 A 
ENDBRANCH   1  17
BRANCH   8  21
ATOM     21  C   LIG    1        1.286  -0.377  -0.091  0.00  0.00    +0.220 A 
ATOM     22  N   LIG    1        0.142   0.232   0.056  0.00  0.00    -0.460 NA
ATOM     23  C   LIG    1        0.295   1.534  -0.229  0.00  0.00    +0.150 A 
ATOM     24  C   LIG    1        1.582   1.739  -0.565  0.00  0.00    +0.110 A 
ATOM     25  N   LIG    1        2.212   0.527  -0.478  0.00  0.00    -0.450 N 
ATOM     26  C   LIG    1        3.627   0.260  -0.752  0.00  0.00    +0.310 C 
ENDBRANCH   8  21
TORSDOF 2
