REMARK  Name = ZINCrg00001Jdv52.0
REMARK                            x       y       z     vdW  Elec       q    Type
REMARK                         _______ _______ _______ _____ _____    ______ ____
ROOT
ATOM      1  C   LIG    1        1.840  -0.675  -1.593  0.00  0.00    +0.500 C 
ATOM      2  N   LIG    1        2.588   0.422  -1.363  0.00  0.00    -0.720 N 
ATOM      3  H   LIG    1        3.166   0.770  -2.060  0.00  0.00    +0.410 HD
ATOM      4  O   LIG    1        1.186  -1.162  -0.695  0.00  0.00    -0.530 OA
ENDROOT
BRANCH   1   8
ATOM      5  C   LIG    1        0.072  -2.779  -3.679  0.00  0.00    +0.170 C 
ATOM      6  C   LIG    1        0.176  -1.633  -4.716  0.00  0.00    +0.070 C 
ATOM      7  C   LIG    1        0.853  -0.511  -3.881  0.00  0.00    +0.040 C 
ATOM      8  C   LIG    1        1.816  -1.296  -2.966  0.00  0.00    +0.180 C 
ATOM      9  N   LIG    1        1.313  -2.680  -2.881  0.00  0.00    -0.640 NA
ATOM     10  H   LIG    1        1.148  -2.947  -1.922  0.00  0.00    +0.360 HD
BRANCH   5  11
ATOM     11  C   LIG    1        0.002  -4.113  -4.376  0.00  0.00    +0.470 C 
ATOM     12  O   LIG    1        1.004  -4.774  -4.518  0.00  0.00    -0.480 OA
BRANCH  11  13
ATOM     13  O   LIG    1       -1.173  -4.567  -4.840  0.00  0.00    -0.360 OA
BRANCH  13  15
ATOM     14  C   LIG    1       -2.584  -6.207  -5.958  0.00  0.00    +0.070 C 
ATOM     15  C   LIG    1       -1.165  -5.860  -5.501  0.00  0.00    +0.200 C 
ENDBRANCH  13  15
ENDBRANCH  11  13
ENDBRANCH   5  11
ENDBRANCH   1   8
BRANCH   2  16
ATOM     16  C   LIG    1        2.529   1.089  -0.060  0.00  0.00    +0.320 C 
BRANCH  16  17
ATOM     17  C   LIG    1        3.770   1.922   0.135  0.00  0.00    -0.150 A 
ATOM     18  C   LIG    1        4.294   2.638  -0.926  0.00  0.00    +0.050 A 
ATOM     19  C   LIG    1        5.428   3.406  -0.749  0.00  0.00    -0.080 A 
ATOM     20  C   LIG    1        6.048   3.451   0.492  0.00  0.00    +0.140 A 
ATOM     21  C   LIG    1        5.523   2.728   1.553  0.00  0.00    -0.020 A 
ATOM     22  C   LIG    1        4.385   1.965   1.372  0.00  0.00    +0.100 A 
BRANCH  20  23
ATOM     23  O   LIG    1        7.166   4.203   0.668  0.00  0.00    -0.320 OA
ATOM     24  C   LIG    1        7.650   4.921  -0.469  0.00  0.00    +0.250 C 
ENDBRANCH  20  23
ENDBRANCH  16  17
BRANCH  16  25
ATOM     25  C   LIG    1        1.295   1.992  -0.005  0.00  0.00    +0.100 C 
BRANCH  25  26
ATOM     26  C   LIG    1        1.142   2.549   1.387  0.00  0.00    +0.470 C 
ATOM     27  O   LIG    1        1.865   2.163   2.275  0.00  0.00    -0.500 OA
BRANCH  26  28
ATOM     28  O   LIG    1        0.199   3.470   1.642  0.00  0.00    -0.360 OA
ATOM     29  C   LIG    1        0.105   3.957   3.006  0.00  0.00    +0.260 C 
ENDBRANCH  26  28
ENDBRANCH  25  26
ENDBRANCH  16  25
ENDBRANCH   2  16
TORSDOF 10
