REMARK  Name = ZINCvU0000000DDx.0
REMARK                            x       y       z     vdW  Elec       q    Type
REMARK                         _______ _______ _______ _____ _____    ______ ____
ROOT
ATOM      1  N   LIG    1        3.709   2.006   0.498  0.00  0.00    -0.610 N 
ATOM      2  C   LIG    1        4.248   1.969  -0.735  0.00  0.00    +0.510 C 
ATOM      3  C   LIG    1        3.264   0.989  -1.316  0.00  0.00    +0.180 C 
ATOM      4  O   LIG    1        5.207   2.535  -1.216  0.00  0.00    -0.490 OA
ATOM      5  C   LIG    1        2.675   1.053   0.093  0.00  0.00    +0.290 C 
ENDROOT
BRANCH   5   6
ATOM      6  C   LIG    1        1.287   1.639   0.126  0.00  0.00    -0.100 A 
ATOM      7  C   LIG    1        1.114   3.010   0.091  0.00  0.00    +0.040 A 
ATOM      8  C   LIG    1       -0.159   3.548   0.121  0.00  0.00    +0.030 A 
ATOM      9  C   LIG    1       -1.260   2.715   0.187  0.00  0.00    +0.060 A 
ATOM     10  C   LIG    1       -1.088   1.343   0.217  0.00  0.00    -0.090 A 
ATOM     11 BR   LIG    1       -2.594   0.202   0.300  0.00  0.00    -0.040 Br
ATOM     12  C   LIG    1        0.186   0.805   0.192  0.00  0.00    +0.070 A 
ENDBRANCH   5   6
BRANCH   1  13
ATOM     13  C   LIG    1        4.027   2.714   1.741  0.00  0.00    +0.380 C 
BRANCH  13  18
ATOM     14  C   LIG    1        7.208   1.253   3.167  0.00  0.00    +0.140 A 
ATOM     15  C   LIG    1        6.704   0.343   4.086  0.00  0.00    +0.030 A 
ATOM     16  C   LIG    1        5.338   0.205   4.241  0.00  0.00    +0.030 A 
ATOM     17  C   LIG    1        4.474   0.976   3.486  0.00  0.00    +0.010 A 
ATOM     18  C   LIG    1        4.973   1.879   2.566  0.00  0.00    -0.100 A 
ATOM     19  C   LIG    1        6.337   2.022   2.406  0.00  0.00    +0.010 A 
BRANCH  14  22
ATOM     20  C   LIG    1       10.886   1.531   3.922  0.00  0.00    +0.110 C 
ATOM     21  C   LIG    1        9.408   1.278   4.073  0.00  0.00    +0.510 C 
ATOM     22  N   LIG    1        8.591   1.395   3.007  0.00  0.00    -0.680 N 
ATOM     23  H   LIG    1        8.962   1.579   2.130  0.00  0.00    +0.410 HD
ATOM     24  O   LIG    1        8.953   0.968   5.154  0.00  0.00    -0.530 OA
ENDBRANCH  14  22
ENDBRANCH  13  18
ENDBRANCH   1  13
BRANCH   3  25
ATOM     25  O   LIG    1        3.828  -0.277  -1.663  0.00  0.00    -0.270 OA
BRANCH  25  26
ATOM     26  C   LIG    1        3.947  -0.558  -2.988  0.00  0.00    +0.090 A 
ATOM     27  C   LIG    1        3.472   0.338  -3.933  0.00  0.00    -0.040 A 
ATOM     28  C   LIG    1        3.595   0.051  -5.279  0.00  0.00    +0.050 A 
ATOM     29  C   LIG    1        4.191  -1.128  -5.685  0.00  0.00    +0.020 A 
ATOM     30  C   LIG    1        4.666  -2.025  -4.746  0.00  0.00    +0.030 A 
ATOM     31  C   LIG    1        4.551  -1.740  -3.397  0.00  0.00    +0.080 A 
ATOM     32  F   LIG    1        5.021  -2.613  -2.479  0.00  0.00    -0.130 F 
ENDBRANCH  25  26
ENDBRANCH   3  25
TORSDOF 6
