REMARK  Name = ZINCrg000000nsJV.0
REMARK                            x       y       z     vdW  Elec       q    Type
REMARK                         _______ _______ _______ _____ _____    ______ ____
ROOT
ATOM      1  N   LIG    1       -7.067   3.413   1.335  0.00  0.00    -0.660 N 
ATOM      2  H   LIG    1       -7.850   2.844   1.270  0.00  0.00    +0.420 HD
ATOM      3  C   LIG    1       -7.213   4.749   1.444  0.00  0.00    +0.500 C 
ATOM      4  O   LIG    1       -6.236   5.468   1.439  0.00  0.00    -0.510 OA
ENDROOT
BRANCH   1  10
ATOM      5  N   LIG    1       -2.002   1.306   1.188  0.00  0.00    -0.380 N 
ATOM      6  N   LIG    1       -1.333   2.321   0.497  0.00  0.00    -0.230 NA
ATOM      7  C   LIG    1       -2.163   3.277   0.194  0.00  0.00    +0.280 A 
ATOM      8  C   LIG    1       -3.475   2.906   0.712  0.00  0.00    -0.210 A 
ATOM      9  C   LIG    1       -4.735   3.516   0.704  0.00  0.00    +0.160 A 
ATOM     10  C   LIG    1       -5.785   2.847   1.314  0.00  0.00    +0.040 A 
ATOM     11  C   LIG    1       -5.554   1.607   1.906  0.00  0.00    +0.330 A 
ATOM     12  N   LIG    1       -4.361   1.056   1.901  0.00  0.00    -0.490 NA
ATOM     13  C   LIG    1       -3.320   1.650   1.332  0.00  0.00    +0.300 A 
BRANCH   5  15
ATOM     14  C   LIG    1       -0.272   0.417   2.671  0.00  0.00    +0.050 C 
ATOM     15  C   LIG    1       -1.388   0.071   1.684  0.00  0.00    +0.270 C 
ATOM     16  C   LIG    1       -0.805  -0.716   0.509  0.00  0.00    +0.050 C 
ENDBRANCH   5  15
ENDBRANCH   1  10
BRANCH   3  17
ATOM     17  C   LIG    1       -8.589   5.349   1.572  0.00  0.00    +0.360 C 
BRANCH  17  18
ATOM     18  N   LIG    1       -8.479   6.806   1.676  0.00  0.00    -0.530 N 
ATOM     19  C   LIG    1       -8.499   7.567   0.552  0.00  0.00    +0.630 A 
ATOM     20  N   LIG    1       -8.406   8.864   0.571  0.00  0.00    -0.530 NA
ATOM     21  C   LIG    1       -8.283   9.549   1.719  0.00  0.00    +0.330 A 
ATOM     22  C   LIG    1       -8.252   8.847   2.935  0.00  0.00    -0.340 A 
ATOM     23  C   LIG    1       -8.117   9.798   3.963  0.00  0.00    +0.330 A 
ATOM     24  N   LIG    1       -8.069  10.984   3.421  0.00  0.00    -0.270 NA
ATOM     25  N   LIG    1       -8.169  10.866   2.029  0.00  0.00    -0.350 N 
ATOM     26  C   LIG    1       -8.153  11.975   1.071  0.00  0.00    +0.370 C 
ATOM     27  C   LIG    1       -8.363   7.389   2.892  0.00  0.00    +0.580 A 
ATOM     28  O   LIG    1       -8.348   6.724   3.913  0.00  0.00    -0.510 OA
ENDBRANCH  17  18
ENDBRANCH   3  17
TORSDOF 4
