REMARK  Name = ZINCbw0000000HhN.0
REMARK                            x       y       z     vdW  Elec       q    Type
REMARK                         _______ _______ _______ _____ _____    ______ ____
ROOT
ATOM      1  C   LIG    1       -0.059   4.497   0.026  0.00  0.00    -0.080 A 
ATOM      2  C   LIG    1        1.148   3.822   0.012  0.00  0.00    +0.030 A 
ATOM      3  C   LIG    1        1.167   2.440   0.004  0.00  0.00    +0.030 A 
ATOM      4  C   LIG    1       -0.021   1.732   0.012  0.00  0.00    -0.030 A 
ATOM      5  C   LIG    1       -1.229   2.407   0.021  0.00  0.00    +0.030 A 
ATOM      6 CL   LIG    1        0.002  -0.004   0.002  0.00  0.00    -0.070 Cl
ATOM      7  C   LIG    1       -1.247   3.789   0.034  0.00  0.00    +0.040 A 
ENDROOT
BRANCH   1   9
ATOM      8  C   LIG    1       -0.796   6.497   1.293  0.00  0.00    +0.070 C 
ATOM      9  C   LIG    1       -0.079   6.003   0.034  0.00  0.00    -0.020 C 
BRANCH   9  10
ATOM     10  C   LIG    1       -0.808   6.502  -1.187  0.00  0.00    +0.450 C 
ATOM     11  O   LIG    1       -0.238   7.208  -1.984  0.00  0.00    -0.450 OA
ENDBRANCH   9  10
ENDBRANCH   1   9
TORSDOF 2
