REMARK  Name = ZINCvU0000000H2Z.0
REMARK                            x       y       z     vdW  Elec       q    Type
REMARK                         _______ _______ _______ _____ _____    ______ ____
ROOT
ATOM      1  C   LIG    1       -1.179   6.165   0.838  0.00  0.00    +0.520 C 
ATOM      2  N   LIG    1       -1.357   7.496   0.951  0.00  0.00    -0.600 N 
ATOM      3  O   LIG    1       -0.088   5.721   0.550  0.00  0.00    -0.500 OA
ENDROOT
BRANCH   1   5
ATOM      4  C   LIG    1       -2.605   5.110   2.572  0.00  0.00    +0.060 C 
ATOM      5  C   LIG    1       -2.336   5.227   1.070  0.00  0.00    +0.160 C 
BRANCH   5   6
ATOM      6  O   LIG    1       -2.018   3.938   0.541  0.00  0.00    -0.260 OA
BRANCH   6   7
ATOM      7  C   LIG    1       -3.060   3.155   0.158  0.00  0.00    +0.160 A 
ATOM      8  C   LIG    1       -4.344   3.561   0.384  0.00  0.00    -0.090 A 
ATOM      9  C   LIG    1       -5.424   2.772  -0.002  0.00  0.00    +0.060 A 
ATOM     10  C   LIG    1       -5.231   1.572  -0.616  0.00  0.00    -0.010 A 
ATOM     11  C   LIG    1       -3.924   1.120  -0.867  0.00  0.00    -0.070 A 
ATOM     12  C   LIG    1       -3.685  -0.114  -1.500  0.00  0.00    +0.070 A 
ATOM     13  C   LIG    1       -2.388  -0.489  -1.710  0.00  0.00    -0.020 A 
ATOM     14  C   LIG    1       -1.349   0.343  -1.301  0.00  0.00    +0.280 A 
ATOM     15  N   LIG    1       -1.576   1.492  -0.712  0.00  0.00    -0.450 NA
ATOM     16  C   LIG    1       -2.821   1.918  -0.477  0.00  0.00    +0.110 A 
ENDBRANCH   6   7
ENDBRANCH   5   6
ENDBRANCH   1   5
BRANCH   2  17
ATOM     17  C   LIG    1       -0.272   8.413   0.596  0.00  0.00    +0.340 C 
BRANCH  17  18
ATOM     18  C   LIG    1       -0.447   8.872  -0.829  0.00  0.00    -0.110 A 
ATOM     19  C   LIG    1        0.050   8.107  -1.867  0.00  0.00    +0.030 A 
ATOM     20  C   LIG    1       -0.116   8.525  -3.174  0.00  0.00    +0.000 A 
ATOM     21  C   LIG    1       -0.768   9.713  -3.442  0.00  0.00    +0.010 A 
ATOM     22  C   LIG    1       -1.261  10.481  -2.403  0.00  0.00    +0.000 A 
ATOM     23  C   LIG    1       -1.100  10.060  -1.097  0.00  0.00    +0.010 A 
ENDBRANCH  17  18
ENDBRANCH   2  17
BRANCH   2  24
ATOM     24  C   LIG    1       -2.637   8.025   1.429  0.00  0.00    +0.280 C 
BRANCH  24  25
ATOM     25  C   LIG    1       -2.537   8.328   2.926  0.00  0.00    +0.050 C 
BRANCH  25  26
ATOM     26  C   LIG    1       -3.891   8.736   3.447  0.00  0.00    -0.080 A 
ATOM     27  C   LIG    1       -4.260  10.068   3.444  0.00  0.00    +0.010 A 
ATOM     28  C   LIG    1       -5.503  10.442   3.918  0.00  0.00    +0.000 A 
ATOM     29  C   LIG    1       -6.374   9.485   4.405  0.00  0.00    +0.000 A 
ATOM     30  C   LIG    1       -6.003   8.153   4.413  0.00  0.00    +0.000 A 
ATOM     31  C   LIG    1       -4.761   7.779   3.934  0.00  0.00    +0.000 A 
ENDBRANCH  25  26
ENDBRANCH  24  25
ENDBRANCH   2  24
TORSDOF 8
