REMARK  Name = ZINCvU0000000Jcf.0
REMARK                            x       y       z     vdW  Elec       q    Type
REMARK                         _______ _______ _______ _____ _____    ______ ____
ROOT
ATOM      1  O   LIG    1        3.549   2.110  -0.021  0.00  0.00    -0.220 OA
ENDROOT
BRANCH   1   2
ATOM      2  C   LIG    1        4.343   2.007  -1.113  0.00  0.00    +0.420 A 
ATOM      3  C   LIG    1        5.617   2.622  -1.134  0.00  0.00    -0.190 A 
ATOM      4  C   LIG    1        6.298   3.417  -0.119  0.00  0.00    +0.010 A 
ATOM      5  C   LIG    1        7.508   3.848  -0.478  0.00  0.00    -0.010 A 
ATOM      6  S   LIG    1        7.918   3.317  -2.098  0.00  0.00    +0.210 S 
ATOM      7  C   LIG    1        6.386   2.478  -2.291  0.00  0.00    +0.110 A 
ATOM      8  N   LIG    1        5.893   1.773  -3.316  0.00  0.00    -0.510 NA
ATOM      9  C   LIG    1        4.704   1.220  -3.247  0.00  0.00    +0.380 A 
ATOM     10  C   LIG    1        4.195   0.436  -4.429  0.00  0.00    +0.180 C 
ATOM     11  N   LIG    1        3.942   1.324  -2.173  0.00  0.00    -0.560 NA
BRANCH   4  12
ATOM     12  C   LIG    1        5.699   3.718   1.198  0.00  0.00    -0.140 A 
ATOM     13  C   LIG    1        6.305   3.536   2.389  0.00  0.00    +0.020 A 
ATOM     14  C   LIG    1        5.543   3.895   3.484  0.00  0.00    +0.000 A 
ATOM     15  C   LIG    1        4.324   4.357   3.197  0.00  0.00    -0.050 A 
ATOM     16  S   LIG    1        4.083   4.363   1.455  0.00  0.00    +0.160 S 
ENDBRANCH   4  12
ENDBRANCH   1   2
BRANCH   1  20
ATOM     17  C   LIG    1        0.029  -0.048   0.026  0.00  0.00    +0.120 A 
ATOM     18  C   LIG    1       -0.006   1.336  -0.079  0.00  0.00    +0.000 A 
ATOM     19  C   LIG    1        1.171   2.057  -0.094  0.00  0.00    +0.050 A 
ATOM     20  C   LIG    1        2.389   1.399  -0.006  0.00  0.00    +0.060 A 
ATOM     21  C   LIG    1        2.425   0.016   0.099  0.00  0.00    +0.040 A 
ATOM     22  C   LIG    1        1.249  -0.706   0.115  0.00  0.00    -0.020 A 
BRANCH  17  28
ATOM     23  C   LIG    1       -4.868  -2.724   2.747  0.00  0.00    +0.090 C 
ATOM     24  C   LIG    1       -3.868  -3.288   1.772  0.00  0.00    +0.510 C 
ATOM     25  N   LIG    1       -3.190  -2.464   0.949  0.00  0.00    -0.620 N 
ATOM     26  C   LIG    1       -2.208  -2.994  -0.009  0.00  0.00    +0.290 C 
ATOM     27  C   LIG    1       -0.897  -2.219   0.158  0.00  0.00    +0.190 C 
ATOM     28  N   LIG    1       -1.164  -0.780   0.042  0.00  0.00    -0.490 N 
ATOM     29  C   LIG    1       -2.052  -0.314   1.115  0.00  0.00    +0.190 C 
ATOM     30  C   LIG    1       -3.411  -1.010   0.987  0.00  0.00    +0.290 C 
ATOM     31  O   LIG    1       -3.672  -4.484   1.728  0.00  0.00    -0.540 OA
ENDBRANCH  17  28
ENDBRANCH   1  20
TORSDOF 4
