REMARK  Name = ZINCpk00000kTiik.1
REMARK                            x       y       z     vdW  Elec       q    Type
REMARK                         _______ _______ _______ _____ _____    ______ ____
ROOT
ATOM      1  C   LIG    1       -0.786   1.611  -1.219  0.00  0.00    +0.100 C 
ATOM      2  C   LIG    1       -1.544   2.853  -0.688  0.00  0.00    +0.020 C 
ATOM      3  C   LIG    1       -1.965   2.413   0.737  0.00  0.00    +0.170 C 
ATOM      4  C   LIG    1       -0.761   1.596   1.252  0.00  0.00    +0.000 C 
ATOM      5  C   LIG    1       -0.013   1.086   0.008  0.00  0.00    +0.060 C 
ENDROOT
BRANCH   1  13
ATOM      6  C   LIG    1       -1.416   1.700  -4.262  0.00  0.00    +0.350 C 
ATOM      7  N   LIG    1       -0.125   2.039  -3.657  0.00  0.00    -0.550 N 
ATOM      8  C   LIG    1        0.977   2.442  -4.322  0.00  0.00    +0.650 A 
ATOM      9  N   LIG    1        1.948   2.647  -3.408  0.00  0.00    -0.550 N 
ATOM     10  H   LIG    1        2.855   2.938  -3.588  0.00  0.00    +0.460 HD
ATOM     11  N   LIG    1        1.401   2.361  -2.149  0.00  0.00    -0.270 NA
ATOM     12  O   LIG    1        1.078   2.589  -5.527  0.00  0.00    -0.550 OA
ATOM     13  C   LIG    1        0.169   2.005  -2.316  0.00  0.00    +0.290 A 
ENDBRANCH   1  13
BRANCH   3  14
ATOM     14  O   LIG    1       -3.139   1.600   0.682  0.00  0.00    -0.550 OA
ATOM     15  H   LIG    1       -3.911   2.048   0.312  0.00  0.00    +0.380 HD
ENDBRANCH   3  14
BRANCH   4  16
ATOM     16  C   LIG    1       -1.250   0.414   2.091  0.00  0.00    +0.290 C 
BRANCH  16  17
ATOM     17  N   LIG    1       -1.855   0.911   3.329  0.00  0.00    -0.720 N 
ATOM     18  H   LIG    1       -1.893   1.864   3.502  0.00  0.00    +0.400 HD
BRANCH  17  19
ATOM     19  C   LIG    1       -2.374   0.014   4.258  0.00  0.00    +0.310 A 
ATOM     20  C   LIG    1       -2.335  -1.360   4.026  0.00  0.00    -0.110 A 
ATOM     21  C   LIG    1       -2.856  -2.215   4.975  0.00  0.00    +0.330 A 
ATOM     22  N   LIG    1       -3.396  -1.747   6.084  0.00  0.00    -0.520 NA
ATOM     23  C   LIG    1       -3.458  -0.453   6.338  0.00  0.00    +0.360 A 
ATOM     24  C   LIG    1       -2.954   0.468   5.444  0.00  0.00    -0.330 A 
BRANCH  24  25
ATOM     25  C   LIG    1       -3.029   1.943   5.742  0.00  0.00    +0.520 C 
ATOM     26  F   LIG    1       -3.770   2.584   4.744  0.00  0.00    -0.180 F 
ATOM     27  F   LIG    1       -1.736   2.477   5.779  0.00  0.00    -0.180 F 
ATOM     28  F   LIG    1       -3.649   2.137   6.981  0.00  0.00    -0.170 F 
ENDBRANCH  24  25
ENDBRANCH  17  19
ENDBRANCH  16  17
ENDBRANCH   4  16
TORSDOF 6
