REMARK  Name = ZINCtV00001bB35M.0
REMARK                            x       y       z     vdW  Elec       q    Type
REMARK                         _______ _______ _______ _____ _____    ______ ____
ROOT
ATOM      1  C   LIG    1       -5.849   1.406  -0.037  0.00  0.00    -0.060 A 
ATOM      2  C   LIG    1       -5.980   2.795   0.045  0.00  0.00    +0.060 A 
ATOM      3  C   LIG    1       -4.856   3.591   0.072  0.00  0.00    +0.010 A 
ATOM      4  C   LIG    1       -3.591   3.013   0.018  0.00  0.00    +0.170 A 
ATOM      5  C   LIG    1       -3.457   1.632  -0.070  0.00  0.00    +0.000 A 
ATOM      6  C   LIG    1       -4.576   0.829  -0.092  0.00  0.00    +0.080 A 
ENDROOT
BRANCH   1   8
ATOM      7  N   LIG    1       -6.925  -0.739  -0.142  0.00  0.00    -0.230 NA
ATOM      8  C   LIG    1       -7.049   0.550  -0.066  0.00  0.00    +0.250 C 
BRANCH   7  10
ATOM      9  C   LIG    1       -7.938  -2.891  -0.248  0.00  0.00    +0.680 C 
ATOM     10  N   LIG    1       -8.066  -1.552  -0.169  0.00  0.00    -0.560 N 
ATOM     11  H   LIG    1       -8.948  -1.151  -0.131  0.00  0.00    +0.410 HD
ATOM     12  O   LIG    1       -8.927  -3.596  -0.272  0.00  0.00    -0.550 OA
BRANCH   9  13
ATOM     13  O   LIG    1       -6.713  -3.448  -0.301  0.00  0.00    -0.340 OA
BRANCH  13  15
ATOM     14  C   LIG    1       -7.370  -5.365  -1.652  0.00  0.00    +0.030 C 
ATOM     15  C   LIG    1       -6.650  -4.896  -0.386  0.00  0.00    +0.130 C 
ATOM     16  C   LIG    1       -7.327  -5.508   0.842  0.00  0.00    +0.030 C 
ATOM     17  C   LIG    1       -5.187  -5.342  -0.436  0.00  0.00    +0.080 C 
ENDBRANCH  13  15
ENDBRANCH   9  13
ENDBRANCH   7  10
ENDBRANCH   1   8
BRANCH   4  18
ATOM     18  N   LIG    1       -2.455   3.823   0.045  0.00  0.00    -0.540 N 
BRANCH  18  19
ATOM     19  C   LIG    1       -1.639   3.844   1.180  0.00  0.00    +0.200 A 
ATOM     20  C   LIG    1       -2.021   3.156   2.325  0.00  0.00    -0.060 A 
ATOM     21  C   LIG    1       -1.210   3.175   3.443  0.00  0.00    +0.040 A 
ATOM     22  C   LIG    1       -0.024   3.885   3.426  0.00  0.00    -0.040 A 
ATOM     23  C   LIG    1        0.357   4.575   2.290  0.00  0.00    +0.040 A 
ATOM     24  C   LIG    1       -0.446   4.557   1.167  0.00  0.00    -0.050 A 
ENDBRANCH  18  19
BRANCH  18  25
ATOM     25  C   LIG    1       -2.132   4.614  -1.062  0.00  0.00    +0.150 A 
ATOM     26  C   LIG    1       -1.679   4.019  -2.233  0.00  0.00    +0.000 A 
ATOM     27  C   LIG    1       -1.357   4.803  -3.323  0.00  0.00    +0.020 A 
ATOM     28  C   LIG    1       -1.495   6.178  -3.254  0.00  0.00    +0.010 A 
ATOM     29  C   LIG    1       -1.951   6.772  -2.091  0.00  0.00    +0.020 A 
ATOM     30  C   LIG    1       -2.271   5.994  -0.996  0.00  0.00    +0.000 A 
ENDBRANCH  18  25
ENDBRANCH   4  18
TORSDOF 7
