REMARK  Name = ZINCrg00000fSghK.0
REMARK                            x       y       z     vdW  Elec       q    Type
REMARK                         _______ _______ _______ _____ _____    ______ ____
ROOT
ATOM      1  C   LIG    1        4.445   8.093   0.004  0.00  0.00    +0.290 C 
ENDROOT
BRANCH   1   2
ATOM      2  C   LIG    1        5.930   7.834  -0.012  0.00  0.00    +0.520 C 
ATOM      3  N   LIG    1        6.794   8.868  -0.014  0.00  0.00    -0.690 N 
ATOM      4  H   LIG    1        6.461   9.779  -0.006  0.00  0.00    +0.410 HD
ATOM      5  C   LIG    1        8.122   8.637  -0.028  0.00  0.00    +0.700 C 
ATOM      6  N   LIG    1        8.986   9.671  -0.030  0.00  0.00    -0.730 N 
ATOM      7  H   LIG    1        8.653  10.582  -0.022  0.00  0.00    +0.400 HD
ATOM      8  O   LIG    1        8.540   7.495  -0.039  0.00  0.00    -0.520 OA
ATOM      9  O   LIG    1        6.346   6.696  -0.022  0.00  0.00    -0.430 OA
BRANCH   6  10
ATOM     10  C   LIG    1       10.430   9.419  -0.046  0.00  0.00    +0.250 C 
ATOM     11  C   LIG    1       10.924   9.199   1.385  0.00  0.00    +0.000 C 
ATOM     12  C   LIG    1       12.431   8.936   1.369  0.00  0.00    +0.020 C 
ATOM     13  C   LIG    1       13.152  10.140   0.760  0.00  0.00    +0.010 C 
ATOM     14  C   LIG    1       12.658  10.360  -0.671  0.00  0.00    +0.020 C 
ATOM     15  C   LIG    1       11.151  10.623  -0.655  0.00  0.00    +0.010 C 
ENDBRANCH   6  10
ENDBRANCH   1   2
BRANCH   1  16
ATOM     16  O   LIG    1        3.733   6.828   0.004  0.00  0.00    -0.300 OA
BRANCH  16  17
ATOM     17  C   LIG    1        2.388   6.884   0.017  0.00  0.00    +0.580 C 
ATOM     18  O   LIG    1        1.825   7.960   0.028  0.00  0.00    -0.460 OA
BRANCH  17  26
ATOM     19  C   LIG    1       -2.551   4.299   0.049  0.00  0.00    +0.170 C 
ATOM     20  C   LIG    1       -1.249   3.540   0.033  0.00  0.00    +0.200 A 
ATOM     21  C   LIG    1       -1.244   2.183   0.020  0.00  0.00    -0.030 A 
ATOM     22  C   LIG    1       -0.018   1.503   0.010  0.00  0.00    +0.240 A 
ATOM     23  N   LIG    1        1.111   2.171   0.003  0.00  0.00    -0.450 NA
ATOM     24  C   LIG    1        1.118   3.511   0.010  0.00  0.00    +0.460 A 
ATOM     25  N   LIG    1        2.102   4.398   0.006  0.00  0.00    -0.480 NA
ATOM     26  C   LIG    1        1.595   5.633   0.017  0.00  0.00    +0.250 A 
ATOM     27  N   LIG    1        0.277   5.565   0.029  0.00  0.00    -0.260 NA
ATOM     28  C   LIG    1        0.002  -0.004   0.002  0.00  0.00    +0.180 C 
ATOM     29  N   LIG    1       -0.061   4.206   0.025  0.00  0.00    -0.330 N 
ENDBRANCH  17  26
ENDBRANCH  16  17
ENDBRANCH   1  16
TORSDOF 5
