REMARK  Name = ZINCrH00000tj0Io.0
REMARK                            x       y       z     vdW  Elec       q    Type
REMARK                         _______ _______ _______ _____ _____    ______ ____
ROOT
ATOM      1  N   LIG    1       -1.737   2.830   3.652  0.00  0.00    -0.720 N 
ATOM      2  H   LIG    1       -1.613   1.868   3.648  0.00  0.00    +0.420 HD
ENDROOT
BRANCH   1  12
ATOM      3  C   LIG    1       -0.374   3.015   1.664  0.00  0.00    +0.040 A 
ATOM      4  C   LIG    1        0.203   3.799   0.678  0.00  0.00    +0.020 A 
ATOM      5  C   LIG    1        0.019   5.165   0.686  0.00  0.00    -0.190 A 
ATOM      6  C   LIG    1       -0.736   5.778   1.678  0.00  0.00    +0.120 A 
ATOM      7  O   LIG    1       -0.775   7.128   1.505  0.00  0.00    -0.300 OA
ATOM      8  C   LIG    1       -0.420   7.442   0.148  0.00  0.00    +0.170 C 
ATOM      9  C   LIG    1        0.338   8.769   0.078  0.00  0.00    +0.070 C 
ATOM     10  C   LIG    1       -1.319   4.989   2.667  0.00  0.00    -0.060 A 
ATOM     11  C   LIG    1        0.497   6.261  -0.247  0.00  0.00    +0.080 C 
ATOM     12  C   LIG    1       -1.144   3.616   2.658  0.00  0.00    +0.230 A 
BRANCH   3  13
ATOM     13  O   LIG    1       -0.195   1.666   1.658  0.00  0.00    -0.320 OA
BRANCH  13  15
ATOM     14  C   LIG    1        0.690  -0.397   0.763  0.00  0.00    +0.070 C 
ATOM     15  C   LIG    1        0.602   1.122   0.604  0.00  0.00    +0.180 C 
ENDBRANCH  13  15
ENDBRANCH   3  13
ENDBRANCH   1  12
BRANCH   1  16
ATOM     16  C   LIG    1       -2.547   3.459   4.698  0.00  0.00    +0.250 C 
ATOM     17  C   LIG    1       -1.635   3.940   5.828  0.00  0.00    +0.050 C 
BRANCH  16  18
ATOM     18  C   LIG    1       -3.534   2.458   5.240  0.00  0.00    +0.510 C 
ATOM     19  N   LIG    1       -4.390   2.817   6.218  0.00  0.00    -0.670 N 
ATOM     20  H   LIG    1       -4.320   3.694   6.625  0.00  0.00    +0.420 HD
ATOM     21  O   LIG    1       -3.559   1.330   4.796  0.00  0.00    -0.500 OA
BRANCH  19  22
ATOM     22  C   LIG    1       -5.376   1.926   6.643  0.00  0.00    +0.180 A 
ATOM     23  C   LIG    1       -5.961   1.052   5.733  0.00  0.00    +0.020 A 
ATOM     24  C   LIG    1       -6.931   0.168   6.150  0.00  0.00    +0.090 A 
ATOM     25  C   LIG    1       -7.336   0.158   7.488  0.00  0.00    -0.050 A 
ATOM     26  C   LIG    1       -6.749   1.042   8.399  0.00  0.00    +0.090 A 
ATOM     27  C   LIG    1       -5.776   1.919   7.976  0.00  0.00    -0.010 A 
BRANCH  25  28
ATOM     28  C   LIG    1       -8.349  -0.755   7.925  0.00  0.00    +0.250 C 
ATOM     29  N   LIG    1       -9.152  -1.479   8.271  0.00  0.00    -0.410 NA
ENDBRANCH  25  28
ENDBRANCH  19  22
ENDBRANCH  16  18
ENDBRANCH   1  16
TORSDOF 7
