REMARK  Name = ZINCrD000000BEqG.0
REMARK                            x       y       z     vdW  Elec       q    Type
REMARK                         _______ _______ _______ _____ _____    ______ ____
ROOT
ATOM      1  O   LIG    1       -2.067  -0.255   3.557  0.00  0.00    -0.530 OA
ATOM      2  C   LIG    1       -0.872  -0.031   3.572  0.00  0.00    +0.600 C 
ATOM      3  N   LIG    1       -0.151  -0.142   2.439  0.00  0.00    -0.720 N 
ATOM      4  H   LIG    1        0.803   0.036   2.451  0.00  0.00    +0.390 HD
ENDROOT
BRANCH   2   5
ATOM      5  C   LIG    1       -0.211   0.361   4.831  0.00  0.00    -0.280 A 
ATOM      6  C   LIG    1       -0.818   0.514   6.061  0.00  0.00    +0.320 A 
ATOM      7  N   LIG    1        0.137   0.877   6.937  0.00  0.00    -0.310 N 
ATOM      8  N   LIG    1        1.357   0.955   6.256  0.00  0.00    -0.290 NA
ATOM      9  C   LIG    1        1.163   0.645   5.004  0.00  0.00    +0.280 A 
BRANCH   7  10
ATOM     10  C   LIG    1       -0.058   1.133   8.302  0.00  0.00    +0.150 A 
ATOM     11  C   LIG    1       -1.326   1.024   8.856  0.00  0.00    -0.010 A 
ATOM     12  C   LIG    1       -1.514   1.272  10.202  0.00  0.00    +0.050 A 
ATOM     13  C   LIG    1       -0.442   1.639  10.995  0.00  0.00    +0.010 A 
ATOM     14  C   LIG    1        0.822   1.754  10.444  0.00  0.00    +0.030 A 
ATOM     15  C   LIG    1        1.016   1.502   9.100  0.00  0.00    +0.030 A 
ENDBRANCH   7  10
ENDBRANCH   2   5
BRANCH   3  16
ATOM     16  C   LIG    1       -0.807  -0.532   1.189  0.00  0.00    +0.310 C 
BRANCH  16  17
ATOM     17  C   LIG    1       -0.890  -2.034   1.112  0.00  0.00    -0.100 A 
ATOM     18  C   LIG    1        0.176  -2.808   1.532  0.00  0.00    +0.010 A 
ATOM     19  C   LIG    1        0.099  -4.186   1.465  0.00  0.00    +0.000 A 
ATOM     20  C   LIG    1       -1.041  -4.791   0.971  0.00  0.00    +0.000 A 
ATOM     21  C   LIG    1       -2.105  -4.018   0.545  0.00  0.00    +0.000 A 
ATOM     22  C   LIG    1       -2.029  -2.639   0.616  0.00  0.00    +0.030 A 
ENDBRANCH  16  17
BRANCH  16  23
ATOM     23  C   LIG    1        0.002  -0.004   0.002  0.00  0.00    +0.160 C 
BRANCH  23  24
ATOM     24  C   LIG    1       -0.018   1.503   0.010  0.00  0.00    +0.210 A 
ATOM     25  N   LIG    1       -1.089   2.249   0.019  0.00  0.00    -0.480 NA
ATOM     26  C   LIG    1       -0.728   3.541   0.027  0.00  0.00    +0.150 A 
ATOM     27  C   LIG    1        0.618   3.597   0.015  0.00  0.00    +0.130 A 
ATOM     28  N   LIG    1        1.068   2.305   0.004  0.00  0.00    -0.570 N 
ATOM     29  H   LIG    1        1.995   2.018  -0.006  0.00  0.00    +0.420 HD
ENDBRANCH  23  24
ENDBRANCH  16  23
ENDBRANCH   3  16
TORSDOF 6
