REMARK  Name = ZINCpk000000mSDj.0
REMARK                            x       y       z     vdW  Elec       q    Type
REMARK                         _______ _______ _______ _____ _____    ______ ____
ROOT
ATOM      1  C   LIG    1       -0.531   4.240  -2.143  0.00  0.00    +0.570 C 
ATOM      2  N   LIG    1       -0.167   3.556  -1.040  0.00  0.00    -0.610 N 
ATOM      3  C   LIG    1        0.114   4.256   0.223  0.00  0.00    +0.290 C 
ATOM      4  C   LIG    1        1.477   3.791   0.745  0.00  0.00    +0.190 C 
ATOM      5  N   LIG    1        1.492   2.325   0.830  0.00  0.00    -0.500 NA
ATOM      6  C   LIG    1        1.331   1.712  -0.495  0.00  0.00    +0.260 C 
ATOM      7  C   LIG    1       -0.039   2.091  -1.067  0.00  0.00    +0.330 C 
ATOM      8  O   LIG    1       -0.656   3.659  -3.204  0.00  0.00    -0.530 OA
ENDROOT
BRANCH   1  16
ATOM      9  C   LIG    1       -2.119  12.084  -1.374  0.00  0.00    +0.120 C 
ATOM     10  C   LIG    1       -1.887  10.624  -1.081  0.00  0.00    +0.520 C 
ATOM     11  N   LIG    1       -1.402   9.813  -2.042  0.00  0.00    -0.560 N 
ATOM     12  C   LIG    1       -0.964  10.253  -3.369  0.00  0.00    +0.280 C 
ATOM     13  C   LIG    1       -0.501   8.974  -4.086  0.00  0.00    +0.110 C 
ATOM     14  C   LIG    1       -0.720   7.872  -3.074  0.00  0.00    -0.150 A 
ATOM     15  C   LIG    1       -0.483   6.518  -3.152  0.00  0.00    +0.120 A 
ATOM     16  C   LIG    1       -0.778   5.692  -2.063  0.00  0.00    -0.160 A 
ATOM     17  C   LIG    1       -1.304   6.254  -0.897  0.00  0.00    +0.070 A 
ATOM     18  C   LIG    1       -1.533   7.607  -0.826  0.00  0.00    +0.010 A 
ATOM     19  C   LIG    1       -1.243   8.434  -1.917  0.00  0.00    +0.170 A 
ATOM     20  O   LIG    1       -2.138  10.179   0.018  0.00  0.00    -0.520 OA
ENDBRANCH   1  16
BRANCH   5  21
ATOM     21  C   LIG    1        2.717   1.847   1.486  0.00  0.00    +0.090 C 
ATOM     22  C   LIG    1        2.559   1.044   2.778  0.00  0.00    +0.040 C 
ATOM     23  C   LIG    1        3.092   2.478   2.828  0.00  0.00    +0.030 C 
ENDBRANCH   5  21
BRANCH   6  24
ATOM     24  C   LIG    1        1.424   0.248  -0.374  0.00  0.00    +0.210 C 
ATOM     25  N   LIG    1        1.496  -0.882  -0.280  0.00  0.00    -0.400 NA
ENDBRANCH   6  24
TORSDOF 3
