REMARK  Name = ZINCpk000000p5MC.0
REMARK                            x       y       z     vdW  Elec       q    Type
REMARK                         _______ _______ _______ _____ _____    ______ ____
ROOT
ATOM      1  C   LIG    1       -5.615   8.053   2.622  0.00  0.00    +0.020 C 
ATOM      2  C   LIG    1       -4.693   8.429   3.784  0.00  0.00    +0.050 C 
ATOM      3  C   LIG    1       -3.281   7.907   3.507  0.00  0.00    +0.030 C 
ATOM      4  C   LIG    1       -3.319   6.380   3.393  0.00  0.00    +0.270 C 
ATOM      5  N   LIG    1       -4.311   6.005   2.376  0.00  0.00    -0.610 N 
ATOM      6  C   LIG    1       -3.973   5.199   1.351  0.00  0.00    +0.520 C 
ATOM      7  O   LIG    1       -4.801   4.897   0.518  0.00  0.00    -0.510 OA
ATOM      8  C   LIG    1       -5.678   6.532   2.495  0.00  0.00    +0.300 C 
ENDROOT
BRANCH   1   9
ATOM      9  C   LIG    1       -6.997   8.595   2.881  0.00  0.00    +0.470 C 
ATOM     10  O   LIG    1       -7.222   9.218   3.892  0.00  0.00    -0.500 OA
BRANCH   9  11
ATOM     11  O   LIG    1       -7.978   8.386   1.989  0.00  0.00    -0.350 OA
BRANCH  11  13
ATOM     12  C   LIG    1      -10.265   8.599   1.179  0.00  0.00    +0.070 C 
ATOM     13  C   LIG    1       -9.284   8.937   2.304  0.00  0.00    +0.200 C 
ENDBRANCH  11  13
ENDBRANCH   9  11
ENDBRANCH   1   9
BRANCH   6  14
ATOM     14  C   LIG    1       -2.565   4.671   1.240  0.00  0.00    +0.220 C 
BRANCH  14  15
ATOM     15  N   LIG    1       -2.454   3.822   0.046  0.00  0.00    -0.480 N 
ATOM     16  C   LIG    1       -2.629   4.612  -1.180  0.00  0.00    +0.210 C 
BRANCH  15  17
ATOM     17  C   LIG    1       -1.236   3.138   0.031  0.00  0.00    +0.090 A 
ATOM     18  C   LIG    1       -0.040   3.845   0.024  0.00  0.00    -0.030 A 
ATOM     19  C   LIG    1        1.162   3.165   0.008  0.00  0.00    +0.010 A 
ATOM     20  C   LIG    1        1.176   1.783   0.000  0.00  0.00    +0.000 A 
ATOM     21  C   LIG    1       -0.013   1.076   0.008  0.00  0.00    +0.020 A 
ATOM     22  C   LIG    1       -1.218   1.749   0.017  0.00  0.00    -0.060 A 
BRANCH  22  23
ATOM     23  C   LIG    1       -2.513   0.978   0.019  0.00  0.00    +0.090 C 
BRANCH  23  24
ATOM     24  C   LIG    1       -3.022   0.833  -1.416  0.00  0.00    +0.180 C 
BRANCH  24  25
ATOM     25  O   LIG    1       -4.250   0.102  -1.414  0.00  0.00    -0.570 OA
ATOM     26  H   LIG    1       -4.631  -0.029  -2.293  0.00  0.00    +0.380 HD
ENDBRANCH  24  25
ENDBRANCH  23  24
ENDBRANCH  22  23
ENDBRANCH  15  17
ENDBRANCH  14  15
ENDBRANCH   6  14
TORSDOF 9
