REMARK  Name = ZINCtV000002Mn6p.0
REMARK                            x       y       z     vdW  Elec       q    Type
REMARK                         _______ _______ _______ _____ _____    ______ ____
ROOT
ATOM      1  C   LIG    1        1.235  -0.415   0.396  0.00  0.00    +0.140 A 
ATOM      2  N   LIG    1        1.941   0.682   0.236  0.00  0.00    -0.290 NA
ATOM      3  N   LIG    1        1.164   1.705   0.198  0.00  0.00    -0.250 NA
ATOM      4  C   LIG    1       -0.085   1.325   0.332  0.00  0.00    +0.220 A 
ATOM      5  N   LIG    1       -0.078  -0.045   0.463  0.00  0.00    -0.440 N 
ENDROOT
BRANCH   4   6
ATOM      6  C   LIG    1       -1.275   2.201   0.335  0.00  0.00    -0.010 A 
ATOM      7  C   LIG    1       -2.376   1.893  -0.465  0.00  0.00    +0.040 A 
ATOM      8  C   LIG    1       -3.485   2.712  -0.454  0.00  0.00    +0.030 A 
ATOM      9  C   LIG    1       -3.505   3.845   0.340  0.00  0.00    +0.050 A 
ATOM     10  C   LIG    1       -2.416   4.161   1.133  0.00  0.00    +0.030 A 
ATOM     11  C   LIG    1       -1.301   3.347   1.135  0.00  0.00    -0.000 A 
ATOM     12 CL   LIG    1        0.065   3.744   2.130  0.00  0.00    -0.040 Cl
ENDBRANCH   4   6
BRANCH   5  13
ATOM     13  C   LIG    1       -1.238  -0.923   0.637  0.00  0.00    +0.230 C 
ATOM     14  C   LIG    1       -1.104  -1.721   1.951  0.00  0.00    +0.030 C 
ATOM     15  C   LIG    1       -1.685  -3.116   1.610  0.00  0.00    +0.030 C 
ATOM     16  C   LIG    1       -1.188  -3.347   0.161  0.00  0.00    +0.030 C 
ATOM     17  C   LIG    1       -1.291  -1.958  -0.501  0.00  0.00    +0.020 C 
ENDBRANCH   5  13
BRANCH   1  18
ATOM     18  S   LIG    1        1.865  -2.057   0.504  0.00  0.00    +0.100 S 
BRANCH  18  19
ATOM     19  C   LIG    1        3.636  -1.726   0.335  0.00  0.00    +0.100 C 
BRANCH  19  21
ATOM     20  O   LIG    1        3.803  -4.070   0.546  0.00  0.00    -0.500 OA
ATOM     21  C   LIG    1        4.398  -3.024   0.400  0.00  0.00    +0.540 C 
ATOM     22  N   LIG    1        5.742  -3.023   0.295  0.00  0.00    -0.670 N 
ATOM     23  H   LIG    1        6.224  -2.182   0.253  0.00  0.00    +0.420 HD
BRANCH  22  24
ATOM     24  C   LIG    1        6.441  -4.234   0.247  0.00  0.00    +0.150 A 
ATOM     25  C   LIG    1        7.710  -4.327   0.803  0.00  0.00    +0.000 A 
ATOM     26  C   LIG    1        8.396  -5.525   0.760  0.00  0.00    +0.050 A 
ATOM     27  C   LIG    1        7.825  -6.628   0.153  0.00  0.00    +0.040 A 
ATOM     28  C   LIG    1        6.564  -6.537  -0.408  0.00  0.00    -0.070 A 
ATOM     29 BR   LIG    1        5.787  -8.049  -1.238  0.00  0.00    -0.040 Br
ATOM     30  C   LIG    1        5.870  -5.343  -0.363  0.00  0.00    +0.060 A 
ENDBRANCH  22  24
ENDBRANCH  19  21
ENDBRANCH  18  19
ENDBRANCH   1  18
TORSDOF 6
