REMARK  Name = ZINCrD000000Cqk8.1
REMARK                            x       y       z     vdW  Elec       q    Type
REMARK                         _______ _______ _______ _____ _____    ______ ____
ROOT
ATOM      1  O   LIG    1        9.023   5.497  -4.613  0.00  0.00    -0.520 OA
ATOM      2  C   LIG    1        8.149   4.974  -5.280  0.00  0.00    +0.580 A 
ATOM      3  N   LIG    1        8.220   5.029  -6.617  0.00  0.00    -0.630 N 
ATOM      4  H   LIG    1        8.967   5.488  -7.030  0.00  0.00    +0.420 HD
ATOM      5  C   LIG    1        7.256   4.454  -7.425  0.00  0.00    +0.200 A 
ATOM      6  C   LIG    1        7.363   4.533  -8.809  0.00  0.00    -0.020 A 
ATOM      7  C   LIG    1        6.399   3.956  -9.609  0.00  0.00    +0.080 A 
ATOM      8  C   LIG    1        5.318   3.293  -9.046  0.00  0.00    +0.000 A 
ATOM      9  C   LIG    1        5.194   3.204  -7.677  0.00  0.00    +0.070 A 
ATOM     10  C   LIG    1        6.163   3.784  -6.855  0.00  0.00    -0.080 A 
ATOM     11  C   LIG    1        6.045   3.695  -5.387  0.00  0.00    -0.120 A 
ATOM     12  S   LIG    1        4.859   2.955  -4.407  0.00  0.00    +0.320 S 
ATOM     13  C   LIG    1        5.677   3.444  -2.935  0.00  0.00    -0.270 A 
ATOM     14  C   LIG    1        6.796   4.128  -3.232  0.00  0.00    +0.190 A 
ATOM     15  C   LIG    1        7.031   4.286  -4.600  0.00  0.00    -0.180 A 
ENDROOT
BRANCH  13  16
ATOM     16  C   LIG    1        5.212   3.146  -1.578  0.00  0.00    +0.550 C 
ATOM     17  O   LIG    1        5.855   3.526  -0.618  0.00  0.00    -0.490 OA
BRANCH  16  18
ATOM     18  O   LIG    1        4.071   2.451  -1.393  0.00  0.00    -0.350 OA
BRANCH  18  19
ATOM     19  C   LIG    1        3.671   2.192  -0.022  0.00  0.00    +0.300 C 
BRANCH  19  20
ATOM     20  C   LIG    1        2.383   1.409  -0.013  0.00  0.00    -0.110 A 
ATOM     21  C   LIG    1        1.170   2.085   0.002  0.00  0.00    +0.100 A 
ATOM     22  C   LIG    1       -0.017   1.386   0.010  0.00  0.00    +0.020 A 
ATOM     23  C   LIG    1        0.002  -0.004   0.002  0.00  0.00    +0.100 A 
ATOM     24  N   LIG    1       -0.974  -0.972   0.007  0.00  0.00    -0.500 N 
ATOM     25  H   LIG    1       -1.933  -0.829   0.017  0.00  0.00    +0.450 HD
ATOM     26  N   LIG    1       -0.309  -2.208  -0.006  0.00  0.00    +0.000 NA
ATOM     27  N   LIG    1        0.962  -2.010  -0.018  0.00  0.00    -0.210 NA
ATOM     28  C   LIG    1        1.230  -0.688  -0.013  0.00  0.00    -0.020 A 
ATOM     29  C   LIG    1        2.423   0.046  -0.021  0.00  0.00    +0.140 A 
ENDBRANCH  19  20
ENDBRANCH  18  19
ENDBRANCH  16  18
ENDBRANCH  13  16
TORSDOF 4
