REMARK  Name = ZINCrD000000Cqk8.0
REMARK                            x       y       z     vdW  Elec       q    Type
REMARK                         _______ _______ _______ _____ _____    ______ ____
ROOT
ATOM      1  O   LIG    1        0.130  -6.344   4.522  0.00  0.00    -0.520 OA
ATOM      2  C   LIG    1        0.123  -5.332   5.201  0.00  0.00    +0.580 A 
ATOM      3  N   LIG    1        0.139  -5.437   6.537  0.00  0.00    -0.630 N 
ATOM      4  H   LIG    1        0.155  -6.319   6.940  0.00  0.00    +0.420 HD
ATOM      5  C   LIG    1        0.131  -4.324   7.357  0.00  0.00    +0.200 A 
ATOM      6  C   LIG    1        0.147  -4.471   8.740  0.00  0.00    -0.020 A 
ATOM      7  C   LIG    1        0.140  -3.357   9.552  0.00  0.00    +0.080 A 
ATOM      8  C   LIG    1        0.117  -2.083   9.003  0.00  0.00    +0.000 A 
ATOM      9  C   LIG    1        0.101  -1.915   7.636  0.00  0.00    +0.070 A 
ATOM     10  C   LIG    1        0.108  -3.036   6.802  0.00  0.00    -0.080 A 
ATOM     11  C   LIG    1        0.092  -2.872   5.336  0.00  0.00    -0.120 A 
ATOM     12  S   LIG    1        0.071  -1.463   4.371  0.00  0.00    +0.320 S 
ATOM     13  C   LIG    1        0.062  -2.401   2.889  0.00  0.00    -0.270 A 
ATOM     14  C   LIG    1        0.083  -3.715   3.171  0.00  0.00    +0.190 A 
ATOM     15  C   LIG    1        0.100  -4.013   4.535  0.00  0.00    -0.180 A 
ENDROOT
BRANCH  13  16
ATOM     16  C   LIG    1        0.042  -1.833   1.538  0.00  0.00    +0.540 C 
ATOM     17  O   LIG    1        0.042  -2.569   0.569  0.00  0.00    -0.490 OA
BRANCH  16  18
ATOM     18  O   LIG    1        0.022  -0.495   1.368  0.00  0.00    -0.350 OA
BRANCH  18  19
ATOM     19  C   LIG    1        0.002  -0.004   0.002  0.00  0.00    +0.290 C 
BRANCH  19  20
ATOM     20  C   LIG    1       -0.018   1.503   0.010  0.00  0.00    -0.080 A 
ATOM     21  C   LIG    1       -1.214   2.148   0.020  0.00  0.00    +0.110 A 
ATOM     22  C   LIG    1       -1.242   3.554   0.033  0.00  0.00    +0.020 A 
ATOM     23  N   LIG    1       -2.172   4.495   0.047  0.00  0.00    -0.260 NA
ATOM     24  N   LIG    1       -1.598   5.647   0.047  0.00  0.00    -0.190 N 
ATOM     25  H   LIG    1       -2.082   6.488   0.056  0.00  0.00    +0.470 HD
ATOM     26  N   LIG    1       -0.313   5.564   0.034  0.00  0.00    -0.270 NA
ATOM     27  C   LIG    1        0.033   4.287   0.024  0.00  0.00    +0.030 A 
ATOM     28  C   LIG    1        1.234   3.557   0.009  0.00  0.00    +0.080 A 
ATOM     29  C   LIG    1        1.191   2.199   0.003  0.00  0.00    +0.060 A 
ENDBRANCH  19  20
ENDBRANCH  18  19
ENDBRANCH  16  18
ENDBRANCH  13  16
TORSDOF 4
