REMARK  Name = ZINCvU00000006La.0
REMARK                            x       y       z     vdW  Elec       q    Type
REMARK                         _______ _______ _______ _____ _____    ______ ____
ROOT
ATOM      1  C   LIG    1        0.002  -0.004   0.002  0.00  0.00    +0.330 C 
ENDROOT
BRANCH   1   4
ATOM      2  C   LIG    1       -1.044   3.483   0.031  0.00  0.00    +0.120 A 
ATOM      3  N   LIG    1       -1.140   2.185   0.019  0.00  0.00    -0.450 NA
ATOM      4  C   LIG    1       -0.018   1.503   0.010  0.00  0.00    +0.060 A 
ATOM      5  C   LIG    1        1.105   2.228   0.004  0.00  0.00    -0.030 A 
ATOM      6  S   LIG    1        0.660   3.933   0.017  0.00  0.00    +0.120 S 
BRANCH   2  11
ATOM      7  C   LIG    1       -3.025   6.686   0.067  0.00  0.00    -0.120 A 
ATOM      8  C   LIG    1       -4.331   6.189   0.077  0.00  0.00    +0.110 A 
ATOM      9  C   LIG    1       -4.555   4.827   0.072  0.00  0.00    +0.010 A 
ATOM     10  C   LIG    1       -3.492   3.946   0.057  0.00  0.00    +0.120 A 
ATOM     11  C   LIG    1       -2.181   4.429   0.047  0.00  0.00    -0.040 A 
ATOM     12  C   LIG    1       -1.947   5.801   0.057  0.00  0.00    +0.110 A 
BRANCH   7  13
ATOM     13  C   LIG    1       -2.787   8.144   0.073  0.00  0.00    +0.510 C 
ATOM     14  O   LIG    1       -1.651   8.573   0.064  0.00  0.00    -0.500 OA
BRANCH  13  16
ATOM     15  C   LIG    1       -3.521  10.415   0.093  0.00  0.00    +0.290 C 
ATOM     16  O   LIG    1       -3.829   8.996   0.088  0.00  0.00    -0.350 OA
ENDBRANCH  13  16
ENDBRANCH   7  13
ENDBRANCH   2  11
ENDBRANCH   1   4
BRANCH   1  17
ATOM     17  O   LIG    1        1.377  -0.469  -0.014  0.00  0.00    -0.360 OA
BRANCH  17  18
ATOM     18  C   LIG    1        1.571  -1.798  -0.023  0.00  0.00    +0.460 C 
ATOM     19  O   LIG    1        0.623  -2.547  -0.018  0.00  0.00    -0.490 OA
BRANCH  18  20
ATOM     20  C   LIG    1        2.971  -2.355  -0.039  0.00  0.00    +0.170 C 
BRANCH  20  21
ATOM     21  C   LIG    1        2.913  -3.860  -0.046  0.00  0.00    -0.050 A 
ATOM     22  C   LIG    1        3.006  -4.554   1.120  0.00  0.00    +0.050 A 
ATOM     23  C   LIG    1        2.949  -5.948   1.134  0.00  0.00    -0.030 A 
ATOM     24  C   LIG    1        2.809  -6.654  -0.022  0.00  0.00    +0.050 A 
ATOM     25  C   LIG    1        2.716  -5.972  -1.247  0.00  0.00    -0.040 A 
ATOM     26  C   LIG    1        2.572  -6.667  -2.460  0.00  0.00    +0.030 A 
ATOM     27  C   LIG    1        2.485  -5.972  -3.628  0.00  0.00    +0.020 A 
ATOM     28  C   LIG    1        2.536  -4.580  -3.640  0.00  0.00    +0.030 A 
ATOM     29  C   LIG    1        2.675  -3.874  -2.484  0.00  0.00    +0.020 A 
ATOM     30 CL   LIG    1        3.065  -6.794   2.645  0.00  0.00    -0.060 Cl
ATOM     31  C   LIG    1        2.768  -4.556  -1.260  0.00  0.00    -0.030 A 
ENDBRANCH  20  21
ENDBRANCH  18  20
ENDBRANCH  17  18
ENDBRANCH   1  17
TORSDOF 8
