REMARK  Name = ZINCbu0000000GxK.0
REMARK                            x       y       z     vdW  Elec       q    Type
REMARK                         _______ _______ _______ _____ _____    ______ ____
ROOT
ATOM      1  C   LIG    1        1.130   0.234  -2.238  0.00  0.00    +0.180 C 
ATOM      2  C   LIG    1        1.075  -0.556  -0.955  0.00  0.00    +0.050 C 
ATOM      3  C   LIG    1        0.002  -0.004   0.002  0.00  0.00    +0.030 C 
ATOM      4  C   LIG    1       -0.019   1.538   0.011  0.00  0.00    -0.040 C 
ATOM      5  C   LIG    1        1.367   2.131   0.001  0.00  0.00    +0.060 C 
ATOM      6  C   LIG    1        1.786   2.408  -1.459  0.00  0.00    +0.230 C 
ATOM      7  C   LIG    1       -0.754   2.017   1.264  0.00  0.00    +0.020 C 
ATOM      8  N   LIG    1        2.197   1.246  -2.114  0.00  0.00    -0.490 N 
ATOM      9  H   LIG    1        2.518   1.493  -3.038  0.00  0.00    +0.420 HD
ATOM     10  H   LIG    1        2.968   0.842  -1.603  0.00  0.00    +0.420 HD
ENDROOT
BRANCH   1  12
ATOM     11  C   LIG    1        1.494   0.105  -4.706  0.00  0.00    +0.040 C 
ATOM     12  C   LIG    1        1.440  -0.702  -3.408  0.00  0.00    +0.010 C 
ATOM     13  C   LIG    1        2.791  -1.381  -3.173  0.00  0.00    +0.030 C 
ENDBRANCH   1  12
TORSDOF 1
