REMARK  Name = ZINCrg000000rbdj.0
REMARK                            x       y       z     vdW  Elec       q    Type
REMARK                         _______ _______ _______ _____ _____    ______ ____
ROOT
ATOM      1  C   LIG    1        4.255   0.181   2.380  0.00  0.00    +0.490 C 
ATOM      2  N   LIG    1        5.185  -0.213   3.273  0.00  0.00    -0.690 N 
ATOM      3  H   LIG    1        4.985  -0.928   3.897  0.00  0.00    +0.410 HD
ATOM      4  C   LIG    1        6.392   0.385   3.298  0.00  0.00    +0.690 C 
ATOM      5  N   LIG    1        7.322  -0.009   4.190  0.00  0.00    -0.730 N 
ATOM      6  H   LIG    1        7.122  -0.724   4.815  0.00  0.00    +0.400 HD
ATOM      7  O   LIG    1        6.643   1.281   2.515  0.00  0.00    -0.530 OA
ATOM      8  O   LIG    1        4.505   1.075   1.600  0.00  0.00    -0.460 OA
ENDROOT
BRANCH   1  10
ATOM      9  C   LIG    1        2.958  -1.703   1.424  0.00  0.00    +0.070 C 
ATOM     10  C   LIG    1        2.905  -0.488   2.352  0.00  0.00    +0.180 C 
BRANCH  10  11
ATOM     11  N   LIG    1        1.898   0.462   1.860  0.00  0.00    -0.510 NA
ATOM     12  C   LIG    1        1.969   1.733   2.594  0.00  0.00    +0.190 C 
ATOM     13  C   LIG    1        0.856   2.663   2.107  0.00  0.00    +0.230 C 
ATOM     14  N   LIG    1        1.002   2.884   0.662  0.00  0.00    -0.460 N 
ATOM     15  C   LIG    1        0.931   1.613  -0.072  0.00  0.00    +0.220 C 
ATOM     16  C   LIG    1        2.045   0.682   0.415  0.00  0.00    +0.200 C 
BRANCH  14  17
ATOM     17  C   LIG    1        0.053   3.778   0.198  0.00  0.00    +0.490 A 
ATOM     18  N   LIG    1       -0.821   4.293   1.050  0.00  0.00    -0.550 NA
ATOM     19  C   LIG    1       -1.738   5.154   0.640  0.00  0.00    +0.340 A 
ATOM     20  C   LIG    1       -1.782   5.508  -0.699  0.00  0.00    -0.110 A 
ATOM     21  C   LIG    1       -0.856   4.947  -1.564  0.00  0.00    +0.350 A 
ATOM     22  N   LIG    1        0.038   4.096  -1.088  0.00  0.00    -0.530 NA
ENDBRANCH  14  17
ENDBRANCH  10  11
ENDBRANCH   1  10
BRANCH   5  23
ATOM     23  C   LIG    1        8.634   0.641   4.217  0.00  0.00    +0.340 C 
BRANCH  23  24
ATOM     24  C   LIG    1        9.481   0.019   5.298  0.00  0.00    -0.110 A 
ATOM     25  C   LIG    1        9.459   0.540   6.578  0.00  0.00    +0.020 A 
ATOM     26  C   LIG    1       10.232  -0.033   7.571  0.00  0.00    +0.010 A 
ATOM     27  C   LIG    1       11.035  -1.121   7.280  0.00  0.00    +0.010 A 
ATOM     28  C   LIG    1       11.060  -1.638   5.998  0.00  0.00    +0.010 A 
ATOM     29  C   LIG    1       10.283  -1.068   5.007  0.00  0.00    +0.020 A 
ENDBRANCH  23  24
ENDBRANCH   5  23
TORSDOF 5
