REMARK  Name = ZINCrg000000stGd.0
REMARK                            x       y       z     vdW  Elec       q    Type
REMARK                         _______ _______ _______ _____ _____    ______ ____
ROOT
ATOM      1  N   LIG    1       -6.287   6.320   3.569  0.00  0.00    -0.500 N 
ATOM      2  C   LIG    1       -6.263   4.877   3.843  0.00  0.00    +0.220 C 
ATOM      3  C   LIG    1       -4.826   4.362   3.728  0.00  0.00    +0.200 C 
ATOM      4  N   LIG    1       -4.313   4.648   2.381  0.00  0.00    -0.520 NA
ATOM      5  C   LIG    1       -4.337   6.092   2.107  0.00  0.00    +0.210 C 
ATOM      6  C   LIG    1       -5.773   6.606   2.223  0.00  0.00    +0.220 C 
ENDROOT
BRANCH   1  11
ATOM      7  C   LIG    1      -11.158   7.216   2.972  0.00  0.00    +0.170 C 
ATOM      8  C   LIG    1       -9.744   7.259   3.493  0.00  0.00    +0.140 A 
ATOM      9  N   LIG    1       -9.315   8.000   4.481  0.00  0.00    -0.260 NA
ATOM     10  N   LIG    1       -7.948   7.750   4.659  0.00  0.00    -0.330 N 
ATOM     11  C   LIG    1       -7.568   6.839   3.735  0.00  0.00    +0.340 A 
ATOM     12  C   LIG    1       -7.082   8.370   5.665  0.00  0.00    +0.390 C 
ATOM     13  C   LIG    1       -8.668   6.515   3.001  0.00  0.00    -0.210 A 
BRANCH  13  14
ATOM     14  N   LIG    1       -8.716   5.549   1.881  0.00  0.00    +0.050 N 
ATOM     15  O   LIG    1       -8.510   5.926   0.741  0.00  0.00    -0.130 OA
ATOM     16  O   LIG    1       -8.960   4.375   2.099  0.00  0.00    -0.130 OA
ENDBRANCH  13  14
ENDBRANCH   1  11
BRANCH   4  17
ATOM     17  C   LIG    1       -2.961   4.101   2.206  0.00  0.00    +0.220 C 
BRANCH  17  18
ATOM     18  C   LIG    1       -2.565   4.194   0.755  0.00  0.00    +0.510 C 
ATOM     19  N   LIG    1       -1.357   3.749   0.356  0.00  0.00    -0.730 N 
ATOM     20  H   LIG    1       -0.742   3.369   1.002  0.00  0.00    +0.400 HD
ATOM     21  O   LIG    1       -3.334   4.669  -0.054  0.00  0.00    -0.520 OA
BRANCH  19  22
ATOM     22  C   LIG    1       -0.973   3.839  -1.055  0.00  0.00    +0.320 C 
BRANCH  22  23
ATOM     23  C   LIG    1        0.414   3.278  -1.235  0.00  0.00    -0.110 A 
ATOM     24  C   LIG    1        1.515   4.108  -1.127  0.00  0.00    +0.020 A 
ATOM     25  C   LIG    1        2.787   3.595  -1.298  0.00  0.00    +0.000 A 
ATOM     26  C   LIG    1        2.958   2.251  -1.576  0.00  0.00    +0.010 A 
ATOM     27  C   LIG    1        1.858   1.422  -1.684  0.00  0.00    +0.010 A 
ATOM     28  C   LIG    1        0.586   1.935  -1.513  0.00  0.00    +0.020 A 
ENDBRANCH  22  23
ENDBRANCH  19  22
ENDBRANCH  17  18
ENDBRANCH   4  17
TORSDOF 6
