REMARK  Name = ZINCtV000002OzzE.0
REMARK                            x       y       z     vdW  Elec       q    Type
REMARK                         _______ _______ _______ _____ _____    ______ ____
ROOT
ATOM      1  C   LIG    1       -0.018   1.474   0.016  0.00  0.00    -0.130 A 
ATOM      2  C   LIG    1       -1.235   2.158   0.035  0.00  0.00    +0.040 A 
ATOM      3  C   LIG    1       -1.246   3.538   0.056  0.00  0.00    +0.030 A 
ATOM      4  C   LIG    1       -0.056   4.243   0.046  0.00  0.00    -0.070 A 
ATOM      5  C   LIG    1        1.153   3.571   0.022  0.00  0.00    +0.040 A 
ATOM      6  C   LIG    1        1.179   2.192   0.007  0.00  0.00    +0.080 A 
ENDROOT
BRANCH   1   8
ATOM      7  O   LIG    1        1.063  -0.597  -0.022  0.00  0.00    -0.510 OA
ATOM      8  C   LIG    1        0.002  -0.004   0.000  0.00  0.00    +0.560 C 
ATOM      9  N   LIG    1       -1.156  -0.694   0.009  0.00  0.00    -0.670 N 
ATOM     10  H   LIG    1       -2.000  -0.224   0.095  0.00  0.00    +0.410 HD
BRANCH   9  11
ATOM     11  C   LIG    1       -1.140  -2.088  -0.104  0.00  0.00    +0.140 A 
ATOM     12  C   LIG    1       -2.156  -2.742  -0.789  0.00  0.00    -0.010 A 
ATOM     13  C   LIG    1       -2.135  -4.118  -0.903  0.00  0.00    +0.030 A 
ATOM     14  C   LIG    1       -1.110  -4.845  -0.327  0.00  0.00    -0.010 A 
ATOM     15  C   LIG    1       -0.100  -4.198   0.361  0.00  0.00    +0.030 A 
ATOM     16  C   LIG    1       -0.112  -2.821   0.474  0.00  0.00    +0.020 A 
ENDBRANCH   9  11
ENDBRANCH   1   8
BRANCH   4  17
ATOM     17  C   LIG    1       -0.076   5.750   0.062  0.00  0.00    +0.260 C 
BRANCH  17  18
ATOM     18  O   LIG    1       -0.102   6.240  -1.280  0.00  0.00    -0.310 OA
BRANCH  18  19
ATOM     19  C   LIG    1       -0.123   7.588  -1.444  0.00  0.00    +0.130 A 
ATOM     20  C   LIG    1       -0.125   8.421  -0.333  0.00  0.00    -0.080 A 
ATOM     21  C   LIG    1       -0.141   9.790  -0.497  0.00  0.00    +0.060 A 
ATOM     22  C   LIG    1       -0.167  10.338  -1.778  0.00  0.00    -0.080 A 
ATOM     23  C   LIG    1       -0.171   9.499  -2.892  0.00  0.00    +0.060 A 
ATOM     24  C   LIG    1       -0.149   8.130  -2.722  0.00  0.00    -0.020 A 
BRANCH  22  25
ATOM     25  C   LIG    1       -0.191  11.810  -1.958  0.00  0.00    -0.040 A 
ATOM     26  C   LIG    1       -0.211  12.359  -3.238  0.00  0.00    +0.010 A 
ATOM     27  C   LIG    1       -0.239  13.729  -3.399  0.00  0.00    +0.000 A 
ATOM     28  C   LIG    1       -0.235  14.558  -2.292  0.00  0.00    +0.000 A 
ATOM     29  C   LIG    1       -0.209  14.019  -1.018  0.00  0.00    +0.000 A 
ATOM     30  C   LIG    1       -0.187  12.650  -0.846  0.00  0.00    +0.000 A 
ENDBRANCH  22  25
ENDBRANCH  18  19
ENDBRANCH  17  18
ENDBRANCH   4  17
TORSDOF 6
