REMARK  Name = ZINCrg00000SjSpG.0
REMARK                            x       y       z     vdW  Elec       q    Type
REMARK                         _______ _______ _______ _____ _____    ______ ____
ROOT
ATOM      1  S   LIG    1        2.713   0.928  -0.020  0.00  0.00    +2.690 S 
ATOM      2  O   LIG    1        2.459  -0.362   0.519  0.00  0.00    -0.950 OA
ATOM      3  O   LIG    1        3.678   1.820   0.520  0.00  0.00    -0.950 OA
ENDROOT
BRANCH   1   4
ATOM      4  C   LIG    1        1.175   1.787   0.000  0.00  0.00    -0.680 A 
ATOM      5  C   LIG    1        1.158   3.169   0.008  0.00  0.00    +0.140 A 
ATOM      6  C   LIG    1       -0.047   3.851   0.024  0.00  0.00    +0.010 A 
ATOM      7  C   LIG    1       -1.236   3.142   0.031  0.00  0.00    +0.120 A 
ATOM      8  O   LIG    1       -2.430   3.802   0.044  0.00  0.00    -0.320 OA
ATOM      9  C   LIG    1       -3.197   3.682   1.244  0.00  0.00    +0.230 C 
ATOM     10  C   LIG    1       -4.027   2.408   1.228  0.00  0.00    +0.000 C 
ATOM     11  C   LIG    1       -3.166   1.155   1.231  0.00  0.00    +0.230 C 
ATOM     12  O   LIG    1       -2.397   1.066   0.030  0.00  0.00    -0.320 OA
ATOM     13  C   LIG    1       -1.219   1.755   0.017  0.00  0.00    +0.050 A 
ATOM     14  C   LIG    1       -0.013   1.076   0.008  0.00  0.00    +0.130 A 
ENDBRANCH   1   4
BRANCH   1  18
ATOM     15  N   LIG    1        2.942   0.801  -4.386  0.00  0.00    -0.530 NA
ATOM     16  C   LIG    1        3.214   2.038  -3.642  0.00  0.00    +0.190 C 
ATOM     17  C   LIG    1        3.929   1.696  -2.330  0.00  0.00    +0.320 C 
ATOM     18  N   LIG    1        3.125   0.698  -1.607  0.00  0.00    -1.000 NA
ATOM     19  C   LIG    1        2.703  -0.511  -2.330  0.00  0.00    +0.320 C 
ATOM     20  C   LIG    1        2.031  -0.079  -3.643  0.00  0.00    +0.170 C 
BRANCH  15  21
ATOM     21  C   LIG    1        2.414   1.097  -5.724  0.00  0.00    +0.350 C 
BRANCH  21  26
ATOM     22  C   LIG    1        3.661  -2.678  -8.814  0.00  0.00    +0.240 C 
ATOM     23  C   LIG    1        2.913  -1.781  -7.862  0.00  0.00    +0.170 A 
ATOM     24  N   LIG    1        1.707  -1.974  -7.408  0.00  0.00    -0.290 NA
ATOM     25  N   LIG    1        1.390  -1.013  -6.614  0.00  0.00    -0.280 NA
ATOM     26  C   LIG    1        2.380  -0.168  -6.542  0.00  0.00    +0.170 A 
ATOM     27  O   LIG    1        3.366  -0.636  -7.325  0.00  0.00    -0.220 OA
ENDBRANCH  21  26
ENDBRANCH  15  21
ENDBRANCH   1  18
TORSDOF 4
