REMARK  Name = ZINCtj0000000I6U.1
REMARK                            x       y       z     vdW  Elec       q    Type
REMARK                         _______ _______ _______ _____ _____    ______ ____
ROOT
ATOM      1  N   LIG    1       -2.300   9.982   1.381  0.00  0.00    -0.370 N 
ATOM      2  C   LIG    1       -2.162   9.222   0.133  0.00  0.00    +0.270 C 
ATOM      3  C   LIG    1       -1.936   7.743   0.454  0.00  0.00    +0.070 C 
ATOM      4  C   LIG    1       -0.659   7.596   1.286  0.00  0.00    +0.250 C 
ATOM      5  C   LIG    1       -0.784   8.452   2.550  0.00  0.00    +0.050 C 
ATOM      6  C   LIG    1       -1.053   9.905   2.151  0.00  0.00    +0.260 C 
ATOM      7  H   LIG    1       -3.056   9.595   1.927  0.00  0.00    +0.430 HD
ENDROOT
BRANCH   4   8
ATOM      8  N   LIG    1       -0.477   6.192   1.661  0.00  0.00    -0.730 N 
ATOM      9  H   LIG    1       -1.244   5.600   1.712  0.00  0.00    +0.410 HD
ATOM     10  C   LIG    1        0.756   5.722   1.935  0.00  0.00    +0.570 C 
ATOM     11  O   LIG    1        1.717   6.463   1.871  0.00  0.00    -0.530 OA
BRANCH  10  12
ATOM     12  C   LIG    1        0.939   4.304   2.314  0.00  0.00    -0.150 A 
ATOM     13  C   LIG    1        2.215   3.814   2.598  0.00  0.00    +0.080 A 
ATOM     14  C   LIG    1        2.379   2.491   2.950  0.00  0.00    +0.020 A 
ATOM     15  C   LIG    1        1.283   1.649   3.022  0.00  0.00    +0.050 A 
ATOM     16  C   LIG    1        0.017   2.128   2.736  0.00  0.00    +0.000 A 
ATOM     17  C   LIG    1       -0.162   3.450   2.388  0.00  0.00    +0.030 A 
ENDBRANCH  10  12
ENDBRANCH   4   8
BRANCH   1  18
ATOM     18  C   LIG    1       -2.594  11.386   1.068  0.00  0.00    +0.160 C 
ATOM     19  C   LIG    1       -3.877  11.466   0.238  0.00  0.00    +0.120 C 
BRANCH  18  21
ATOM     20  N   LIG    1       -2.539  13.486   2.375  0.00  0.00    -0.570 N 
ATOM     21  C   LIG    1       -2.776  12.159   2.349  0.00  0.00    +0.510 C 
ATOM     22  O   LIG    1       -3.136  11.588   3.356  0.00  0.00    -0.520 OA
BRANCH  20  23
ATOM     23  C   LIG    1       -2.807  14.254   3.594  0.00  0.00    +0.270 C 
ATOM     24  C   LIG    1       -1.533  14.994   4.040  0.00  0.00    +0.070 C 
ATOM     25  C   LIG    1       -1.918  16.044   5.101  0.00  0.00    -0.290 C 
ATOM     26  S   LIG    1       -3.649  16.496   4.717  0.00  0.00    +2.400 S 
ATOM     27  O   LIG    1       -3.692  17.833   4.238  0.00  0.00    -0.920 OA
ATOM     28  O   LIG    1       -4.488  16.100   5.793  0.00  0.00    -0.920 OA
ATOM     29  C   LIG    1       -3.876  15.341   3.313  0.00  0.00    -0.320 C 
ENDBRANCH  20  23
BRANCH  20  31
ATOM     30  C   LIG    1       -0.492  14.019   1.149  0.00  0.00    +0.030 C 
ATOM     31  C   LIG    1       -2.015  14.160   1.185  0.00  0.00    +0.280 C 
ENDBRANCH  20  31
ENDBRANCH  18  21
ENDBRANCH   1  18
TORSDOF 6
