REMARK  Name = ZINCpk000000obcl.0
REMARK                            x       y       z     vdW  Elec       q    Type
REMARK                         _______ _______ _______ _____ _____    ______ ____
ROOT
ATOM      1  S   LIG    1        3.532   3.431  -2.780  0.00  0.00    +2.690 S 
ATOM      2  O   LIG    1        3.042   2.608  -3.829  0.00  0.00    -0.950 OA
ATOM      3  O   LIG    1        4.744   3.169  -2.087  0.00  0.00    -0.950 OA
ENDROOT
BRANCH   1   4
ATOM      4  C   LIG    1        2.263   3.488  -1.559  0.00  0.00    -0.700 A 
ATOM      5  C   LIG    1        2.580   3.780  -0.245  0.00  0.00    +0.190 A 
ATOM      6  C   LIG    1        1.584   3.825   0.713  0.00  0.00    -0.010 A 
ATOM      7  C   LIG    1        0.271   3.582   0.356  0.00  0.00    +0.190 A 
ATOM      8  C   LIG    1       -0.046   3.286  -0.957  0.00  0.00    -0.700 A 
ATOM      9  C   LIG    1        0.950   3.242  -1.915  0.00  0.00    +0.240 A 
BRANCH   8  10
ATOM     10  S   LIG    1       -1.719   2.972  -1.410  0.00  0.00    +2.700 S 
ATOM     11  O   LIG    1       -2.527   3.606  -0.427  0.00  0.00    -0.960 OA
ATOM     12  O   LIG    1       -1.819   3.256  -2.799  0.00  0.00    -0.950 OA
BRANCH  10  13
ATOM     13  N   LIG    1       -1.974   1.344  -1.246  0.00  0.00    -1.250 NA
ATOM     14  H   LIG    1       -1.241   0.723  -1.379  0.00  0.00    +0.420 HD
ATOM     15  H   LIG    1       -2.856   1.012  -1.018  0.00  0.00    +0.420 HD
ENDBRANCH  10  13
ENDBRANCH   8  10
ENDBRANCH   1   4
BRANCH   1  16
ATOM     16  N   LIG    1        3.675   4.956  -3.410  0.00  0.00    -1.090 NA
ATOM     17  H   LIG    1        3.456   5.119  -4.341  0.00  0.00    +0.430 HD
BRANCH  16  22
ATOM     18  C   LIG    1        4.964   7.111  -3.313  0.00  0.00    -0.080 C 
ATOM     19  C   LIG    1        3.635   7.827  -3.620  0.00  0.00    +0.160 C 
ATOM     20  C   LIG    1        3.073   7.157  -2.355  0.00  0.00    -0.040 C 
ATOM     21  C   LIG    1        1.635   6.658  -2.513  0.00  0.00    +0.020 C 
ATOM     22  C   LIG    1        4.131   6.060  -2.561  0.00  0.00    +0.250 C 
BRANCH  18  24
ATOM     23  C   LIG    1        6.933   6.979  -1.781  0.00  0.00    +0.020 C 
ATOM     24  C   LIG    1        5.898   7.916  -2.406  0.00  0.00    +0.050 C 
ENDBRANCH  18  24
BRANCH  19  25
ATOM     25  O   LIG    1        3.012   7.383  -4.828  0.00  0.00    -0.360 OA
ATOM     26  C   LIG    1        2.179   8.366  -5.446  0.00  0.00    +0.200 C 
ENDBRANCH  19  25
BRANCH  18  27
ATOM     27  C   LIG    1        5.668   6.562  -4.555  0.00  0.00    +0.040 C 
ATOM     28  C   LIG    1        6.361   7.706  -5.297  0.00  0.00    +0.000 C 
ENDBRANCH  18  27
ENDBRANCH  16  22
ENDBRANCH   1  16
TORSDOF 8
