REMARK  Name = ZINCqH0000007Y7y.0
REMARK                            x       y       z     vdW  Elec       q    Type
REMARK                         _______ _______ _______ _____ _____    ______ ____
ROOT
ATOM      1  N   LIG    1        2.037   0.403  -0.260  0.00  0.00    -0.660 N 
ATOM      2  H   LIG    1        1.826  -0.533  -0.124  0.00  0.00    +0.420 HD
ATOM      3  C   LIG    1        3.309   0.780  -0.499  0.00  0.00    +0.610 C 
ATOM      4  O   LIG    1        3.589   1.962  -0.584  0.00  0.00    -0.490 OA
ENDROOT
BRANCH   1   8
ATOM      5  C   LIG    1       -0.990   3.267  -0.104  0.00  0.00    +0.130 A 
ATOM      6  C   LIG    1        0.276   3.567   0.381  0.00  0.00    +0.030 A 
ATOM      7  C   LIG    1        1.280   2.621   0.325  0.00  0.00    +0.050 A 
ATOM      8  C   LIG    1        1.021   1.365  -0.208  0.00  0.00    +0.130 A 
ATOM      9  C   LIG    1       -0.247   1.063  -0.689  0.00  0.00    +0.010 A 
ATOM     10  C   LIG    1       -1.249   2.010  -0.637  0.00  0.00    +0.030 A 
BRANCH   5  11
ATOM     11  N   LIG    1       -2.006   4.227  -0.051  0.00  0.00    -1.060 N 
ATOM     12  H   LIG    1       -2.577   4.372  -0.822  0.00  0.00    +0.430 HD
BRANCH  11  14
ATOM     13  C   LIG    1       -2.666   3.889   2.591  0.00  0.00    -0.280 C 
ATOM     14  S   LIG    1       -2.234   5.116   1.327  0.00  0.00    +2.610 S 
ATOM     15  O   LIG    1       -3.352   5.942   1.030  0.00  0.00    -0.950 OA
ATOM     16  O   LIG    1       -0.958   5.680   1.595  0.00  0.00    -0.950 OA
ENDBRANCH  11  14
ENDBRANCH   5  11
ENDBRANCH   1   8
BRANCH   3  17
ATOM     17  C   LIG    1        4.356  -0.233  -0.655  0.00  0.00    -0.080 A 
ATOM     18  C   LIG    1        5.688   0.012  -0.906  0.00  0.00    +0.070 A 
ATOM     19  C   LIG    1        6.321  -1.233  -0.977  0.00  0.00    -0.040 A 
ATOM     20  C   LIG    1        5.361  -2.183  -0.777  0.00  0.00    +0.070 A 
ATOM     21  O   LIG    1        4.181  -1.570  -0.584  0.00  0.00    -0.160 OA
BRANCH  20  22
ATOM     22  C   LIG    1        5.583  -3.643  -0.774  0.00  0.00    -0.040 A 
ATOM     23  C   LIG    1        6.862  -4.158  -0.994  0.00  0.00    +0.080 A 
ATOM     24  C   LIG    1        7.064  -5.522  -0.985  0.00  0.00    +0.000 A 
ATOM     25  C   LIG    1        5.999  -6.382  -0.768  0.00  0.00    +0.110 A 
ATOM     26  C   LIG    1        4.726  -5.877  -0.555  0.00  0.00    -0.010 A 
ATOM     27  F   LIG    1        6.202  -7.718  -0.766  0.00  0.00    -0.130 F 
ATOM     28  C   LIG    1        4.513  -4.514  -0.557  0.00  0.00    +0.070 A 
ENDBRANCH  20  22
ENDBRANCH   3  17
TORSDOF 5
