REMARK  Name = ZINCvU0000000EeR.0
REMARK                            x       y       z     vdW  Elec       q    Type
REMARK                         _______ _______ _______ _____ _____    ______ ____
ROOT
ATOM      1  C   LIG    1        0.363   3.820   1.009  0.00  0.00    +0.670 C 
ATOM      2  N   LIG    1       -0.631   3.018   1.439  0.00  0.00    -0.600 N 
ATOM      3  C   LIG    1       -1.838   3.448   2.168  0.00  0.00    +0.260 C 
ATOM      4  C   LIG    1       -2.695   2.188   2.414  0.00  0.00    +0.000 C 
ATOM      5  C   LIG    1       -2.202   1.216   1.298  0.00  0.00    +0.030 C 
ATOM      6  C   LIG    1       -2.885   1.658   0.002  0.00  0.00    +0.020 C 
ATOM      7  C   LIG    1       -2.175   1.062  -1.212  0.00  0.00    +0.010 C 
ATOM      8  C   LIG    1       -0.735   1.584  -1.244  0.00  0.00    +0.010 C 
ATOM      9  C   LIG    1       -0.013   1.086   0.008  0.00  0.00    +0.030 C 
ATOM     10  C   LIG    1       -0.703   1.565   1.265  0.00  0.00    +0.230 C 
ATOM     11  O   LIG    1        1.312   3.346   0.416  0.00  0.00    -0.560 OA
ENDROOT
BRANCH   1  12
ATOM     12  O   LIG    1        0.305   5.145   1.236  0.00  0.00    -0.360 OA
BRANCH  12  14
ATOM     13  C   LIG    1        1.516   5.795  -0.774  0.00  0.00    +0.040 C 
ATOM     14  C   LIG    1        1.411   5.948   0.745  0.00  0.00    +0.140 C 
ATOM     15  C   LIG    1        2.712   5.475   1.396  0.00  0.00    +0.040 C 
ATOM     16  C   LIG    1        1.170   7.417   1.095  0.00  0.00    +0.080 C 
ENDBRANCH  12  14
ENDBRANCH   1  12
BRANCH   4  17
ATOM     17  C   LIG    1       -2.420   1.605   3.802  0.00  0.00    +0.280 C 
BRANCH  17  18
ATOM     18  N   LIG    1       -2.999   2.481   4.823  0.00  0.00    -0.710 N 
ATOM     19  H   LIG    1       -3.469   3.288   4.560  0.00  0.00    +0.410 HD
BRANCH  18  20
ATOM     20  C   LIG    1       -2.876   2.155   6.169  0.00  0.00    +0.430 A 
ATOM     21  C   LIG    1       -2.202   0.996   6.539  0.00  0.00    -0.100 A 
ATOM     22  C   LIG    1       -2.087   0.684   7.882  0.00  0.00    +0.170 A 
ATOM     23  C   LIG    1       -2.652   1.545   8.813  0.00  0.00    -0.310 A 
ATOM     24  C   LIG    1       -3.307   2.679   8.375  0.00  0.00    +0.380 A 
ATOM     25  N   LIG    1       -3.397   2.954   7.088  0.00  0.00    -0.540 NA
BRANCH  23  26
ATOM     26  C   LIG    1       -2.550   1.246  10.286  0.00  0.00    +0.330 C 
ATOM     27  F   LIG    1       -2.537   2.446  11.006  0.00  0.00    -0.160 F 
ATOM     28  F   LIG    1       -1.370   0.539  10.538  0.00  0.00    -0.160 F 
BRANCH  26  29
ATOM     29  C   LIG    1       -3.752   0.404  10.720  0.00  0.00    +0.430 C 
ATOM     30  F   LIG    1       -4.932   1.112  10.468  0.00  0.00    -0.160 F 
ATOM     31  F   LIG    1       -3.658   0.126  12.088  0.00  0.00    -0.160 F 
ATOM     32  F   LIG    1       -3.765  -0.795  10.000  0.00  0.00    -0.160 F 
ENDBRANCH  26  29
ENDBRANCH  23  26
ENDBRANCH  18  20
ENDBRANCH  17  18
ENDBRANCH   4  17
TORSDOF 7
