REMARK  Name = ZINCc70000004SVP.0
REMARK                            x       y       z     vdW  Elec       q    Type
REMARK                         _______ _______ _______ _____ _____    ______ ____
ROOT
ATOM      1  O   LIG    1        1.010   1.866   0.010  0.00  0.00    -0.590 OA
ATOM      2  C   LIG    1       -0.014   1.212   0.009  0.00  0.00    +0.710 C 
ATOM      3  N   LIG    1       -1.210   1.833   0.018  0.00  0.00    -0.630 N 
ATOM      4  C   LIG    1       -1.295   3.297  -0.074  0.00  0.00    +0.290 C 
ATOM      5  C   LIG    1       -2.233   3.660  -1.235  0.00  0.00    +0.010 C 
ATOM      6  C   LIG    1       -3.581   2.965  -1.030  0.00  0.00    +0.020 C 
ATOM      7  C   LIG    1       -3.380   1.448  -1.030  0.00  0.00    +0.010 C 
ATOM      8  C   LIG    1       -2.455   1.059   0.127  0.00  0.00    +0.260 C 
ATOM      9  N   LIG    1        0.046  -0.135   0.003  0.00  0.00    -0.740 N 
ATOM     10  H   LIG    1       -0.768  -0.657   0.076  0.00  0.00    +0.400 HD
ENDROOT
BRANCH   9  11
ATOM     11  C   LIG    1        1.341  -0.810  -0.113  0.00  0.00    +0.290 C 
BRANCH  11  12
ATOM     12  C   LIG    1        1.130  -2.325  -0.094  0.00  0.00    +0.180 C 
BRANCH  12  13
ATOM     13  O   LIG    1        0.393  -2.718  -1.254  0.00  0.00    -0.570 OA
ATOM     14  H   LIG    1        0.222  -3.668  -1.308  0.00  0.00    +0.380 HD
ENDBRANCH  12  13
ENDBRANCH  11  12
ENDBRANCH   9  11
TORSDOF 3
