REMARK  Name = ZINCkj000005jQfj.0
REMARK                            x       y       z     vdW  Elec       q    Type
REMARK                         _______ _______ _______ _____ _____    ______ ____
ROOT
ATOM      1  C   LIG    1       -4.255   3.198   1.134  0.00  0.00    +0.240 C 
ATOM      2  C   LIG    1       -3.456   4.279   1.864  0.00  0.00    +0.070 C 
ENDROOT
BRANCH   1   3
ATOM      3  N   LIG    1       -3.788   1.875   1.557  0.00  0.00    -1.140 NA
ATOM      4  H   LIG    1       -4.147   1.468   2.361  0.00  0.00    +0.420 HD
BRANCH   3   5
ATOM      5  S   LIG    1       -2.645   1.076   0.664  0.00  0.00    +2.590 S 
ATOM      6  O   LIG    1       -2.463  -0.155   1.349  0.00  0.00    -0.920 OA
ATOM      7  O   LIG    1       -3.152   1.108  -0.663  0.00  0.00    -0.940 OA
BRANCH   5   8
ATOM      8  C   LIG    1       -1.159   2.108   0.803  0.00  0.00    -0.280 C 
BRANCH   8   9
ATOM      9  C   LIG    1       -0.018   1.468   0.010  0.00  0.00    -0.050 C 
ATOM     10  C   LIG    1        0.455   2.188  -1.254  0.00  0.00    +0.110 C 
ATOM     11  C   LIG    1        1.329   2.193   0.001  0.00  0.00    +0.120 C 
BRANCH   9  12
ATOM     12  C   LIG    1        0.002  -0.004   0.002  0.00  0.00    +0.180 C 
ATOM     13  N   LIG    1        0.018  -1.140  -0.004  0.00  0.00    -0.350 NA
ENDBRANCH   9  12
ENDBRANCH   8   9
ENDBRANCH   5   8
ENDBRANCH   3   5
ENDBRANCH   1   3
BRANCH   1  14
ATOM     14  C   LIG    1       -5.740   3.345   1.472  0.00  0.00    +0.280 C 
BRANCH  14  20
ATOM     15  C   LIG    1      -10.128   1.194   1.178  0.00  0.00    +0.070 C 
ATOM     16  C   LIG    1       -8.666   1.113   0.734  0.00  0.00    -0.020 C 
ATOM     17  C   LIG    1       -8.593   1.136  -0.795  0.00  0.00    +0.030 C 
ATOM     18  C   LIG    1       -7.124   1.134  -1.226  0.00  0.00    +0.060 C 
ATOM     19  C   LIG    1       -6.412   2.332  -0.594  0.00  0.00    +0.250 C 
ATOM     20  N   LIG    1       -6.492   2.237   0.869  0.00  0.00    -0.390 N 
ATOM     21  H   LIG    1       -6.096   1.360   1.170  0.00  0.00    +0.420 HD
ATOM     22  C   LIG    1       -7.895   2.311   1.294  0.00  0.00    +0.250 C 
ENDBRANCH  14  20
ENDBRANCH   1  14
TORSDOF 7
