REMARK  Name = ZINCkj000005jQfj.1
REMARK                            x       y       z     vdW  Elec       q    Type
REMARK                         _______ _______ _______ _____ _____    ______ ____
ROOT
ATOM      1  C   LIG    1       -0.132   1.369   0.084  0.00  0.00    +0.240 C 
ATOM      2  C   LIG    1       -0.631   2.065   1.352  0.00  0.00    +0.070 C 
ENDROOT
BRANCH   1   3
ATOM      3  N   LIG    1       -0.456  -0.058   0.150  0.00  0.00    -1.140 NA
ATOM      4  H   LIG    1       -1.336  -0.368  -0.116  0.00  0.00    +0.420 HD
BRANCH   3   5
ATOM      5  S   LIG    1        0.679  -1.141   0.678  0.00  0.00    +2.590 S 
ATOM      6  O   LIG    1        1.831  -0.849  -0.101  0.00  0.00    -0.940 OA
ATOM      7  O   LIG    1        0.032  -2.402   0.585  0.00  0.00    -0.930 OA
BRANCH   5   8
ATOM      8  C   LIG    1        0.956  -0.696   2.415  0.00  0.00    -0.270 C 
BRANCH   8   9
ATOM      9  C   LIG    1        1.999  -1.636   3.023  0.00  0.00    -0.060 C 
ATOM     10  C   LIG    1        1.522  -2.627   4.086  0.00  0.00    +0.100 C 
ATOM     11  C   LIG    1        2.373  -1.422   4.491  0.00  0.00    +0.120 C 
BRANCH   9  12
ATOM     12  C   LIG    1        3.063  -2.080   2.108  0.00  0.00    +0.180 C 
ATOM     13  N   LIG    1        3.885  -2.422   1.402  0.00  0.00    -0.360 NA
ENDBRANCH   9  12
ENDBRANCH   8   9
ENDBRANCH   5   8
ENDBRANCH   3   5
ENDBRANCH   1   3
BRANCH   1  14
ATOM     14  C   LIG    1       -0.811   1.990  -1.139  0.00  0.00    +0.280 C 
BRANCH  14  20
ATOM     15  C   LIG    1        1.261  -0.797  -3.535  0.00  0.00    +0.030 C 
ATOM     16  C   LIG    1        1.514   0.692  -3.783  0.00  0.00    +0.010 C 
ATOM     17  C   LIG    1        0.732   1.144  -5.019  0.00  0.00    +0.050 C 
ATOM     18  C   LIG    1       -0.767   0.979  -4.752  0.00  0.00    +0.050 C 
ATOM     19  C   LIG    1       -1.148   1.774  -3.502  0.00  0.00    +0.250 C 
ATOM     20  N   LIG    1       -0.386   1.277  -2.350  0.00  0.00    -0.390 N 
ATOM     21  H   LIG    1       -0.558   0.289  -2.236  0.00  0.00    +0.420 HD
ATOM     22  C   LIG    1        1.048   1.498  -2.569  0.00  0.00    +0.250 C 
ENDBRANCH  14  20
ENDBRANCH   1  14
TORSDOF 7
