REMARK  Name = ZINCrD000000fERq.0
REMARK                            x       y       z     vdW  Elec       q    Type
REMARK                         _______ _______ _______ _____ _____    ______ ____
ROOT
ATOM      1  C   LIG    1        3.316   3.868  -0.009  0.00  0.00    +0.080 C 
ENDROOT
BRANCH   1   2
ATOM      2  C   LIG    1        4.291   5.017  -0.013  0.00  0.00    +0.420 C 
ATOM      3  O   LIG    1        3.884   6.159  -0.003  0.00  0.00    -0.430 OA
BRANCH   2   7
ATOM      4  C   LIG    1        8.464   4.255  -0.055  0.00  0.00    -0.070 A 
ATOM      5  C   LIG    1        8.002   5.560  -0.045  0.00  0.00    +0.020 A 
ATOM      6  C   LIG    1        6.647   5.816  -0.031  0.00  0.00    +0.080 A 
ATOM      7  C   LIG    1        5.739   4.753  -0.028  0.00  0.00    -0.160 A 
ATOM      8  C   LIG    1        6.213   3.437  -0.033  0.00  0.00    +0.070 A 
ATOM      9  C   LIG    1        7.571   3.198  -0.051  0.00  0.00    +0.020 A 
BRANCH   4  10
ATOM     10  C   LIG    1        9.946   3.985  -0.069  0.00  0.00    +0.310 C 
BRANCH  10  13
ATOM     11  C   LIG    1       12.252   3.555   2.957  0.00  0.00    +0.110 C 
ATOM     12  C   LIG    1       11.745   3.652   1.541  0.00  0.00    +0.510 C 
ATOM     13  N   LIG    1       10.439   3.891   1.307  0.00  0.00    -0.730 N 
ATOM     14  H   LIG    1        9.826   4.000   2.050  0.00  0.00    +0.400 HD
ATOM     15  O   LIG    1       12.512   3.514   0.611  0.00  0.00    -0.540 OA
ENDBRANCH  10  13
ENDBRANCH   4  10
ENDBRANCH   2   7
ENDBRANCH   1   2
BRANCH   1  16
ATOM     16  S   LIG    1        1.621   4.514   0.010  0.00  0.00    +0.090 S 
BRANCH  16  17
ATOM     17  C   LIG    1        0.639   3.051   0.012  0.00  0.00    +0.200 A 
ATOM     18  N   LIG    1        1.102   1.822   0.001  0.00  0.00    -0.320 NA
ATOM     19  N   LIG    1       -0.011   0.966   0.007  0.00  0.00    -0.470 N 
ATOM     20  H   LIG    1        0.002  -0.004   0.002  0.00  0.00    +0.440 HD
ATOM     21  C   LIG    1       -1.104   1.761   0.016  0.00  0.00    +0.350 A 
ATOM     22  N   LIG    1       -0.695   3.014   0.025  0.00  0.00    -0.510 NA
BRANCH  21  23
ATOM     23  C   LIG    1       -2.512   1.305   0.019  0.00  0.00    -0.050 A 
ATOM     24  C   LIG    1       -2.807  -0.059   0.007  0.00  0.00    +0.030 A 
ATOM     25  C   LIG    1       -4.121  -0.477   0.016  0.00  0.00    +0.010 A 
ATOM     26  C   LIG    1       -5.146   0.452   0.025  0.00  0.00    -0.060 A 
ATOM     27  C   LIG    1       -4.861   1.806   0.032  0.00  0.00    +0.010 A 
ATOM     28  C   LIG    1       -6.580  -0.012   0.029  0.00  0.00    +0.100 C 
ATOM     29  C   LIG    1       -3.550   2.237   0.029  0.00  0.00    +0.080 A 
ENDBRANCH  21  23
ENDBRANCH  16  17
ENDBRANCH   1  16
TORSDOF 7
