REMARK  Name = ZINCrD000000fERq.1
REMARK                            x       y       z     vdW  Elec       q    Type
REMARK                         _______ _______ _______ _____ _____    ______ ____
ROOT
ATOM      1  C   LIG    1       -3.894   2.163  -5.261  0.00  0.00    +0.110 C 
ENDROOT
BRANCH   1   2
ATOM      2  C   LIG    1       -2.791   2.989  -4.651  0.00  0.00    +0.420 C 
ATOM      3  O   LIG    1       -2.489   4.055  -5.144  0.00  0.00    -0.430 OA
BRANCH   2   7
ATOM      4  C   LIG    1       -0.742   1.585  -1.213  0.00  0.00    -0.070 A 
ATOM      5  C   LIG    1       -1.750   0.821  -1.773  0.00  0.00    +0.020 A 
ATOM      6  C   LIG    1       -2.425   1.273  -2.887  0.00  0.00    +0.070 A 
ATOM      7  C   LIG    1       -2.080   2.502  -3.458  0.00  0.00    -0.160 A 
ATOM      8  C   LIG    1       -1.056   3.266  -2.889  0.00  0.00    +0.080 A 
ATOM      9  C   LIG    1       -0.395   2.803  -1.772  0.00  0.00    +0.020 A 
BRANCH   4  10
ATOM     10  C   LIG    1       -0.013   1.086   0.008  0.00  0.00    +0.310 C 
BRANCH  10  13
ATOM     11  C   LIG    1       -0.927   1.718   3.671  0.00  0.00    +0.110 C 
ATOM     12  C   LIG    1       -0.222   1.232   2.431  0.00  0.00    +0.510 C 
ATOM     13  N   LIG    1       -0.698   1.558   1.213  0.00  0.00    -0.730 N 
ATOM     14  H   LIG    1       -1.495   2.106   1.135  0.00  0.00    +0.400 HD
ATOM     15  O   LIG    1        0.774   0.548   2.529  0.00  0.00    -0.540 OA
ENDBRANCH  10  13
ENDBRANCH   4  10
ENDBRANCH   2   7
ENDBRANCH   1   2
BRANCH   1  16
ATOM     16  S   LIG    1       -4.566   3.024  -6.704  0.00  0.00    +0.070 S 
BRANCH  16  17
ATOM     17  C   LIG    1       -5.799   1.868  -7.203  0.00  0.00    +0.250 A 
ATOM     18  N   LIG    1       -6.066   0.722  -6.617  0.00  0.00    -0.530 NA
ATOM     19  C   LIG    1       -7.066   0.106  -7.264  0.00  0.00    +0.280 A 
ATOM     20  N   LIG    1       -7.440   0.854  -8.278  0.00  0.00    -0.290 NA
ATOM     21  N   LIG    1       -6.633   2.002  -8.258  0.00  0.00    -0.460 N 
ATOM     22  H   LIG    1       -6.666   2.746  -8.880  0.00  0.00    +0.450 HD
BRANCH  19  23
ATOM     23  C   LIG    1       -7.650  -1.208  -6.900  0.00  0.00    -0.030 A 
ATOM     24  C   LIG    1       -7.161  -1.910  -5.800  0.00  0.00    +0.060 A 
ATOM     25  C   LIG    1       -7.711  -3.131  -5.463  0.00  0.00    +0.000 A 
ATOM     26  C   LIG    1       -8.739  -3.661  -6.221  0.00  0.00    -0.070 A 
ATOM     27  C   LIG    1       -9.226  -2.971  -7.316  0.00  0.00    +0.010 A 
ATOM     28  C   LIG    1       -9.332  -4.997  -5.851  0.00  0.00    +0.090 C 
ATOM     29  C   LIG    1       -8.687  -1.748  -7.659  0.00  0.00    +0.050 A 
ENDBRANCH  19  23
ENDBRANCH  16  17
ENDBRANCH   1  16
TORSDOF 7
