REMARK  Name = ZINCrD00000hQ5PT.1
REMARK                            x       y       z     vdW  Elec       q    Type
REMARK                         _______ _______ _______ _____ _____    ______ ____
ROOT
ATOM      1  C   LIG    1       -0.079   1.191   2.429  0.00  0.00    +0.280 C 
ENDROOT
BRANCH   1   2
ATOM      2  C   LIG    1       -1.079   1.519   1.318  0.00  0.00    +0.010 C 
ATOM      3  C   LIG    1       -2.429   0.871   1.636  0.00  0.00    +0.010 C 
ATOM      4  C   LIG    1       -3.400   1.136   0.482  0.00  0.00    +0.200 C 
ATOM      5  O   LIG    1       -2.845   0.627  -0.732  0.00  0.00    -0.380 OA
ATOM      6  C   LIG    1       -1.605   1.231  -1.106  0.00  0.00    +0.200 C 
ATOM      7  C   LIG    1       -0.563   0.969  -0.016  0.00  0.00    -0.010 C 
ENDBRANCH   1   2
BRANCH   1  11
ATOM      8  C   LIG    1        0.813  -2.287   2.419  0.00  0.00    +0.180 A 
ATOM      9  N   LIG    1       -0.352  -2.293   2.994  0.00  0.00    -0.380 NA
ATOM     10  O   LIG    1       -0.786  -1.163   3.074  0.00  0.00    +0.090 OA
ATOM     11  C   LIG    1        0.083  -0.304   2.534  0.00  0.00    +0.180 A 
ATOM     12  N   LIG    1        1.107  -1.009   2.117  0.00  0.00    -0.470 NA
BRANCH   8  14
ATOM     13  C   LIG    1        2.019  -4.186   3.462  0.00  0.00    +0.040 C 
ATOM     14  C   LIG    1        1.678  -3.490   2.143  0.00  0.00    +0.090 C 
ATOM     15  C   LIG    1        0.923  -4.462   1.233  0.00  0.00    +0.040 C 
ENDBRANCH   8  14
ENDBRANCH   1  11
BRANCH   1  16
ATOM     16  N   LIG    1       -0.576   1.720   3.706  0.00  0.00    -0.670 NA
ATOM     17  H   LIG    1       -0.263   1.152   4.479  0.00  0.00    +0.350 HD
BRANCH  16  18
ATOM     18  C   LIG    1       -0.175   3.122   3.887  0.00  0.00    +0.170 C 
ATOM     19  C   LIG    1        1.216   3.178   4.526  0.00  0.00    +0.010 C 
ATOM     20  C   LIG    1        1.602   4.638   4.769  0.00  0.00    +0.220 C 
ATOM     21  N   LIG    1        0.611   5.269   5.651  0.00  0.00    -0.440 N 
ATOM     22  C   LIG    1       -0.723   5.269   5.036  0.00  0.00    +0.190 C 
ATOM     23  C   LIG    1       -1.179   3.827   4.803  0.00  0.00    +0.070 C 
BRANCH  21  24
ATOM     24  C   LIG    1        1.000   6.554   5.995  0.00  0.00    +0.230 A 
ATOM     25  N   LIG    1        2.128   6.864   6.555  0.00  0.00    -0.500 NA
ATOM     26  C   LIG    1        2.334   8.143   6.815  0.00  0.00    +0.240 A 
ATOM     27  C   LIG    1        1.334   8.949   6.458  0.00  0.00    -0.090 A 
ATOM     28  S   LIG    1        0.065   7.962   5.738  0.00  0.00    +0.090 S 
ENDBRANCH  21  24
ENDBRANCH  16  18
ENDBRANCH   1  16
TORSDOF 6
