REMARK  Name = ZINCpk000005SqD7.0
REMARK                            x       y       z     vdW  Elec       q    Type
REMARK                         _______ _______ _______ _____ _____    ______ ____
ROOT
ATOM      1  N   LIG    1        2.041   2.933   2.439  0.00  0.00    -0.530 NA
ATOM      2  C   LIG    1        2.021   3.220   0.999  0.00  0.00    +0.160 C 
ATOM      3  C   LIG    1        2.566   4.632   0.755  0.00  0.00    +0.280 C 
ATOM      4  N   LIG    1        3.887   4.739   1.391  0.00  0.00    -0.610 N 
ATOM      5  C   LIG    1        4.015   4.337   2.800  0.00  0.00    +0.300 C 
ATOM      6  C   LIG    1        4.952   5.194   0.702  0.00  0.00    +0.530 C 
ATOM      7  O   LIG    1        6.015   5.356   1.265  0.00  0.00    -0.530 OA
ATOM      8  C   LIG    1        3.413   2.937   2.964  0.00  0.00    +0.180 C 
ENDROOT
BRANCH   6   9
ATOM      9  C   LIG    1        4.824   5.502  -0.767  0.00  0.00    +0.030 C 
ATOM     10  C   LIG    1        5.122   4.241  -1.607  0.00  0.00    +0.060 C 
ATOM     11  C   LIG    1        6.635   4.387  -1.892  0.00  0.00    +0.090 C 
ATOM     12  C   LIG    1        6.908   5.875  -1.831  0.00  0.00    -0.060 A 
ATOM     13  C   LIG    1        7.983   6.609  -2.304  0.00  0.00    +0.010 A 
ATOM     14  C   LIG    1        8.021   7.980  -2.133  0.00  0.00    +0.030 A 
ATOM     15  C   LIG    1        6.983   8.624  -1.488  0.00  0.00    -0.020 A 
ATOM     16  C   LIG    1        5.905   7.893  -1.013  0.00  0.00    +0.130 A 
ATOM     17  C   LIG    1        5.868   6.515  -1.185  0.00  0.00    -0.110 A 
BRANCH  16  18
ATOM     18  O   LIG    1        4.883   8.525  -0.378  0.00  0.00    -0.500 OA
ATOM     19  H   LIG    1        5.036   8.668   0.567  0.00  0.00    +0.390 HD
ENDBRANCH  16  18
ENDBRANCH   6   9
BRANCH   1  20
ATOM     20  C   LIG    1        1.369   1.661   2.732  0.00  0.00    +0.300 C 
BRANCH  20  26
ATOM     21  C   LIG    1        0.035   1.029   0.008  0.00  0.00    +0.320 C 
ATOM     22  N   LIG    1       -0.660   1.499   1.209  0.00  0.00    -0.460 N 
ATOM     23  C   LIG    1       -2.002   1.743   1.327  0.00  0.00    +0.130 A 
ATOM     24  C   LIG    1       -2.213   2.154   2.592  0.00  0.00    +0.140 A 
ATOM     25  N   LIG    1       -1.031   2.170   3.226  0.00  0.00    -0.470 NA
ATOM     26  C   LIG    1       -0.097   1.779   2.403  0.00  0.00    +0.210 A 
ENDBRANCH  20  26
ENDBRANCH   1  20
TORSDOF 4
