REMARK  Name = ZINCrD00000hQ6CL.0
REMARK                            x       y       z     vdW  Elec       q    Type
REMARK                         _______ _______ _______ _____ _____    ______ ____
ROOT
ATOM      1  N   LIG    1        2.710   1.814  -0.830  0.00  0.00    -0.680 N 
ATOM      2  H   LIG    1        2.691   0.948  -1.266  0.00  0.00    +0.410 HD
ATOM      3  C   LIG    1        3.749   2.148  -0.039  0.00  0.00    +0.710 C 
ATOM      4  N   LIG    1        4.810   1.323   0.063  0.00  0.00    -0.630 N 
ATOM      5  C   LIG    1        4.896   0.095  -0.744  0.00  0.00    +0.260 C 
ATOM      6  C   LIG    1        5.220  -1.075   0.191  0.00  0.00    +0.210 C 
ATOM      7  O   LIG    1        6.370  -0.749   0.974  0.00  0.00    -0.370 OA
ATOM      8  C   LIG    1        6.192   0.379   1.834  0.00  0.00    +0.240 C 
ATOM      9  C   LIG    1        5.920   1.627   0.979  0.00  0.00    +0.340 C 
ATOM     10  O   LIG    1        3.729   3.192   0.583  0.00  0.00    -0.540 OA
ENDROOT
BRANCH   1  16
ATOM     11  C   LIG    1       -0.928   6.712  -1.439  0.00  0.00    +0.130 A 
ATOM     12  N   LIG    1       -1.341   5.507  -1.564  0.00  0.00    -0.460 NA
ATOM     13  C   LIG    1       -0.448   4.510  -1.408  0.00  0.00    +0.060 A 
ATOM     14  C   LIG    1       -0.653   3.116  -1.501  0.00  0.00    +0.100 A 
ATOM     15  C   LIG    1        0.377   2.249  -1.307  0.00  0.00    +0.010 A 
ATOM     16  C   LIG    1        1.658   2.719  -1.023  0.00  0.00    +0.190 A 
ATOM     17  C   LIG    1        1.888   4.079  -0.931  0.00  0.00    +0.070 A 
ATOM     18  C   LIG    1        0.839   4.976  -1.123  0.00  0.00    -0.150 A 
ATOM     19  S   LIG    1        0.792   6.737  -1.077  0.00  0.00    +0.050 S 
BRANCH  11  21
ATOM     20  C   LIG    1       -2.916   7.893  -0.544  0.00  0.00    +0.060 C 
ATOM     21  C   LIG    1       -1.794   7.937  -1.583  0.00  0.00    +0.010 C 
ATOM     22  C   LIG    1       -2.400   7.971  -2.987  0.00  0.00    +0.060 C 
ATOM     23  C   LIG    1       -0.944   9.190  -1.364  0.00  0.00    +0.050 C 
ENDBRANCH  11  21
ENDBRANCH   1  16
BRANCH   9  24
ATOM     24  C   LIG    1        5.541   2.782   1.870  0.00  0.00    +0.240 A 
ATOM     25  N   LIG    1        4.497   2.825   2.655  0.00  0.00    -0.270 NA
ATOM     26  N   LIG    1        4.526   4.071   3.302  0.00  0.00    -0.470 N 
ATOM     27  H   LIG    1        3.886   4.405   3.950  0.00  0.00    +0.440 HD
ATOM     28  C   LIG    1        5.613   4.713   2.839  0.00  0.00    +0.480 A 
ATOM     29  N   LIG    1        6.213   3.928   1.981  0.00  0.00    -0.540 NA
ENDBRANCH   9  24
TORSDOF 3
