REMARK  Name = ZINCrD00000hQ6CL.1
REMARK                            x       y       z     vdW  Elec       q    Type
REMARK                         _______ _______ _______ _____ _____    ______ ____
ROOT
ATOM      1  N   LIG    1        2.798   1.675  -2.073  0.00  0.00    -0.690 N 
ATOM      2  H   LIG    1        2.679   0.716  -2.151  0.00  0.00    +0.400 HD
ATOM      3  C   LIG    1        3.866   2.171  -1.418  0.00  0.00    +0.710 C 
ATOM      4  N   LIG    1        4.840   1.342  -0.992  0.00  0.00    -0.630 N 
ATOM      5  C   LIG    1        4.768  -0.106  -1.249  0.00  0.00    +0.260 C 
ATOM      6  C   LIG    1        5.002  -0.847   0.068  0.00  0.00    +0.210 C 
ATOM      7  O   LIG    1        6.206  -0.367   0.672  0.00  0.00    -0.370 OA
ATOM      8  C   LIG    1        6.174   1.018   1.022  0.00  0.00    +0.240 C 
ATOM      9  C   LIG    1        6.002   1.856  -0.251  0.00  0.00    +0.320 C 
ATOM     10  O   LIG    1        3.952   3.366  -1.211  0.00  0.00    -0.530 OA
ENDROOT
BRANCH   1  16
ATOM     11  C   LIG    1       -1.278   4.595  -5.603  0.00  0.00    +0.140 A 
ATOM     12  N   LIG    1       -0.913   5.017  -4.450  0.00  0.00    -0.460 NA
ATOM     13  C   LIG    1       -0.009   4.290  -3.765  0.00  0.00    +0.070 A 
ATOM     14  C   LIG    1        0.545   4.540  -2.491  0.00  0.00    +0.090 A 
ATOM     15  C   LIG    1        1.455   3.686  -1.950  0.00  0.00    +0.050 A 
ATOM     16  C   LIG    1        1.859   2.546  -2.642  0.00  0.00    +0.190 A 
ATOM     17  C   LIG    1        1.332   2.276  -3.891  0.00  0.00    +0.030 A 
ATOM     18  C   LIG    1        0.403   3.147  -4.457  0.00  0.00    -0.160 A 
ATOM     19  S   LIG    1       -0.451   3.094  -5.997  0.00  0.00    +0.050 S 
BRANCH  11  21
ATOM     20  C   LIG    1       -1.769   6.691  -6.834  0.00  0.00    +0.060 C 
ATOM     21  C   LIG    1       -2.275   5.287  -6.495  0.00  0.00    +0.010 C 
ATOM     22  C   LIG    1       -3.620   5.391  -5.773  0.00  0.00    +0.060 C 
ATOM     23  C   LIG    1       -2.450   4.483  -7.785  0.00  0.00    +0.050 C 
ENDBRANCH  11  21
ENDBRANCH   1  16
BRANCH   9  24
ATOM     24  C   LIG    1        5.772   3.299   0.117  0.00  0.00    +0.180 A 
ATOM     25  N   LIG    1        4.735   3.780   0.748  0.00  0.00    -0.240 NA
ATOM     26  N   LIG    1        4.869   5.051   0.895  0.00  0.00    -0.290 NA
ATOM     27  C   LIG    1        5.997   5.438   0.365  0.00  0.00    +0.370 A 
ATOM     28  N   LIG    1        6.604   4.336  -0.139  0.00  0.00    -0.580 N 
ATOM     29  H   LIG    1        7.461   4.298  -0.593  0.00  0.00    +0.420 HD
ENDBRANCH   9  24
TORSDOF 3
