REMARK  Name = ZINCrH000004tB8r.0
REMARK                            x       y       z     vdW  Elec       q    Type
REMARK                         _______ _______ _______ _____ _____    ______ ____
ROOT
ATOM      1  C   LIG    1       -0.782   5.336  -2.004  0.00  0.00    +0.100 C 
ATOM      2  C   LIG    1       -2.240   5.556  -1.704  0.00  0.00    -0.150 A 
ATOM      3  C   LIG    1       -2.710   5.338  -0.422  0.00  0.00    +0.050 A 
ATOM      4  C   LIG    1       -4.045   5.536  -0.126  0.00  0.00    -0.010 A 
ATOM      5  C   LIG    1       -4.918   5.954  -1.114  0.00  0.00    +0.060 A 
ATOM      6  C   LIG    1       -4.455   6.172  -2.396  0.00  0.00    +0.010 A 
ATOM      7  C   LIG    1       -3.112   5.974  -2.697  0.00  0.00    +0.130 A 
ATOM      8  O   LIG    1       -2.677   6.194  -3.960  0.00  0.00    -0.240 OA
ATOM      9  C   LIG    1       -1.363   6.425  -4.194  0.00  0.00    +0.130 A 
ATOM     10  C   LIG    1       -0.984   7.067  -5.367  0.00  0.00    +0.010 A 
ATOM     11  C   LIG    1        0.351   7.314  -5.621  0.00  0.00    +0.060 A 
ATOM     12  C   LIG    1        1.312   6.921  -4.709  0.00  0.00    -0.010 A 
ATOM     13  C   LIG    1        0.939   6.282  -3.542  0.00  0.00    +0.040 A 
ATOM     14  C   LIG    1       -0.397   6.032  -3.281  0.00  0.00    -0.130 A 
ENDROOT
BRANCH   1  16
ATOM     15  O   LIG    1       -0.620   3.325  -3.228  0.00  0.00    -0.520 OA
ATOM     16  C   LIG    1       -0.520   3.859  -2.144  0.00  0.00    +0.530 C 
ATOM     17  N   LIG    1       -0.174   3.131  -1.063  0.00  0.00    -0.620 N 
ATOM     18  C   LIG    1       -0.022   1.671  -1.154  0.00  0.00    +0.300 C 
ATOM     19  C   LIG    1        1.338   1.286  -0.561  0.00  0.00    +0.220 C 
ATOM     20  N   LIG    1        1.453   1.839   0.794  0.00  0.00    -0.450 N 
ATOM     21  C   LIG    1        1.417   3.308   0.775  0.00  0.00    +0.200 C 
ATOM     22  C   LIG    1        0.061   3.776   0.238  0.00  0.00    +0.300 C 
BRANCH  20  23
ATOM     23  C   LIG    1        2.599   1.378   1.424  0.00  0.00    +0.220 A 
ATOM     24  N   LIG    1        3.458   0.561   0.898  0.00  0.00    -0.520 NA
ATOM     25  C   LIG    1        4.498   0.229   1.641  0.00  0.00    +0.240 A 
ATOM     26  C   LIG    1        4.513   0.782   2.854  0.00  0.00    -0.100 A 
ATOM     27  S   LIG    1        3.081   1.797   3.010  0.00  0.00    +0.140 S 
ENDBRANCH  20  23
ENDBRANCH   1  16
TORSDOF 2
