REMARK  Name = ZINCvU0000000ETa.0
REMARK                            x       y       z     vdW  Elec       q    Type
REMARK                         _______ _______ _______ _____ _____    ______ ____
ROOT
ATOM      1  C   LIG    1        5.121  -3.311   0.619  0.00  0.00    +0.110 A 
ATOM      2  N   LIG    1        6.177  -2.600   0.293  0.00  0.00    -0.280 NA
ATOM      3  N   LIG    1        7.208  -3.361   0.194  0.00  0.00    -0.260 NA
ATOM      4  C   LIG    1        6.873  -4.604   0.451  0.00  0.00    +0.230 A 
ATOM      5  N   LIG    1        5.527  -4.609   0.736  0.00  0.00    -0.440 N 
ENDROOT
BRANCH   5   6
ATOM      6  C   LIG    1        4.702  -5.767   1.091  0.00  0.00    +0.230 C 
ATOM      7  C   LIG    1        3.584  -5.930   0.059  0.00  0.00    +0.040 C 
ATOM      8  C   LIG    1        2.716  -4.671   0.045  0.00  0.00    +0.010 C 
ATOM      9  C   LIG    1        2.104  -4.456   1.431  0.00  0.00    +0.050 C 
ATOM     10  C   LIG    1        3.223  -4.293   2.462  0.00  0.00    +0.020 C 
ATOM     11  C   LIG    1        4.091  -5.553   2.477  0.00  0.00    +0.000 C 
ATOM     12  C   LIG    1        5.209  -5.389   3.508  0.00  0.00    +0.030 C 
ENDBRANCH   5   6
BRANCH   4  13
ATOM     13  C   LIG    1        7.774  -5.776   0.442  0.00  0.00    -0.070 A 
ATOM     14  C   LIG    1        9.120  -5.642   0.805  0.00  0.00    +0.120 A 
ATOM     15  C   LIG    1        9.921  -6.771   0.779  0.00  0.00    -0.010 A 
ATOM     16  C   LIG    1        9.372  -7.982   0.400  0.00  0.00    +0.270 A 
ATOM     17  N   LIG    1        8.100  -8.078   0.063  0.00  0.00    -0.480 NA
ATOM     18  C   LIG    1        7.297  -7.035   0.077  0.00  0.00    +0.270 A 
ENDBRANCH   4  13
BRANCH   1  19
ATOM     19  S   LIG    1        3.486  -2.702   0.865  0.00  0.00    +0.250 S 
BRANCH  19  20
ATOM     20  C   LIG    1        3.755  -0.941   0.543  0.00  0.00    -0.040 C 
BRANCH  20  23
ATOM     21  N   LIG    1        2.412   1.136   0.506  0.00  0.00    -0.660 N 
ATOM     22  H   LIG    1        3.200   1.605   0.190  0.00  0.00    +0.420 HD
ATOM     23  C   LIG    1        2.454  -0.197   0.700  0.00  0.00    +0.550 C 
ATOM     24  O   LIG    1        1.444  -0.798   1.000  0.00  0.00    -0.510 OA
BRANCH  21  29
ATOM     25  C   LIG    1       -2.371   4.006   1.548  0.00  0.00    +0.100 C 
ATOM     26  C   LIG    1       -1.101   3.244   1.270  0.00  0.00    -0.100 A 
ATOM     27  C   LIG    1       -0.867   2.039   1.906  0.00  0.00    +0.050 A 
ATOM     28  C   LIG    1        0.299   1.340   1.659  0.00  0.00    +0.040 A 
ATOM     29  C   LIG    1        1.232   1.844   0.763  0.00  0.00    +0.170 A 
ATOM     30  C   LIG    1        0.992   3.053   0.121  0.00  0.00    -0.120 A 
ATOM     31 BR   LIG    1        2.259   3.744  -1.101  0.00  0.00    -0.040 Br
ATOM     32  C   LIG    1       -0.174   3.749   0.377  0.00  0.00    +0.070 A 
ENDBRANCH  21  29
ENDBRANCH  20  23
ENDBRANCH  19  20
ENDBRANCH   1  19
TORSDOF 6
