REMARK  Name = ZINCpk00000xRYP5.1
REMARK                            x       y       z     vdW  Elec       q    Type
REMARK                         _______ _______ _______ _____ _____    ______ ____
ROOT
ATOM      1  N   LIG    1        5.614   7.264  -2.271  0.00  0.00    -0.430 N 
ATOM      2  C   LIG    1        6.284   7.002  -0.991  0.00  0.00    +0.210 C 
ATOM      3  C   LIG    1        6.569   5.502  -0.865  0.00  0.00    +0.320 C 
ATOM      4  N   LIG    1        5.311   4.768  -1.071  0.00  0.00    -0.620 N 
ATOM      5  C   LIG    1        4.516   5.072  -2.271  0.00  0.00    +0.300 C 
ATOM      6  C   LIG    1        4.901   3.837  -0.188  0.00  0.00    +0.520 C 
ATOM      7  O   LIG    1        5.571   3.595   0.793  0.00  0.00    -0.510 OA
ATOM      8  C   LIG    1        4.309   6.594  -2.337  0.00  0.00    +0.220 C 
ENDROOT
BRANCH   6   9
ATOM      9  C   LIG    1        3.608   3.097  -0.418  0.00  0.00    +0.140 C 
ATOM     10  C   LIG    1        2.431   3.970   0.017  0.00  0.00    +0.100 C 
ATOM     11  C   LIG    1        1.161   3.160   0.012  0.00  0.00    -0.070 A 
ATOM     12  C   LIG    1       -0.052   3.832   0.026  0.00  0.00    +0.000 A 
ATOM     13  C   LIG    1       -1.240   3.128   0.030  0.00  0.00    +0.000 A 
ATOM     14  C   LIG    1       -1.220   1.746   0.017  0.00  0.00    +0.000 A 
ATOM     15  C   LIG    1       -0.013   1.076   0.008  0.00  0.00    +0.010 A 
ATOM     16  C   LIG    1        1.181   1.782   0.000  0.00  0.00    -0.080 A 
ATOM     17  C   LIG    1        2.472   1.007  -0.027  0.00  0.00    +0.250 C 
ATOM     18  N   LIG    1        3.593   1.861   0.380  0.00  0.00    -0.660 NA
ATOM     19  H   LIG    1        4.470   1.368   0.301  0.00  0.00    +0.360 HD
ENDBRANCH   6   9
BRANCH   1  23
ATOM     20  C   LIG    1        4.928  10.530  -3.528  0.00  0.00    +0.290 A 
ATOM     21  N   LIG    1        5.454  11.138  -2.506  0.00  0.00    -0.480 NA
ATOM     22  S   LIG    1        5.999   9.908  -1.467  0.00  0.00    +0.190 S 
ATOM     23  C   LIG    1        5.485   8.623  -2.494  0.00  0.00    +0.270 A 
ATOM     24  N   LIG    1        4.938   9.217  -3.534  0.00  0.00    -0.530 NA
BRANCH  20  26
ATOM     25  C   LIG    1        2.843  11.558  -4.391  0.00  0.00    +0.050 C 
ATOM     26  C   LIG    1        4.326  11.307  -4.670  0.00  0.00    +0.150 C 
ENDBRANCH  20  26
ENDBRANCH   1  23
TORSDOF 3
