REMARK  Name = ZINCvU00000005SB.0
REMARK                            x       y       z     vdW  Elec       q    Type
REMARK                         _______ _______ _______ _____ _____    ______ ____
ROOT
ATOM      1  C   LIG    1        6.545   1.303   3.730  0.00  0.00    +0.370 A 
ATOM      2  N   LIG    1        6.551   2.432   3.063  0.00  0.00    -0.510 NA
ATOM      3  C   LIG    1        7.440   3.409   3.334  0.00  0.00    +0.090 A 
ATOM      4  C   LIG    1        8.378   3.224   4.344  0.00  0.00    -0.230 A 
ATOM      5  C   LIG    1        9.255   4.380   4.498  0.00  0.00    +0.040 A 
ATOM      6  C   LIG    1        8.998   5.382   3.655  0.00  0.00    -0.020 A 
ATOM      7  C   LIG    1        8.360   1.993   5.060  0.00  0.00    +0.560 A 
ATOM      8  O   LIG    1        9.162   1.784   5.954  0.00  0.00    -0.490 OA
ATOM      9  S   LIG    1        7.655   4.992   2.598  0.00  0.00    +0.230 S 
ATOM     10  N   LIG    1        7.438   1.065   4.737  0.00  0.00    -0.470 N 
ENDROOT
BRANCH  10  11
ATOM     11  C   LIG    1        7.399  -0.152   5.432  0.00  0.00    +0.090 A 
ATOM     12  C   LIG    1        6.617  -0.276   6.572  0.00  0.00    +0.040 A 
ATOM     13  C   LIG    1        6.576  -1.478   7.251  0.00  0.00    +0.030 A 
ATOM     14  C   LIG    1        7.321  -2.553   6.803  0.00  0.00    +0.040 A 
ATOM     15  C   LIG    1        8.105  -2.430   5.671  0.00  0.00    +0.030 A 
ATOM     16  C   LIG    1        8.146  -1.233   4.984  0.00  0.00    +0.040 A 
ENDBRANCH  10  11
BRANCH   5  17
ATOM     17  C   LIG    1       10.336   4.437   5.502  0.00  0.00    +0.040 A 
ATOM     18  C   LIG    1       11.631   4.779   5.263  0.00  0.00    -0.040 A 
ATOM     19  C   LIG    1       12.306   4.700   6.499  0.00  0.00    -0.070 A 
ATOM     20  C   LIG    1       11.403   4.311   7.418  0.00  0.00    +0.170 A 
ATOM     21  O   LIG    1       10.213   4.153   6.813  0.00  0.00    -0.150 OA
ENDBRANCH   5  17
BRANCH   1  22
ATOM     22  S   LIG    1        5.355   0.069   3.324  0.00  0.00    +0.120 S 
BRANCH  22  23
ATOM     23  C   LIG    1        4.477   0.908   1.982  0.00  0.00    +0.100 C 
BRANCH  23  26
ATOM     24  N   LIG    1        2.589   0.433   0.456  0.00  0.00    -0.720 N 
ATOM     25  H   LIG    1        2.726   1.310   0.065  0.00  0.00    +0.400 HD
ATOM     26  C   LIG    1        3.380   0.014   1.464  0.00  0.00    +0.530 C 
ATOM     27  O   LIG    1        3.209  -1.082   1.953  0.00  0.00    -0.520 OA
BRANCH  24  28
ATOM     28  C   LIG    1        1.523  -0.436  -0.049  0.00  0.00    +0.230 C 
ATOM     29  C   LIG    1        0.271  -0.259   0.812  0.00  0.00    +0.020 C 
BRANCH  28  30
ATOM     30  C   LIG    1        1.203  -0.062  -1.497  0.00  0.00    +0.020 C 
BRANCH  30  32
ATOM     31  C   LIG    1        2.097   0.017  -3.829  0.00  0.00    +0.020 C 
ATOM     32  C   LIG    1        2.417  -0.357  -2.380  0.00  0.00    -0.010 C 
ENDBRANCH  30  32
ENDBRANCH  28  30
ENDBRANCH  24  28
ENDBRANCH  23  26
ENDBRANCH  22  23
ENDBRANCH   1  22
TORSDOF 8
