REMARK  Name = ZINCrg00000Ukkj0.0
REMARK                            x       y       z     vdW  Elec       q    Type
REMARK                         _______ _______ _______ _____ _____    ______ ____
ROOT
ATOM      1  N   LIG    1        3.222   3.839  -1.241  0.00  0.00    -0.710 N 
ATOM      2  H   LIG    1        2.712   3.607  -2.033  0.00  0.00    +0.410 HD
ATOM      3  C   LIG    1        4.569   3.838  -1.283  0.00  0.00    +0.500 C 
ATOM      4  O   LIG    1        5.207   4.129  -0.294  0.00  0.00    -0.500 OA
ENDROOT
BRANCH   1  10
ATOM      5  C   LIG    1        1.139   3.547   0.010  0.00  0.00    +0.130 C 
ATOM      6  C   LIG    1        0.394   3.985   1.276  0.00  0.00    -0.010 C 
ATOM      7  C   LIG    1        0.327   5.514   1.315  0.00  0.00    +0.220 C 
ATOM      8  O   LIG    1        1.651   6.049   1.272  0.00  0.00    -0.370 OA
ATOM      9  C   LIG    1        2.378   5.712   0.090  0.00  0.00    +0.230 C 
ATOM     10  C   LIG    1        2.529   4.191   0.000  0.00  0.00    +0.240 C 
BRANCH   5  11
ATOM     11  O   LIG    1        0.409   3.967  -1.145  0.00  0.00    -0.550 OA
ATOM     12  H   LIG    1       -0.483   3.598  -1.202  0.00  0.00    +0.390 HD
ENDBRANCH   5  11
BRANCH   5  13
ATOM     13  C   LIG    1        1.280   2.024   0.001  0.00  0.00    +0.160 C 
BRANCH  13  15
ATOM     14  C   LIG    1        0.002  -0.004   0.002  0.00  0.00    +0.200 C 
ATOM     15  O   LIG    1       -0.017   1.425   0.010  0.00  0.00    -0.390 OA
ENDBRANCH  13  15
ENDBRANCH   5  13
ENDBRANCH   1  10
BRANCH   3  16
ATOM     16  C   LIG    1        5.283   3.477  -2.561  0.00  0.00    +0.330 C 
BRANCH  16  17
ATOM     17  N   LIG    1        6.731   3.550  -2.349  0.00  0.00    -0.410 N 
ATOM     18  C   LIG    1        7.518   4.634  -2.539  0.00  0.00    +0.110 A 
ATOM     19  N   LIG    1        8.751   4.315  -2.244  0.00  0.00    -0.420 NA
ATOM     20  C   LIG    1        8.794   3.033  -1.868  0.00  0.00    +0.010 A 
ATOM     21  C   LIG    1        9.998   2.229  -1.443  0.00  0.00    +0.130 C 
ATOM     22  C   LIG    1        9.508   0.969  -0.721  0.00  0.00    +0.030 C 
ATOM     23  C   LIG    1        8.443   0.272  -1.572  0.00  0.00    +0.040 C 
ATOM     24  C   LIG    1        7.165   1.121  -1.585  0.00  0.00    +0.120 C 
ATOM     25  C   LIG    1        7.539   2.539  -1.929  0.00  0.00    +0.030 A 
BRANCH  18  26
ATOM     26  C   LIG    1        7.050   5.987  -3.010  0.00  0.00    +0.560 C 
ATOM     27  F   LIG    1        6.391   6.642  -1.964  0.00  0.00    -0.160 F 
ATOM     28  F   LIG    1        6.173   5.827  -4.088  0.00  0.00    -0.170 F 
ATOM     29  F   LIG    1        8.153   6.747  -3.414  0.00  0.00    -0.150 F 
ENDBRANCH  18  26
ENDBRANCH  16  17
ENDBRANCH   3  16
TORSDOF 7
