REMARK  Name = ZINCrg000000ok5l.0
REMARK                            x       y       z     vdW  Elec       q    Type
REMARK                         _______ _______ _______ _____ _____    ______ ____
ROOT
ATOM      1  C   LIG    1       -1.207  -0.821   0.131  0.00  0.00    +0.260 C 
ATOM      2  C   LIG    1       -1.904  -0.488   1.452  0.00  0.00    +0.100 C 
ENDROOT
BRANCH   1   3
ATOM      3  N   LIG    1       -0.867  -2.246   0.103  0.00  0.00    -0.400 N 
ATOM      4  C   LIG    1       -0.068  -2.897   0.972  0.00  0.00    +0.530 A 
ATOM      5  N   LIG    1        0.007  -4.160   0.640  0.00  0.00    -0.500 NA
ATOM      6  C   LIG    1       -0.732  -4.388  -0.449  0.00  0.00    +0.330 A 
ATOM      7  N   LIG    1       -1.003  -5.514  -1.208  0.00  0.00    -0.510 N 
ATOM      8  C   LIG    1       -0.410  -6.803  -0.841  0.00  0.00    +0.340 C 
ATOM      9  C   LIG    1       -1.822  -5.430  -2.273  0.00  0.00    +0.710 A 
ATOM     10  O   LIG    1       -2.051  -6.430  -2.925  0.00  0.00    -0.530 OA
ATOM     11  N   LIG    1       -2.386  -4.266  -2.639  0.00  0.00    -0.550 N 
ATOM     12  C   LIG    1       -3.264  -4.226  -3.811  0.00  0.00    +0.360 C 
ATOM     13  C   LIG    1       -2.156  -3.133  -1.942  0.00  0.00    +0.600 A 
ATOM     14  O   LIG    1       -2.673  -2.084  -2.284  0.00  0.00    -0.520 OA
ATOM     15  C   LIG    1       -1.310  -3.178  -0.813  0.00  0.00    -0.160 A 
ENDBRANCH   1   3
BRANCH   1  18
ATOM     16  N   LIG    1       -0.016   1.344   0.009  0.00  0.00    -0.660 N 
ATOM     17  H   LIG    1       -0.880   1.785   0.018  0.00  0.00    +0.410 HD
ATOM     18  C   LIG    1        0.052  -0.003   0.008  0.00  0.00    +0.510 C 
ATOM     19  O   LIG    1        1.127  -0.555  -0.093  0.00  0.00    -0.500 OA
BRANCH  16  23
ATOM     20  C   LIG    1        3.483   3.610  -0.042  0.00  0.00    +0.120 A 
ATOM     21  C   LIG    1        3.426   2.408  -0.732  0.00  0.00    +0.010 A 
ATOM     22  C   LIG    1        2.267   1.657  -0.715  0.00  0.00    +0.060 A 
ATOM     23  C   LIG    1        1.160   2.105  -0.007  0.00  0.00    +0.100 A 
ATOM     24  C   LIG    1        1.217   3.311   0.679  0.00  0.00    +0.030 A 
ATOM     25  C   LIG    1        2.377   4.058   0.665  0.00  0.00    -0.060 A 
BRANCH  20  26
ATOM     26  O   LIG    1        4.624   4.350  -0.060  0.00  0.00    -0.310 OA
BRANCH  26  28
ATOM     27  C   LIG    1        5.973   6.264   0.536  0.00  0.00    +0.070 C 
ATOM     28  C   LIG    1        4.613   5.577   0.672  0.00  0.00    +0.170 C 
ENDBRANCH  26  28
ENDBRANCH  20  26
ENDBRANCH  16  23
ENDBRANCH   1  18
TORSDOF 5
