REMARK  Name = ZINCqH00000515PV.0
REMARK                            x       y       z     vdW  Elec       q    Type
REMARK                         _______ _______ _______ _____ _____    ______ ____
ROOT
ATOM      1  C   LIG    1        4.811   0.917   0.087  0.00  0.00    +0.210 C 
ENDROOT
BRANCH   1   2
ATOM      2  C   LIG    1        6.051   1.710   0.413  0.00  0.00    -0.080 A 
ATOM      3  C   LIG    1        6.214   2.248   1.676  0.00  0.00    +0.070 A 
ATOM      4  C   LIG    1        7.353   2.970   1.978  0.00  0.00    -0.010 A 
ATOM      5  C   LIG    1        8.325   3.165   1.012  0.00  0.00    +0.100 A 
ATOM      6  C   LIG    1        8.158   2.630  -0.255  0.00  0.00    -0.010 A 
ATOM      7  F   LIG    1        9.436   3.877   1.304  0.00  0.00    -0.140 F 
ATOM      8  C   LIG    1        7.021   1.903  -0.552  0.00  0.00    +0.050 A 
ENDBRANCH   1   2
BRANCH   1   9
ATOM      9  N   LIG    1        4.524  -0.016   1.184  0.00  0.00    -0.520 NA
ATOM     10  C   LIG    1        3.975  -1.280   0.671  0.00  0.00    +0.150 C 
ATOM     11  C   LIG    1        3.747  -2.243   1.840  0.00  0.00    +0.220 C 
ATOM     12  O   LIG    1        2.882  -1.625   2.797  0.00  0.00    -0.380 OA
ATOM     13  C   LIG    1        3.386  -0.393   3.318  0.00  0.00    +0.220 C 
ATOM     14  C   LIG    1        3.611   0.589   2.165  0.00  0.00    +0.150 C 
ENDBRANCH   1   9
BRANCH   1  15
ATOM     15  C   LIG    1        3.629   1.871  -0.095  0.00  0.00    +0.250 C 
BRANCH  15  18
ATOM     16  O   LIG    1        1.151   2.912  -0.325  0.00  0.00    -0.540 OA
ATOM     17  C   LIG    1        1.242   1.720  -0.558  0.00  0.00    +0.550 C 
ATOM     18  N   LIG    1        2.438   1.105  -0.470  0.00  0.00    -0.730 N 
ATOM     19  H   LIG    1        2.510   0.156  -0.656  0.00  0.00    +0.400 HD
BRANCH  17  20
ATOM     20  C   LIG    1        0.092   0.982  -0.921  0.00  0.00    -0.110 C 
ATOM     21  C   LIG    1       -1.112   1.603  -1.014  0.00  0.00    +0.190 C 
BRANCH  21  22
ATOM     22  C   LIG    1       -2.261   0.865  -1.383  0.00  0.00    -0.200 A 
ATOM     23  C   LIG    1       -3.528   1.375  -1.506  0.00  0.00    +0.080 A 
ATOM     24  C   LIG    1       -4.456   0.434  -1.882  0.00  0.00    +0.020 A 
ATOM     25  C   LIG    1       -3.974  -0.805  -2.052  0.00  0.00    -0.170 A 
ATOM     26 CL   LIG    1       -4.930  -2.177  -2.517  0.00  0.00    -0.010 Cl
ATOM     27  S   LIG    1       -2.296  -0.855  -1.750  0.00  0.00    +0.250 S 
ENDBRANCH  21  22
ENDBRANCH  17  20
ENDBRANCH  15  18
ENDBRANCH   1  15
TORSDOF 6
