REMARK  Name = ZINCpe000000WqjH.0
REMARK                            x       y       z     vdW  Elec       q    Type
REMARK                         _______ _______ _______ _____ _____    ______ ____
ROOT
ATOM      1  C   LIG    1       -1.984  -3.912   0.682  0.00  0.00    +0.210 C 
ENDROOT
BRANCH   1   2
ATOM      2  C   LIG    1       -3.419  -4.156   0.290  0.00  0.00    +0.520 C 
ATOM      3  N   LIG    1       -4.167  -5.035   0.985  0.00  0.00    -0.620 N 
ATOM      4  C   LIG    1       -3.595  -5.769   2.123  0.00  0.00    +0.270 C 
ATOM      5  C   LIG    1       -4.481  -5.518   3.356  0.00  0.00    +0.300 C 
ATOM      6  N   LIG    1       -5.881  -5.766   2.985  0.00  0.00    -1.000 NA
ATOM      7  C   LIG    1       -6.451  -5.037   1.844  0.00  0.00    +0.300 C 
ATOM      8  C   LIG    1       -5.567  -5.283   0.614  0.00  0.00    +0.280 C 
ATOM      9  O   LIG    1       -3.900  -3.560  -0.650  0.00  0.00    -0.510 OA
BRANCH   6  10
ATOM     10  S   LIG    1       -6.800  -6.847   3.839  0.00  0.00    +2.610 S 
ATOM     11  O   LIG    1       -8.135  -6.396   3.652  0.00  0.00    -0.950 OA
ATOM     12  O   LIG    1       -6.208  -6.867   5.130  0.00  0.00    -0.950 OA
ATOM     13  C   LIG    1       -6.539  -8.430   2.993  0.00  0.00    -0.280 C 
ENDBRANCH   6  10
ENDBRANCH   1   2
BRANCH   1  14
ATOM     14  N   LIG    1       -1.391  -2.918  -0.223  0.00  0.00    -0.520 NA
ATOM     15  C   LIG    1       -2.028  -1.605  -0.052  0.00  0.00    +0.210 C 
BRANCH  14  16
ATOM     16  C   LIG    1        0.062  -2.828  -0.026  0.00  0.00    +0.240 C 
BRANCH  16  23
ATOM     17  C   LIG    1        0.606  -0.607  -1.056  0.00  0.00    +0.140 A 
ATOM     18  C   LIG    1        1.168   0.161  -2.065  0.00  0.00    -0.060 A 
ATOM     19  C   LIG    1        1.782  -0.454  -3.139  0.00  0.00    +0.070 A 
ATOM     20  C   LIG    1        1.836  -1.835  -3.209  0.00  0.00    -0.070 A 
ATOM     21  C   LIG    1        1.276  -2.603  -2.203  0.00  0.00    +0.090 A 
ATOM     22 CL   LIG    1        2.607  -2.605  -4.560  0.00  0.00    -0.070 Cl
ATOM     23  C   LIG    1        0.666  -1.992  -1.125  0.00  0.00    -0.100 A 
BRANCH  17  25
ATOM     24  C   LIG    1       -0.017   1.425   0.010  0.00  0.00    +0.240 C 
ATOM     25  O   LIG    1        0.002  -0.004   0.002  0.00  0.00    -0.310 OA
ENDBRANCH  17  25
ENDBRANCH  16  23
ENDBRANCH  14  16
ENDBRANCH   1  14
TORSDOF 6
