REMARK  Name = ZINCnE000005sroE.0
REMARK                            x       y       z     vdW  Elec       q    Type
REMARK                         _______ _______ _______ _____ _____    ______ ____
ROOT
ATOM      1  N   LIG    1       -1.470  -3.136  -0.000  0.00  0.00    -0.680 NA
ATOM      2  C   LIG    1       -0.695  -2.084  -0.002  0.00  0.00    +0.430 A 
ATOM      3  N   LIG    1        0.675  -2.079  -0.015  0.00  0.00    -0.540 NA
ATOM      4  N   LIG    1        1.067  -0.732  -0.012  0.00  0.00    -0.290 NA
ATOM      5  C   LIG    1        0.002  -0.004   0.002  0.00  0.00    +0.080 A 
ATOM      6  O   LIG    1       -1.090  -0.795   0.014  0.00  0.00    -0.300 OA
ENDROOT
BRANCH   1   7
ATOM      7  C   LIG    1       -0.883  -4.478  -0.013  0.00  0.00    +0.250 C 
BRANCH   7  12
ATOM      8  C   LIG    1       -0.595  -5.905   3.475  0.00  0.00    +0.080 A 
ATOM      9  C   LIG    1       -1.841  -6.490   3.639  0.00  0.00    -0.070 A 
ATOM     10  C   LIG    1       -2.775  -6.423   2.623  0.00  0.00    -0.060 A 
ATOM     11  C   LIG    1       -2.466  -5.771   1.439  0.00  0.00    +0.110 A 
ATOM     12  C   LIG    1       -1.219  -5.186   1.274  0.00  0.00    -0.040 A 
ATOM     13  C   LIG    1       -0.284  -5.257   2.288  0.00  0.00    +0.020 A 
BRANCH   8  15
ATOM     14  C   LIG    1       -0.062  -6.657   5.667  0.00  0.00    +0.220 C 
ATOM     15  O   LIG    1        0.324  -5.970   4.475  0.00  0.00    -0.320 OA
ENDBRANCH   8  15
BRANCH  11  16
ATOM     16  O   LIG    1       -3.385  -5.705   0.439  0.00  0.00    -0.300 OA
ATOM     17  C   LIG    1       -4.649  -6.329   0.677  0.00  0.00    +0.220 C 
ENDBRANCH  11  16
ENDBRANCH   7  12
ENDBRANCH   1   7
BRANCH   5  18
ATOM     18  C   LIG    1       -0.018   1.503   0.010  0.00  0.00    +0.140 C 
BRANCH  18  19
ATOM     19  C   LIG    1        1.417   2.032  -0.001  0.00  0.00    +0.000 C 
ATOM     20  C   LIG    1        2.115   1.695   1.333  0.00  0.00    +0.030 C 
ATOM     21  C   LIG    1        2.998   2.934   1.624  0.00  0.00    -0.010 C 
ATOM     22  C   LIG    1        2.107   4.108   1.148  0.00  0.00    +0.000 C 
ATOM     23  C   LIG    1        1.412   3.567  -0.118  0.00  0.00    +0.000 C 
ENDBRANCH  18  19
ENDBRANCH   5  18
TORSDOF 6
