REMARK  Name = ZINCrg000000sQoq.0
REMARK                            x       y       z     vdW  Elec       q    Type
REMARK                         _______ _______ _______ _____ _____    ______ ____
ROOT
ATOM      1  C   LIG    1       -3.692   3.821  -7.615  0.00  0.00    -0.120 A 
ATOM      2  C   LIG    1       -3.773   2.460  -7.849  0.00  0.00    +0.060 A 
ATOM      3  C   LIG    1       -3.513   1.560  -6.830  0.00  0.00    +0.000 A 
ATOM      4  C   LIG    1       -3.172   2.015  -5.574  0.00  0.00    +0.050 A 
ATOM      5  C   LIG    1       -3.089   3.388  -5.331  0.00  0.00    -0.140 A 
ATOM      6  C   LIG    1       -3.357   4.290  -6.361  0.00  0.00    +0.100 A 
ENDROOT
BRANCH   5   7
ATOM      7  C   LIG    1       -2.724   3.883  -3.987  0.00  0.00    +0.560 C 
ATOM      8  N   LIG    1       -2.470   3.009  -2.992  0.00  0.00    -0.720 N 
ATOM      9  H   LIG    1       -2.528   2.055  -3.159  0.00  0.00    +0.400 HD
ATOM     10  O   LIG    1       -2.652   5.078  -3.778  0.00  0.00    -0.530 OA
BRANCH   8  11
ATOM     11  C   LIG    1       -2.109   3.500  -1.660  0.00  0.00    +0.280 C 
BRANCH  11  12
ATOM     12  C   LIG    1       -1.875   2.312  -0.725  0.00  0.00    +0.150 C 
ATOM     13  C   LIG    1       -1.546   2.808   0.706  0.00  0.00    +0.020 C 
ATOM     14  C   LIG    1       -0.747   1.596   1.263  0.00  0.00    +0.010 C 
ATOM     15  C   LIG    1       -0.008   1.087   0.006  0.00  0.00    +0.190 C 
ATOM     16  O   LIG    1       -0.718   1.570  -1.141  0.00  0.00    -0.380 OA
ENDBRANCH  11  12
ENDBRANCH   8  11
ENDBRANCH   5   7
BRANCH   1  17
ATOM     17  C   LIG    1       -3.977   4.794  -8.730  0.00  0.00    +0.340 C 
BRANCH  17  24
ATOM     18  C   LIG    1       -8.940   6.298 -11.447  0.00  0.00    +0.290 C 
ATOM     19  C   LIG    1       -7.785   7.065 -10.781  0.00  0.00    +0.320 C 
ATOM     20  N   LIG    1       -7.218   6.212  -9.724  0.00  0.00    -0.630 N 
ATOM     21  C   LIG    1       -8.142   5.621  -8.743  0.00  0.00    +0.250 C 
ATOM     22  C   LIG    1       -9.279   4.929  -9.505  0.00  0.00    +0.240 C 
ATOM     23  C   LIG    1       -5.892   5.985  -9.653  0.00  0.00    +0.710 C 
ATOM     24  N   LIG    1       -5.404   5.126  -8.736  0.00  0.00    -0.740 N 
ATOM     25  H   LIG    1       -5.997   4.729  -8.079  0.00  0.00    +0.400 HD
ATOM     26  O   LIG    1       -5.136   6.554 -10.416  0.00  0.00    -0.580 OA
ATOM     27  O   LIG    1       -9.848   5.850 -10.438  0.00  0.00    -0.370 OA
BRANCH  18  29
ATOM     28  N   LIG    1      -10.188   7.878 -13.104  0.00  0.00    -0.390 NA
ATOM     29  C   LIG    1       -9.644   7.190 -12.383  0.00  0.00    +0.210 C 
ENDBRANCH  18  29
ENDBRANCH  17  24
ENDBRANCH   1  17
TORSDOF 6
