REMARK  Name = ZINCvU0000000Gf1.0
REMARK                            x       y       z     vdW  Elec       q    Type
REMARK                         _______ _______ _______ _____ _____    ______ ____
ROOT
ATOM      1  C   LIG    1        2.839   4.811   1.587  0.00  0.00    +0.540 C 
ATOM      2  N   LIG    1        2.954   3.477   1.432  0.00  0.00    -0.500 N 
ATOM      3  C   LIG    1        1.885   2.649   1.798  0.00  0.00    +0.140 A 
ATOM      4  C   LIG    1        0.579   3.051   1.566  0.00  0.00    +0.000 A 
ATOM      5  C   LIG    1       -0.472   2.226   1.925  0.00  0.00    +0.060 A 
ATOM      6  C   LIG    1       -0.229   0.999   2.511  0.00  0.00    +0.030 A 
ATOM      7  C   LIG    1        1.071   0.591   2.755  0.00  0.00    +0.080 A 
ATOM      8  C   LIG    1        2.126   1.411   2.398  0.00  0.00    -0.130 A 
ATOM      9  S   LIG    1        3.793   0.912   2.694  0.00  0.00    +0.020 S 
ATOM     10  C   LIG    1        4.654   1.746   1.399  0.00  0.00    -0.130 A 
ATOM     11  C   LIG    1        5.821   1.218   0.876  0.00  0.00    +0.070 A 
ATOM     12  C   LIG    1        6.484   1.888  -0.138  0.00  0.00    +0.030 A 
ATOM     13  C   LIG    1        5.981   3.080  -0.626  0.00  0.00    +0.050 A 
ATOM     14  C   LIG    1        4.814   3.611  -0.107  0.00  0.00    +0.040 A 
ATOM     15  C   LIG    1        4.141   2.948   0.907  0.00  0.00    +0.140 A 
ATOM     16  O   LIG    1        3.785   5.534   1.349  0.00  0.00    -0.480 OA
ENDROOT
BRANCH   1  17
ATOM     17  C   LIG    1        1.537   5.405   2.058  0.00  0.00    +0.130 C 
BRANCH  17  18
ATOM     18  S   LIG    1        1.821   7.092   2.649  0.00  0.00    +0.080 S 
BRANCH  18  22
ATOM     19  C   LIG    1       -1.571   8.606   3.860  0.00  0.00    +0.230 A 
ATOM     20  N   LIG    1       -1.917   7.403   3.466  0.00  0.00    -0.260 NA
ATOM     21  N   LIG    1       -0.886   6.770   3.032  0.00  0.00    -0.290 NA
ATOM     22  C   LIG    1        0.182   7.531   3.123  0.00  0.00    +0.140 A 
ATOM     23  N   LIG    1       -0.215   8.723   3.658  0.00  0.00    -0.460 N 
ATOM     24  C   LIG    1        0.627   9.885   3.953  0.00  0.00    +0.350 C 
BRANCH  19  30
ATOM     25  C   LIG    1       -5.904   9.867   5.989  0.00  0.00    +0.100 C 
ATOM     26  C   LIG    1       -4.552  10.250   5.446  0.00  0.00    -0.080 A 
ATOM     27  C   LIG    1       -4.148  11.573   5.472  0.00  0.00    +0.030 A 
ATOM     28  C   LIG    1       -2.908  11.934   4.976  0.00  0.00    +0.020 A 
ATOM     29  C   LIG    1       -2.066  10.976   4.451  0.00  0.00    +0.010 A 
ATOM     30  C   LIG    1       -2.467   9.639   4.422  0.00  0.00    -0.020 A 
ATOM     31  C   LIG    1       -3.721   9.282   4.920  0.00  0.00    +0.070 A 
ENDBRANCH  19  30
ENDBRANCH  18  22
ENDBRANCH  17  18
ENDBRANCH   1  17
TORSDOF 4
