REMARK  Name = ZINCrD000006UYWm.1
REMARK                            x       y       z     vdW  Elec       q    Type
REMARK                         _______ _______ _______ _____ _____    ______ ____
ROOT
ATOM      1  C   LIG    1        2.263   0.156   1.052  0.00  0.00    +0.010 C 
ATOM      2  C   LIG    1        0.880  -0.492   1.159  0.00  0.00    +0.050 C 
ATOM      3  C   LIG    1        0.002  -0.004   0.002  0.00  0.00    +0.300 C 
ATOM      4  N   LIG    1       -0.018   1.465   0.010  0.00  0.00    -1.000 NA
ATOM      5  C   LIG    1        1.261   2.189   0.002  0.00  0.00    +0.300 C 
ATOM      6  C   LIG    1        2.125   1.677   1.158  0.00  0.00    +0.030 C 
ENDROOT
BRANCH   1   9
ATOM      7  N   LIG    1        4.411   0.089   2.277  0.00  0.00    -0.630 N 
ATOM      8  H   LIG    1        4.760   0.728   1.636  0.00  0.00    +0.430 HD
ATOM      9  C   LIG    1        3.140  -0.347   2.169  0.00  0.00    +0.510 C 
ATOM     10  O   LIG    1        2.703  -1.146   2.971  0.00  0.00    -0.460 OA
BRANCH   7  14
ATOM     11  C   LIG    1        6.916  -0.989   5.002  0.00  0.00    -0.010 A 
ATOM     12  N   LIG    1        5.741  -1.540   5.093  0.00  0.00    -0.240 NA
ATOM     13  N   LIG    1        4.876  -1.222   4.232  0.00  0.00    -0.250 NA
ATOM     14  C   LIG    1        5.222  -0.376   3.309  0.00  0.00    +0.250 A 
ATOM     15  S   LIG    1        6.900   0.086   3.602  0.00  0.00    +0.120 S 
BRANCH  11  16
ATOM     16  S   LIG    1        8.279  -1.265   6.083  0.00  0.00    +0.020 S 
BRANCH  16  18
ATOM     17  C   LIG    1        8.698  -2.807   8.303  0.00  0.00    +0.080 C 
ATOM     18  C   LIG    1        7.617  -2.458   7.278  0.00  0.00    +0.090 C 
ENDBRANCH  16  18
ENDBRANCH  11  16
ENDBRANCH   7  14
ENDBRANCH   1   9
BRANCH   4  19
ATOM     19  S   LIG    1       -1.454   2.289   0.021  0.00  0.00    +2.690 S 
ATOM     20  O   LIG    1       -2.427   1.408  -0.523  0.00  0.00    -0.950 OA
ATOM     21  O   LIG    1       -1.183   3.576  -0.517  0.00  0.00    -0.950 OA
BRANCH  19  22
ATOM     22  C   LIG    1       -1.898   2.540   1.708  0.00  0.00    -0.680 A 
ATOM     23  C   LIG    1       -2.673   1.602   2.365  0.00  0.00    +0.140 A 
ATOM     24  C   LIG    1       -3.018   1.795   3.689  0.00  0.00    +0.020 A 
ATOM     25  C   LIG    1       -2.596   2.933   4.355  0.00  0.00    +0.020 A 
ATOM     26  C   LIG    1       -1.825   3.873   3.695  0.00  0.00    +0.010 A 
ATOM     27 CL   LIG    1       -3.033   3.179   6.016  0.00  0.00    -0.050 Cl
ATOM     28  C   LIG    1       -1.477   3.676   2.372  0.00  0.00    +0.140 A 
ENDBRANCH  19  22
ENDBRANCH   4  19
TORSDOF 6
