REMARK  Name = ZINCqH00000070mT.0
REMARK                            x       y       z     vdW  Elec       q    Type
REMARK                         _______ _______ _______ _____ _____    ______ ____
ROOT
ATOM      1  C   LIG    1       -1.182   1.507   0.828  0.00  0.00    +0.380 C 
ENDROOT
BRANCH   1   5
ATOM      2  N   LIG    1       -1.705   2.858   4.194  0.00  0.00    -0.310 N 
ATOM      3  C   LIG    1       -0.363   2.994   4.099  0.00  0.00    +0.230 A 
ATOM      4  C   LIG    1        0.013   2.531   2.884  0.00  0.00    -0.090 A 
ATOM      5  C   LIG    1       -1.137   2.098   2.214  0.00  0.00    +0.060 A 
ATOM      6  N   LIG    1       -2.167   2.298   2.996  0.00  0.00    -0.270 NA
BRANCH   2  10
ATOM      7  C   LIG    1       -4.054   3.930   7.470  0.00  0.00    +0.120 A 
ATOM      8  C   LIG    1       -4.646   3.377   6.343  0.00  0.00    +0.010 A 
ATOM      9  C   LIG    1       -3.869   3.022   5.259  0.00  0.00    +0.070 A 
ATOM     10  C   LIG    1       -2.495   3.218   5.296  0.00  0.00    +0.120 A 
ATOM     11  C   LIG    1       -1.903   3.766   6.426  0.00  0.00    +0.030 A 
ATOM     12  C   LIG    1       -2.681   4.126   7.508  0.00  0.00    -0.040 A 
BRANCH   7  14
ATOM     13  C   LIG    1       -4.144   4.843   9.664  0.00  0.00    +0.240 C 
ATOM     14  O   LIG    1       -4.820   4.279   8.538  0.00  0.00    -0.310 OA
ENDBRANCH   7  14
ENDBRANCH   2  10
ENDBRANCH   1   5
BRANCH   1  15
ATOM     15  N   LIG    1       -1.150   0.045   0.919  0.00  0.00    -0.720 N 
ATOM     16  H   LIG    1       -1.107  -0.386   1.786  0.00  0.00    +0.400 HD
ATOM     17  C   LIG    1       -1.181  -0.700  -0.204  0.00  0.00    +0.550 C 
ATOM     18  O   LIG    1       -1.236  -0.161  -1.289  0.00  0.00    -0.530 OA
BRANCH  17  19
ATOM     19  C   LIG    1       -1.149  -2.204  -0.111  0.00  0.00    -0.050 C 
ATOM     20  C   LIG    1       -1.801  -2.996  -1.245  0.00  0.00    +0.040 C 
ATOM     21  C   LIG    1       -2.477  -2.926   0.126  0.00  0.00    -0.090 C 
ATOM     22  C   LIG    1       -3.736  -2.066   0.250  0.00  0.00    +0.070 C 
ATOM     23  C   LIG    1       -2.450  -4.187   0.992  0.00  0.00    +0.080 C 
BRANCH  20  24
ATOM     24  C   LIG    1       -1.161  -4.303  -1.639  0.00  0.00    -0.030 C 
ATOM     25  C   LIG    1       -1.572  -4.938  -2.709  0.00  0.00    -0.120 C 
ATOM     26  C   LIG    1       -0.932  -6.244  -3.103  0.00  0.00    +0.070 C 
ATOM     27  C   LIG    1       -2.686  -4.362  -3.545  0.00  0.00    +0.080 C 
ENDBRANCH  20  24
ENDBRANCH  17  19
ENDBRANCH   1  15
TORSDOF 6
