REMARK  Name = ZINCpk00000KfLRb.0
REMARK                            x       y       z     vdW  Elec       q    Type
REMARK                         _______ _______ _______ _____ _____    ______ ____
ROOT
ATOM      1  C   LIG    1       -6.514  -0.341   2.370  0.00  0.00    +0.330 C 
ATOM      2  N   LIG    1       -7.065  -0.901   1.329  0.00  0.00    -0.280 NA
ATOM      3  N   LIG    1       -7.942  -1.981   1.476  0.00  0.00    -0.400 N 
ATOM      4  C   LIG    1       -8.486  -2.269   2.676  0.00  0.00    +0.480 C 
ATOM      5  C   LIG    1       -8.153  -1.403   3.868  0.00  0.00    +0.340 C 
ATOM      6  O   LIG    1       -9.235  -3.215   2.796  0.00  0.00    -0.500 OA
ATOM      7  N   LIG    1       -6.823  -0.815   3.649  0.00  0.00    -0.740 N 
ATOM      8  H   LIG    1       -6.178  -0.758   4.371  0.00  0.00    +0.420 HD
ENDROOT
BRANCH   3   9
ATOM      9  C   LIG    1       -8.263  -2.768   0.365  0.00  0.00    +0.150 A 
ATOM     10  C   LIG    1       -7.255  -3.248  -0.462  0.00  0.00    +0.020 A 
ATOM     11  C   LIG    1       -7.575  -4.030  -1.555  0.00  0.00    +0.020 A 
ATOM     12  C   LIG    1       -8.898  -4.325  -1.833  0.00  0.00    +0.010 A 
ATOM     13  C   LIG    1       -9.903  -3.844  -1.015  0.00  0.00    +0.030 A 
ATOM     14  C   LIG    1       -9.590  -3.066   0.083  0.00  0.00    +0.030 A 
ENDBRANCH   3   9
BRANCH   1  16
ATOM     15  O   LIG    1       -5.072   1.308   3.175  0.00  0.00    -0.510 OA
ATOM     16  C   LIG    1       -5.579   0.786   2.201  0.00  0.00    +0.590 C 
ATOM     17  N   LIG    1       -5.285   1.238   0.965  0.00  0.00    -0.700 N 
ATOM     18  H   LIG    1       -5.689   0.822   0.188  0.00  0.00    +0.410 HD
BRANCH  17  19
ATOM     19  C   LIG    1       -4.356   2.358   0.797  0.00  0.00    +0.280 C 
BRANCH  19  20
ATOM     20  C   LIG    1       -4.198   2.670  -0.693  0.00  0.00    +0.090 C 
BRANCH  20  21
ATOM     21  C   LIG    1       -3.242   3.822  -0.866  0.00  0.00    -0.120 A 
ATOM     22  C   LIG    1       -1.926   3.582  -1.215  0.00  0.00    +0.050 A 
ATOM     23  C   LIG    1       -1.051   4.639  -1.380  0.00  0.00    +0.000 A 
ATOM     24  C   LIG    1       -1.488   5.937  -1.190  0.00  0.00    +0.040 A 
ATOM     25  C   LIG    1       -2.802   6.179  -0.836  0.00  0.00    -0.010 A 
ATOM     26  C   LIG    1       -3.680   5.121  -0.670  0.00  0.00    +0.100 A 
ATOM     27  F   LIG    1       -4.964   5.356  -0.323  0.00  0.00    -0.140 F 
ENDBRANCH  20  21
ENDBRANCH  19  20
ENDBRANCH  17  19
ENDBRANCH   1  16
TORSDOF 5
