REMARK  Name = ZINCqH0000008GQa.0
REMARK                            x       y       z     vdW  Elec       q    Type
REMARK                         _______ _______ _______ _____ _____    ______ ____
ROOT
ATOM      1  C   LIG    1        3.438  10.758  -2.352  0.00  0.00    +0.070 C 
ATOM      2  C   LIG    1        3.319  10.938  -0.837  0.00  0.00    -0.010 C 
ATOM      3  C   LIG    1        3.588   9.662  -0.023  0.00  0.00    +0.260 C 
ATOM      4  N   LIG    1        2.165   9.325  -0.181  0.00  0.00    -0.650 N 
ATOM      5  C   LIG    1        1.432   8.195  -0.206  0.00  0.00    +0.730 C 
ATOM      6  N   LIG    1        2.035   6.997  -0.068  0.00  0.00    -0.680 N 
ATOM      7  H   LIG    1        2.984   6.952   0.127  0.00  0.00    +0.410 HD
ATOM      8  O   LIG    1        0.227   8.255  -0.354  0.00  0.00    -0.560 OA
ATOM      9  C   LIG    1        1.893  10.767  -0.294  0.00  0.00    +0.300 C 
ENDROOT
BRANCH   6  10
ATOM     10  C   LIG    1        1.292   5.821  -0.205  0.00  0.00    +0.180 A 
ATOM     11  C   LIG    1        0.229   5.772  -1.098  0.00  0.00    +0.010 A 
ATOM     12  C   LIG    1       -0.505   4.612  -1.236  0.00  0.00    +0.090 A 
ATOM     13  C   LIG    1       -0.179   3.489  -0.478  0.00  0.00    -0.040 A 
ATOM     14  C   LIG    1        0.885   3.542   0.421  0.00  0.00    +0.070 A 
ATOM     15  C   LIG    1        1.619   4.702   0.551  0.00  0.00    -0.020 A 
BRANCH  13  16
ATOM     16  C   LIG    1       -0.967   2.240  -0.624  0.00  0.00    +0.270 A 
ATOM     17  N   LIG    1       -0.757   1.120   0.033  0.00  0.00    -0.310 NA
ATOM     18  N   LIG    1       -1.726   0.205  -0.409  0.00  0.00    -0.380 N 
ATOM     19  C   LIG    1       -2.473   0.850  -1.323  0.00  0.00    +0.480 A 
ATOM     20  C   LIG    1       -1.893  -1.180   0.038  0.00  0.00    +0.370 C 
ATOM     21  N   LIG    1       -2.011   2.067  -1.445  0.00  0.00    -0.540 NA
ENDBRANCH  13  16
ENDBRANCH   6  10
BRANCH   9  22
ATOM     22  C   LIG    1        1.671  11.441   1.035  0.00  0.00    -0.090 A 
ATOM     23  C   LIG    1        2.144  10.855   2.195  0.00  0.00    +0.010 A 
ATOM     24  C   LIG    1        1.944  11.476   3.414  0.00  0.00    +0.000 A 
ATOM     25  C   LIG    1        1.264  12.678   3.474  0.00  0.00    +0.000 A 
ATOM     26  C   LIG    1        0.786  13.261   2.315  0.00  0.00    +0.010 A 
ATOM     27  C   LIG    1        0.990  12.642   1.096  0.00  0.00    +0.030 A 
ENDBRANCH   9  22
TORSDOF 3
