REMARK  Name = ZINCrD000000BoRE.0
REMARK                            x       y       z     vdW  Elec       q    Type
REMARK                         _______ _______ _______ _____ _____    ______ ____
ROOT
ATOM      1  C   LIG    1       -2.161   8.241   0.502  0.00  0.00    +0.230 A 
ATOM      2  C   LIG    1       -3.418   7.667   0.641  0.00  0.00    +0.010 A 
ATOM      3  C   LIG    1       -3.558   6.470   1.315  0.00  0.00    +0.140 A 
ATOM      4  C   LIG    1       -2.449   5.842   1.851  0.00  0.00    -0.700 A 
ATOM      5  C   LIG    1       -1.197   6.413   1.719  0.00  0.00    +0.140 A 
ATOM      6  C   LIG    1       -1.049   7.608   1.041  0.00  0.00    -0.030 A 
ENDROOT
BRANCH   1   9
ATOM      7  O   LIG    1       -3.955  10.205   0.599  0.00  0.00    -0.560 OA
ATOM      8  C   LIG    1       -2.992  10.381  -0.122  0.00  0.00    +0.700 C 
ATOM      9  N   LIG    1       -2.015   9.454  -0.180  0.00  0.00    -0.690 N 
ATOM     10  H   LIG    1       -1.212   9.628  -0.695  0.00  0.00    +0.410 HD
ATOM     11  N   LIG    1       -2.901  11.503  -0.864  0.00  0.00    -0.740 N 
ATOM     12  H   LIG    1       -2.133  11.643  -1.439  0.00  0.00    +0.400 HD
BRANCH  11  13
ATOM     13  C   LIG    1       -3.962  12.511  -0.801  0.00  0.00    +0.340 C 
BRANCH  13  14
ATOM     14  C   LIG    1       -3.621  13.658  -1.717  0.00  0.00    -0.130 A 
ATOM     15  C   LIG    1       -2.897  14.733  -1.237  0.00  0.00    +0.070 A 
ATOM     16  C   LIG    1       -2.579  15.783  -2.078  0.00  0.00    -0.020 A 
ATOM     17  C   LIG    1       -2.996  15.762  -3.398  0.00  0.00    +0.110 A 
ATOM     18  C   LIG    1       -3.726  14.688  -3.876  0.00  0.00    -0.020 A 
ATOM     19  F   LIG    1       -2.691  16.791  -4.219  0.00  0.00    -0.140 F 
ATOM     20  C   LIG    1       -4.038  13.636  -3.035  0.00  0.00    +0.070 A 
ENDBRANCH  13  14
ENDBRANCH  11  13
ENDBRANCH   1   9
BRANCH   4  21
ATOM     21  S   LIG    1       -2.632   4.315   2.711  0.00  0.00    +2.690 S 
ATOM     22  O   LIG    1       -1.514   4.208   3.581  0.00  0.00    -0.950 OA
ATOM     23  O   LIG    1       -3.978   4.270   3.165  0.00  0.00    -0.960 OA
BRANCH  21  24
ATOM     24  N   LIG    1       -2.475   3.102   1.595  0.00  0.00    -1.110 NA
ATOM     25  H   LIG    1       -3.228   2.524   1.397  0.00  0.00    +0.420 HD
BRANCH  24  26
ATOM     26  C   LIG    1       -1.197   2.902   0.906  0.00  0.00    +0.240 C 
ATOM     27  C   LIG    1       -0.415   1.715   1.524  0.00  0.00    +0.010 C 
ATOM     28  C   LIG    1        0.523   1.250   0.391  0.00  0.00    +0.010 C 
ATOM     29  C   LIG    1       -0.120   1.710  -0.929  0.00  0.00    +0.010 C 
ATOM     30  C   LIG    1       -1.427   2.438  -0.553  0.00  0.00    +0.020 C 
ENDBRANCH  24  26
ENDBRANCH  21  24
ENDBRANCH   4  21
TORSDOF 6
