REMARK  Name = ZINCvU0000000Inp.0
REMARK                            x       y       z     vdW  Elec       q    Type
REMARK                         _______ _______ _______ _____ _____    ______ ____
ROOT
ATOM      1  C   LIG    1        4.280  -6.399   4.467  0.00  0.00    +0.600 C 
ATOM      2  N   LIG    1        4.452  -5.552   3.433  0.00  0.00    -0.610 N 
ATOM      3  C   LIG    1        5.166  -5.982   2.223  0.00  0.00    +0.270 C 
ATOM      4  C   LIG    1        6.292  -4.985   1.934  0.00  0.00    +0.020 C 
ATOM      5  C   LIG    1        5.708  -3.573   1.850  0.00  0.00    +0.010 C 
ATOM      6  C   LIG    1        5.068  -3.203   3.190  0.00  0.00    +0.010 C 
ATOM      7  C   LIG    1        3.928  -4.181   3.493  0.00  0.00    +0.290 C 
ATOM      8  O   LIG    1        3.778  -6.001   5.502  0.00  0.00    -0.520 OA
ENDROOT
BRANCH   1  11
ATOM      9  C   LIG    1        5.654  -7.989   6.665  0.00  0.00    +0.170 C 
ATOM     10  C   LIG    1        5.312  -8.537   5.304  0.00  0.00    +0.150 A 
ATOM     11  C   LIG    1        4.698  -7.800   4.345  0.00  0.00    -0.300 A 
ATOM     12  S   LIG    1        4.486  -8.828   2.930  0.00  0.00    +0.180 S 
ATOM     13  C   LIG    1        5.240 -10.126   3.748  0.00  0.00    +0.070 A 
ATOM     14  N   LIG    1        5.581  -9.767   4.944  0.00  0.00    -0.470 NA
BRANCH  13  15
ATOM     15  C   LIG    1        5.469 -11.495   3.162  0.00  0.00    +0.200 C 
BRANCH  15  16
ATOM     16  C   LIG    1        4.279 -12.372   3.453  0.00  0.00    -0.090 A 
ATOM     17  C   LIG    1        4.247 -13.131   4.608  0.00  0.00    +0.030 A 
ATOM     18  C   LIG    1        3.153 -13.932   4.878  0.00  0.00    +0.000 A 
ATOM     19  C   LIG    1        2.096 -13.982   3.988  0.00  0.00    +0.000 A 
ATOM     20  C   LIG    1        2.131 -13.227   2.831  0.00  0.00    +0.000 A 
ATOM     21  C   LIG    1        3.222 -12.422   2.563  0.00  0.00    +0.010 A 
ENDBRANCH  15  16
ENDBRANCH  13  15
ENDBRANCH   1  11
BRANCH   5  22
ATOM     22  C   LIG    1        6.825  -2.578   1.527  0.00  0.00    +0.140 C 
BRANCH  22  23
ATOM     23  C   LIG    1        6.233  -1.207   1.323  0.00  0.00    +0.290 A 
ATOM     24  N   LIG    1        5.286  -0.923   0.478  0.00  0.00    -0.490 NA
ATOM     25  C   LIG    1        4.992   0.401   0.551  0.00  0.00    +0.050 A 
ATOM     26  C   LIG    1        4.079   1.223  -0.115  0.00  0.00    +0.060 A 
ATOM     27  C   LIG    1        4.017   2.555   0.186  0.00  0.00    +0.000 A 
ATOM     28  C   LIG    1        4.853   3.103   1.148  0.00  0.00    +0.030 A 
ATOM     29  C   LIG    1        5.762   2.310   1.817  0.00  0.00    +0.010 A 
ATOM     30  C   LIG    1        5.839   0.956   1.526  0.00  0.00    +0.050 A 
ATOM     31  N   LIG    1        6.612  -0.087   1.996  0.00  0.00    -0.600 N 
ATOM     32  H   LIG    1        7.298  -0.031   2.679  0.00  0.00    +0.420 HD
ENDBRANCH  22  23
ENDBRANCH   5  22
TORSDOF 5
