REMARK  Name = ZINCkj000005lwsF.0
REMARK                            x       y       z     vdW  Elec       q    Type
REMARK                         _______ _______ _______ _____ _____    ______ ____
ROOT
ATOM      1  O   LIG    1        2.850   0.731  -3.801  0.00  0.00    -0.540 OA
ATOM      2  C   LIG    1        1.848   1.401  -3.674  0.00  0.00    +0.510 C 
ATOM      3  N   LIG    1        1.359   1.658  -2.445  0.00  0.00    -0.720 N 
ATOM      4  H   LIG    1        0.557   2.195  -2.343  0.00  0.00    +0.410 HD
ENDROOT
BRANCH   3   5
ATOM      5  C   LIG    1        2.040   1.127  -1.261  0.00  0.00    +0.250 C 
BRANCH   5   6
ATOM      6  C   LIG    1        1.286   1.562  -0.002  0.00  0.00    +0.260 C 
BRANCH   6   7
ATOM      7  C   LIG    1        2.052   1.121   1.219  0.00  0.00    -0.160 A 
ATOM      8  C   LIG    1        1.735  -0.072   1.840  0.00  0.00    +0.050 A 
ATOM      9  C   LIG    1        2.437  -0.477   2.961  0.00  0.00    +0.020 A 
ATOM     10  C   LIG    1        3.456   0.311   3.461  0.00  0.00    +0.060 A 
ATOM     11  C   LIG    1        3.776   1.504   2.841  0.00  0.00    -0.010 A 
ATOM     12  C   LIG    1        3.077   1.908   1.715  0.00  0.00    +0.110 A 
ATOM     13  F   LIG    1        3.392   3.071   1.105  0.00  0.00    -0.140 F 
ENDBRANCH   6   7
BRANCH   6  14
ATOM     14  O   LIG    1       -0.011   0.963   0.007  0.00  0.00    -0.550 OA
ATOM     15  H   LIG    1        0.002  -0.004   0.002  0.00  0.00    +0.380 HD
ENDBRANCH   6  14
ENDBRANCH   5   6
ENDBRANCH   3   5
BRANCH   2  16
ATOM     16  C   LIG    1        1.148   1.948  -4.892  0.00  0.00    +0.070 C 
BRANCH  16  17
ATOM     17  C   LIG    1        1.901   1.513  -6.151  0.00  0.00    +0.010 C 
ATOM     18  C   LIG    1        3.290   2.158  -6.164  0.00  0.00    +0.060 C 
ATOM     19  C   LIG    1        4.007   1.785  -7.464  0.00  0.00    +0.250 C 
ATOM     20  N   LIG    1        3.230   2.266  -8.613  0.00  0.00    -0.510 N 
ATOM     21  C   LIG    1        1.924   1.597  -8.646  0.00  0.00    +0.250 C 
ATOM     22  H   LIG    1        3.094   3.263  -8.530  0.00  0.00    +0.430 HD
ATOM     23  H   LIG    1        3.732   2.065  -9.465  0.00  0.00    +0.430 HD
ATOM     24  C   LIG    1        1.127   1.964  -7.393  0.00  0.00    +0.050 C 
ENDBRANCH  16  17
ENDBRANCH   2  16
TORSDOF 6
