REMARK  Name = ZINCrD000000CUXW.0
REMARK                            x       y       z     vdW  Elec       q    Type
REMARK                         _______ _______ _______ _____ _____    ______ ____
ROOT
ATOM      1  O   LIG    1        2.796   7.212  -0.343  0.00  0.00    -0.520 OA
ATOM      2  C   LIG    1        1.803   6.615   0.025  0.00  0.00    +0.700 C 
ATOM      3  N   LIG    1        1.015   5.896  -0.795  0.00  0.00    -0.710 N 
ATOM      4  H   LIG    1        1.136   5.767  -1.748  0.00  0.00    +0.450 HD
ATOM      5  C   LIG    1       -0.066   5.342   0.038  0.00  0.00    +0.280 C 
ATOM      6  C   LIG    1        0.245   5.865   1.427  0.00  0.00    +0.530 C 
ATOM      7  O   LIG    1       -0.384   5.663   2.443  0.00  0.00    -0.440 OA
ATOM      8  N   LIG    1        1.371   6.601   1.292  0.00  0.00    -0.520 N 
ENDROOT
BRANCH   5   9
ATOM      9  C   LIG    1       -0.032   3.836   0.019  0.00  0.00    -0.090 A 
ATOM     10  C   LIG    1        1.181   3.173  -0.012  0.00  0.00    +0.010 A 
ATOM     11  C   LIG    1        1.216   1.790  -0.030  0.00  0.00    +0.030 A 
ATOM     12  C   LIG    1        0.038   1.069  -0.017  0.00  0.00    +0.000 A 
ATOM     13  C   LIG    1       -1.181   1.732   0.008  0.00  0.00    +0.110 A 
ATOM     14  C   LIG    1       -1.213   3.118   0.032  0.00  0.00    +0.020 A 
BRANCH  13  15
ATOM     15  O   LIG    1       -2.341   1.024   0.015  0.00  0.00    -0.500 OA
ATOM     16  H   LIG    1       -2.664   0.808   0.900  0.00  0.00    +0.400 HD
ENDBRANCH  13  15
ENDBRANCH   5   9
BRANCH   8  17
ATOM     17  C   LIG    1        2.007   7.268   2.349  0.00  0.00    +0.130 A 
ATOM     18  C   LIG    1        1.413   7.305   3.604  0.00  0.00    +0.040 A 
ATOM     19  C   LIG    1        2.042   7.959   4.645  0.00  0.00    +0.030 A 
ATOM     20  C   LIG    1        3.261   8.586   4.436  0.00  0.00    +0.090 A 
ATOM     21  C   LIG    1        3.852   8.554   3.181  0.00  0.00    +0.040 A 
ATOM     22  C   LIG    1        3.227   7.896   2.140  0.00  0.00    +0.050 A 
BRANCH  20  23
ATOM     23  O   LIG    1        3.877   9.234   5.460  0.00  0.00    -0.250 OA
BRANCH  23  24
ATOM     24  C   LIG    1        4.486   8.485   6.413  0.00  0.00    +0.310 A 
ATOM     25  C   LIG    1        5.039   9.104   7.527  0.00  0.00    -0.040 A 
ATOM     26  C   LIG    1        5.654   8.328   8.494  0.00  0.00    +0.100 A 
ATOM     27  C   LIG    1        5.702   6.953   8.307  0.00  0.00    -0.070 A 
ATOM     28  C   LIG    1        5.136   6.405   7.172  0.00  0.00    +0.300 A 
ATOM     29  N   LIG    1        4.553   7.171   6.270  0.00  0.00    -0.530 NA
ENDBRANCH  23  24
ENDBRANCH  20  23
ENDBRANCH   8  17
TORSDOF 5
