REMARK  Name = ZINCtV00000L6kSQ.0
REMARK                            x       y       z     vdW  Elec       q    Type
REMARK                         _______ _______ _______ _____ _____    ______ ____
ROOT
ATOM      1  C   LIG    1        5.866   3.030   0.223  0.00  0.00    -0.130 A 
ATOM      2  C   LIG    1        7.058   2.736  -0.446  0.00  0.00    +0.050 A 
ATOM      3  C   LIG    1        7.983   3.731  -0.670  0.00  0.00    +0.010 A 
ATOM      4  C   LIG    1        7.736   5.026  -0.224  0.00  0.00    +0.140 A 
ATOM      5  C   LIG    1        6.553   5.320   0.447  0.00  0.00    +0.090 A 
ATOM      6  C   LIG    1        5.622   4.331   0.670  0.00  0.00    +0.100 A 
ENDROOT
BRANCH   1   9
ATOM      7  N   LIG    1        5.108   0.713   0.029  0.00  0.00    -0.660 N 
ATOM      8  H   LIG    1        5.978   0.480  -0.331  0.00  0.00    +0.410 HD
ATOM      9  C   LIG    1        4.871   1.967   0.461  0.00  0.00    +0.560 C 
ATOM     10  O   LIG    1        3.837   2.223   1.047  0.00  0.00    -0.510 OA
BRANCH   7  16
ATOM     11  C   LIG    1        4.426  -1.609   0.088  0.00  0.00    +0.100 A 
ATOM     12  C   LIG    1        3.422  -2.562   0.158  0.00  0.00    -0.060 A 
ATOM     13  C   LIG    1        2.099  -2.168   0.239  0.00  0.00    +0.030 A 
ATOM     14  C   LIG    1        1.773  -0.824   0.251  0.00  0.00    +0.000 A 
ATOM     15  C   LIG    1        2.768   0.132   0.181  0.00  0.00    +0.060 A 
ATOM     16  C   LIG    1        4.098  -0.255   0.099  0.00  0.00    +0.120 A 
BRANCH  11  18
ATOM     17  C   LIG    1        5.988  -3.400   0.000  0.00  0.00    +0.250 C 
ATOM     18  O   LIG    1        5.727  -1.995   0.007  0.00  0.00    -0.320 OA
ENDBRANCH  11  18
ENDBRANCH   7  16
ENDBRANCH   1   9
BRANCH   4  19
ATOM     19  N   LIG    1        8.677   6.029  -0.448  0.00  0.00    -0.620 N 
ATOM     20  H   LIG    1        9.084   6.125  -1.323  0.00  0.00    +0.410 HD
BRANCH  19  21
ATOM     21  C   LIG    1        9.020   6.866   0.551  0.00  0.00    +0.550 C 
ATOM     22  S   LIG    1        8.229   6.762   2.065  0.00  0.00    -0.570 S 
BRANCH  21  23
ATOM     23  N   LIG    1        9.987   7.786   0.357  0.00  0.00    -0.630 N 
ATOM     24  H   LIG    1       10.378   7.900  -0.523  0.00  0.00    +0.410 HD
BRANCH  23  25
ATOM     25  C   LIG    1       10.426   8.575   1.426  0.00  0.00    +0.140 A 
ATOM     26  C   LIG    1       10.676   7.995   2.662  0.00  0.00    +0.100 A 
ATOM     27  C   LIG    1       11.110   8.775   3.716  0.00  0.00    +0.060 A 
ATOM     28  C   LIG    1       11.294  10.135   3.541  0.00  0.00    -0.020 A 
ATOM     29  C   LIG    1       11.045  10.717   2.309  0.00  0.00    -0.030 A 
ATOM     30 CL   LIG    1       11.277  12.424   2.093  0.00  0.00    -0.040 Cl
ATOM     31 CL   LIG    1       11.839  11.114   4.868  0.00  0.00    -0.040 Cl
ATOM     32  C   LIG    1       10.617   9.939   1.250  0.00  0.00    +0.050 A 
ENDBRANCH  23  25
ENDBRANCH  21  23
ENDBRANCH  19  21
ENDBRANCH   4  19
TORSDOF 7
