REMARK  Name = ZINCrm00000IMNIN.0
REMARK                            x       y       z     vdW  Elec       q    Type
REMARK                         _______ _______ _______ _____ _____    ______ ____
ROOT
ATOM      1  C   LIG    1        3.456   8.822  -2.816  0.00  0.00    +0.200 C 
ATOM      2  C   LIG    1        4.985   8.921  -3.004  0.00  0.00    +0.230 C 
ATOM      3  N   LIG    1        5.522   9.072  -1.627  0.00  0.00    -0.430 NA
ATOM      4  C   LIG    1        4.689   8.155  -0.808  0.00  0.00    +0.250 C 
ATOM      5  C   LIG    1        3.261   8.318  -1.371  0.00  0.00    +0.190 C 
ENDROOT
BRANCH   3   6
ATOM      6  C   LIG    1        6.859   8.711  -1.573  0.00  0.00    +0.450 C 
ATOM      7  C   LIG    1        7.819   9.442  -2.275  0.00  0.00    -0.040 C 
ATOM      8  C   LIG    1        9.140   9.045  -2.192  0.00  0.00    +0.460 C 
ATOM      9  N   LIG    1        9.455   7.990  -1.455  0.00  0.00    -0.560 NA
ATOM     10  C   LIG    1        8.522   7.314  -0.800  0.00  0.00    +0.630 C 
ATOM     11  H   LIG    1       10.381   7.709  -1.395  0.00  0.00    +0.450 HD
ATOM     12  N   LIG    1        7.246   7.666  -0.849  0.00  0.00    -0.560 NA
BRANCH  10  13
ATOM     13  N   LIG    1        8.892   6.218  -0.041  0.00  0.00    -0.550 NA
ATOM     14  C   LIG    1        7.875   5.457   0.690  0.00  0.00    +0.350 C 
ATOM     15  C   LIG    1       10.299   5.817   0.030  0.00  0.00    +0.350 C 
ENDBRANCH  10  13
ENDBRANCH   3   6
BRANCH   5  16
ATOM     16  N   LIG    1        2.562   7.026  -1.371  0.00  0.00    -0.500 N 
ATOM     17  H   LIG    1        1.673   7.125  -1.838  0.00  0.00    +0.440 HD
ATOM     18  H   LIG    1        3.122   6.341  -1.856  0.00  0.00    +0.430 HD
BRANCH  16  19
ATOM     19  C   LIG    1        2.343   6.588   0.014  0.00  0.00    +0.400 C 
BRANCH  19  20
ATOM     20  C   LIG    1        1.625   5.263   0.014  0.00  0.00    -0.050 A 
ATOM     21  C   LIG    1        2.227   4.065   0.002  0.00  0.00    +0.060 A 
ATOM     22  C   LIG    1        1.152   3.065   0.007  0.00  0.00    +0.060 A 
ATOM     23  N   LIG    1        1.125   1.738   0.001  0.00  0.00    -0.440 NA
ATOM     24  C   LIG    1       -0.013   1.076   0.008  0.00  0.00    +0.300 A 
ATOM     25  C   LIG    1       -1.229   1.740   0.017  0.00  0.00    +0.040 A 
ATOM     26  C   LIG    1       -1.254   3.124   0.030  0.00  0.00    +0.100 A 
ATOM     27  C   LIG    1       -0.043   3.806   0.022  0.00  0.00    +0.020 A 
ATOM     28  O   LIG    1        0.290   5.111   0.025  0.00  0.00    -0.180 OA
ENDBRANCH  19  20
ENDBRANCH  16  19
ENDBRANCH   5  16
BRANCH   1  30
ATOM     29  C   LIG    1        2.417   8.488  -4.950  0.00  0.00    +0.260 C 
ATOM     30  O   LIG    1        2.901   7.890  -3.746  0.00  0.00    -0.400 OA
ENDBRANCH   1  30
TORSDOF 6
