REMARK  Name = ZINCqH0000038iBG.0
REMARK                            x       y       z     vdW  Elec       q    Type
REMARK                         _______ _______ _______ _____ _____    ______ ____
ROOT
ATOM      1  N   LIG    1        1.159  -6.052  -3.038  0.00  0.00    -0.510 NA
ENDROOT
BRANCH   1   2
ATOM      2  C   LIG    1        1.327  -4.634  -2.691  0.00  0.00    +0.090 C 
ATOM      3  C   LIG    1        2.779  -4.179  -2.961  0.00  0.00    +0.030 C 
ATOM      4  C   LIG    1        3.302  -3.747  -1.573  0.00  0.00    +0.190 C 
ATOM      5  O   LIG    1        2.483  -4.470  -0.629  0.00  0.00    -0.370 OA
ATOM      6  C   LIG    1        1.145  -4.423  -1.171  0.00  0.00    +0.220 C 
BRANCH   2   7
ATOM      7  C   LIG    1        0.340  -3.770  -3.477  0.00  0.00    +0.160 C 
BRANCH   7   8
ATOM      8  O   LIG    1        0.616  -2.389  -3.234  0.00  0.00    -0.560 OA
ATOM      9  H   LIG    1        0.026  -1.782  -3.702  0.00  0.00    +0.380 HD
ENDBRANCH   7   8
ENDBRANCH   2   7
ENDBRANCH   1   2
BRANCH   1  10
ATOM     10  C   LIG    1       -0.241  -6.469  -2.883  0.00  0.00    +0.300 C 
BRANCH  10  17
ATOM     11  C   LIG    1       -2.326  -6.195   4.237  0.00  0.00    +0.100 C 
ATOM     12  C   LIG    1       -1.752  -6.834   2.999  0.00  0.00    -0.070 A 
ATOM     13  C   LIG    1       -1.299  -8.144   3.051  0.00  0.00    +0.040 A 
ATOM     14  C   LIG    1       -0.773  -8.738   1.925  0.00  0.00    +0.060 A 
ATOM     15  C   LIG    1       -0.696  -8.021   0.733  0.00  0.00    -0.190 A 
ATOM     16  S   LIG    1       -0.094  -8.461  -0.862  0.00  0.00    +0.130 S 
ATOM     17  C   LIG    1       -0.479  -6.911  -1.463  0.00  0.00    +0.100 A 
ATOM     18  N   LIG    1       -0.996  -6.172  -0.556  0.00  0.00    -0.460 NA
ATOM     19  C   LIG    1       -1.151  -6.699   0.673  0.00  0.00    +0.090 A 
ATOM     20  C   LIG    1       -1.689  -6.120   1.840  0.00  0.00    +0.060 A 
ENDBRANCH  10  17
ENDBRANCH   1  10
BRANCH   1  21
ATOM     21  C   LIG    1        1.642  -6.322  -4.398  0.00  0.00    +0.240 C 
BRANCH  21  22
ATOM     22  C   LIG    1        3.109  -6.664  -4.352  0.00  0.00    -0.080 A 
ATOM     23  C   LIG    1        4.015  -5.927  -5.092  0.00  0.00    +0.000 A 
ATOM     24  C   LIG    1        5.361  -6.238  -5.047  0.00  0.00    +0.000 A 
ATOM     25  C   LIG    1        5.800  -7.292  -4.268  0.00  0.00    +0.000 A 
ATOM     26  C   LIG    1        4.894  -8.032  -3.531  0.00  0.00    +0.000 A 
ATOM     27  C   LIG    1        3.549  -7.718  -3.574  0.00  0.00    +0.030 A 
ENDBRANCH  21  22
ENDBRANCH   1  21
TORSDOF 7
