REMARK  Name = ZINCah0000006cHS.0
REMARK                            x       y       z     vdW  Elec       q    Type
REMARK                         _______ _______ _______ _____ _____    ______ ____
ROOT
ATOM      1  C   LIG    1       -0.019   1.526   0.010  0.00  0.00    -0.080 C 
ATOM      2  C   LIG    1        1.417   2.055  -0.000  0.00  0.00    +0.050 C 
ATOM      3  C   LIG    1        0.002  -0.004   0.002  0.00  0.00    +0.050 C 
ENDROOT
BRANCH   1   7
ATOM      4  C   LIG    1       -1.003   2.198  -3.627  0.00  0.00    +0.280 C 
ATOM      5  N   LIG    1       -0.294   1.712  -2.441  0.00  0.00    -0.730 N 
ATOM      6  H   LIG    1        0.501   1.166  -2.540  0.00  0.00    +0.400 HD
ATOM      7  C   LIG    1       -0.748   2.025  -1.210  0.00  0.00    +0.520 C 
ATOM      8  O   LIG    1       -1.742   2.708  -1.086  0.00  0.00    -0.530 OA
ENDBRANCH   1   7
BRANCH   1   9
ATOM      9  C   LIG    1       -0.735   2.019   1.269  0.00  0.00    +0.030 C 
BRANCH   9  10
ATOM     10  C   LIG    1        0.005   1.512   2.509  0.00  0.00    +0.220 C 
ATOM     11  F   LIG    1       -0.650   1.964   3.660  0.00  0.00    -0.220 F 
ENDBRANCH   9  10
ENDBRANCH   1   9
TORSDOF 3
