REMARK  Name = ZINCrD000000BPbO.0
REMARK                            x       y       z     vdW  Elec       q    Type
REMARK                         _______ _______ _______ _____ _____    ______ ____
ROOT
ATOM      1  C   LIG    1       -2.422  -0.128   3.523  0.00  0.00    +0.260 C 
ATOM      2  C   LIG    1       -2.792   1.147   4.287  0.00  0.00    +0.010 C 
ATOM      3  C   LIG    1       -3.834   1.930   3.484  0.00  0.00    +0.050 C 
ATOM      4  C   LIG    1       -3.271   2.246   2.096  0.00  0.00    +0.170 C 
ATOM      5  N   LIG    1       -2.934   0.995   1.406  0.00  0.00    -0.520 NA
ATOM      6  C   LIG    1       -1.900   0.248   2.135  0.00  0.00    +0.170 C 
ENDROOT
BRANCH   1   9
ATOM      7  O   LIG    1       -2.895  -1.863   5.532  0.00  0.00    -0.480 OA
ATOM      8  C   LIG    1       -1.725  -1.701   5.247  0.00  0.00    +0.600 C 
ATOM      9  N   LIG    1       -1.383  -0.854   4.257  0.00  0.00    -0.710 N 
ATOM     10  H   LIG    1       -0.449  -0.725   4.030  0.00  0.00    +0.400 HD
BRANCH   8  11
ATOM     11  C   LIG    1       -0.676  -2.434   5.988  0.00  0.00    +0.060 A 
ATOM     12  N   LIG    1       -0.896  -3.261   6.952  0.00  0.00    -0.390 NA
ATOM     13  C   LIG    1        0.151  -3.853   7.525  0.00  0.00    +0.030 A 
ATOM     14  C   LIG    1        0.178  -4.790   8.585  0.00  0.00    +0.150 A 
ATOM     15  C   LIG    1        1.384  -5.263   9.017  0.00  0.00    +0.000 A 
ATOM     16  C   LIG    1        2.555  -4.822   8.417  0.00  0.00    +0.340 A 
ATOM     17  N   LIG    1        2.524  -3.951   7.433  0.00  0.00    -0.450 NA
ATOM     18  C   LIG    1        1.379  -3.457   6.971  0.00  0.00    +0.040 A 
ATOM     19  S   LIG    1        1.050  -2.297   5.684  0.00  0.00    +0.140 S 
ENDBRANCH   8  11
ENDBRANCH   1   9
BRANCH   5  20
ATOM     20  C   LIG    1       -2.519   1.252   0.021  0.00  0.00    +0.300 C 
BRANCH  20  21
ATOM     21  C   LIG    1       -1.224   2.023   0.019  0.00  0.00    -0.200 A 
ATOM     22  C   LIG    1       -0.016   1.347   0.009  0.00  0.00    +0.140 A 
ATOM     23  C   LIG    1        1.173   2.056   0.002  0.00  0.00    -0.020 A 
ATOM     24  C   LIG    1        1.155   3.438   0.009  0.00  0.00    +0.090 A 
ATOM     25  C   LIG    1       -0.051   4.114   0.024  0.00  0.00    -0.020 A 
ATOM     26  F   LIG    1        0.002  -0.004   0.002  0.00  0.00    -0.130 F 
ATOM     27  C   LIG    1       -1.241   3.407   0.032  0.00  0.00    +0.140 A 
ATOM     28  F   LIG    1       -2.419   4.068   0.047  0.00  0.00    -0.130 F 
ENDBRANCH  20  21
ENDBRANCH   5  20
TORSDOF 4
