REMARK  Name = ZINCrH000004qxBI.0
REMARK                            x       y       z     vdW  Elec       q    Type
REMARK                         _______ _______ _______ _____ _____    ______ ____
ROOT
ATOM      1  N   LIG    1       -0.041   1.076   0.357  0.00  0.00    -1.120 NA
ATOM      2  H   LIG    1       -0.043   0.115   0.226  0.00  0.00    +0.420 HD
ENDROOT
BRANCH   1   3
ATOM      3  S   LIG    1       -1.470   1.885   0.573  0.00  0.00    +2.700 S 
ATOM      4  O   LIG    1       -1.291   2.722   1.708  0.00  0.00    -0.950 OA
ATOM      5  O   LIG    1       -2.501   0.911   0.481  0.00  0.00    -0.960 OA
BRANCH   3   6
ATOM      6  C   LIG    1       -1.675   2.959  -0.809  0.00  0.00    -0.670 A 
ATOM      7  C   LIG    1       -2.327   2.510  -1.916  0.00  0.00    +0.170 A 
ATOM      8  C   LIG    1       -2.492   3.363  -3.020  0.00  0.00    -0.080 A 
ATOM      9  C   LIG    1       -3.159   2.935  -4.180  0.00  0.00    +0.040 A 
ATOM     10  C   LIG    1       -3.301   3.790  -5.230  0.00  0.00    +0.010 A 
ATOM     11  C   LIG    1       -2.793   5.087  -5.173  0.00  0.00    +0.040 A 
ATOM     12  C   LIG    1       -2.141   5.536  -4.066  0.00  0.00    +0.010 A 
ATOM     13  C   LIG    1       -1.976   4.682  -2.962  0.00  0.00    -0.010 A 
ATOM     14  C   LIG    1       -1.309   5.111  -1.801  0.00  0.00    +0.020 A 
ATOM     15  C   LIG    1       -1.173   4.258  -0.750  0.00  0.00    +0.090 A 
ENDBRANCH   3   6
ENDBRANCH   1   3
BRANCH   1  16
ATOM     16  C   LIG    1        1.225   1.813   0.359  0.00  0.00    +0.300 C 
BRANCH  16  17
ATOM     17  C   LIG    1        2.387   0.830   0.511  0.00  0.00    +0.070 C 
BRANCH  17  20
ATOM     18  N   LIG    1        4.856   0.923   0.636  0.00  0.00    -0.670 N 
ATOM     19  H   LIG    1        4.854  -0.033   0.801  0.00  0.00    +0.410 HD
ATOM     20  C   LIG    1        3.689   1.588   0.512  0.00  0.00    +0.520 C 
ATOM     21  O   LIG    1        3.688   2.796   0.402  0.00  0.00    -0.510 OA
BRANCH  18  27
ATOM     22  C   LIG    1        9.556   1.456   1.976  0.00  0.00    +0.090 C 
ATOM     23  C   LIG    1        8.363   1.892   1.164  0.00  0.00    -0.060 A 
ATOM     24  C   LIG    1        8.467   2.975   0.311  0.00  0.00    -0.020 A 
ATOM     25  C   LIG    1        7.374   3.379  -0.435  0.00  0.00    -0.060 A 
ATOM     26  C   LIG    1        6.176   2.700  -0.329  0.00  0.00    +0.000 A 
ATOM     27  C   LIG    1        6.069   1.612   0.527  0.00  0.00    +0.150 A 
ATOM     28  C   LIG    1        7.492   4.559  -1.364  0.00  0.00    +0.090 C 
ATOM     29  C   LIG    1        7.166   1.213   1.278  0.00  0.00    -0.030 A 
ENDBRANCH  18  27
ENDBRANCH  17  20
ENDBRANCH  16  17
ENDBRANCH   1  16
TORSDOF 6
