REMARK  Name = ZINCtV00000qdE3g.0
REMARK                            x       y       z     vdW  Elec       q    Type
REMARK                         _______ _______ _______ _____ _____    ______ ____
ROOT
ATOM      1  C   LIG    1       -4.583   2.591  -4.743  0.00  0.00    -0.020 A 
ATOM      2  C   LIG    1       -5.506   2.777  -5.685  0.00  0.00    -0.020 A 
ATOM      3  S   LIG    1       -6.618   1.424  -5.762  0.00  0.00    +0.180 S 
ATOM      4  C   LIG    1       -5.792   0.577  -4.463  0.00  0.00    +0.120 A 
ATOM      5  N   LIG    1       -6.039  -0.608  -3.888  0.00  0.00    -0.510 NA
ATOM      6  C   LIG    1       -5.282  -1.060  -2.915  0.00  0.00    +0.390 A 
ATOM      7  N   LIG    1       -4.247  -0.379  -2.456  0.00  0.00    -0.580 NA
ATOM      8  C   LIG    1       -3.925   0.802  -2.962  0.00  0.00    +0.490 A 
ATOM      9  C   LIG    1       -4.714   1.338  -4.010  0.00  0.00    -0.230 A 
ENDROOT
BRANCH   1  13
ATOM     10  C   LIG    1       -1.519   5.424  -3.932  0.00  0.00    +0.020 A 
ATOM     11  C   LIG    1       -1.184   4.130  -4.290  0.00  0.00    +0.020 A 
ATOM     12  C   LIG    1       -2.174   3.206  -4.554  0.00  0.00    +0.010 A 
ATOM     13  C   LIG    1       -3.514   3.579  -4.460  0.00  0.00    -0.040 A 
ATOM     14  C   LIG    1       -3.846   4.886  -4.105  0.00  0.00    +0.030 A 
ATOM     15  C   LIG    1       -2.847   5.799  -3.837  0.00  0.00    +0.020 A 
ENDBRANCH   1  13
BRANCH   8  16
ATOM     16  N   LIG    1       -2.838   1.504  -2.471  0.00  0.00    -0.700 N 
ATOM     17  H   LIG    1       -2.660   2.404  -2.786  0.00  0.00    +0.410 HD
BRANCH  16  18
ATOM     18  C   LIG    1       -1.957   0.887  -1.477  0.00  0.00    +0.240 C 
ATOM     19  C   LIG    1       -0.571   1.531  -1.555  0.00  0.00    +0.010 C 
ATOM     20  C   LIG    1        0.349   0.887  -0.516  0.00  0.00    +0.030 C 
ATOM     21  C   LIG    1       -0.233   1.099   0.883  0.00  0.00    +0.000 C 
ATOM     22  C   LIG    1       -1.619   0.455   0.961  0.00  0.00    +0.000 C 
ATOM     23  C   LIG    1       -2.540   1.099  -0.078  0.00  0.00    +0.000 C 
ENDBRANCH  16  18
ENDBRANCH   8  16
BRANCH   6  24
ATOM     24  C   LIG    1       -5.604  -2.398  -2.302  0.00  0.00    +0.290 C 
BRANCH  24  25
ATOM     25  N   LIG    1       -6.529  -2.212  -1.176  0.00  0.00    -0.530 NA
ATOM     26  C   LIG    1       -5.887  -1.468  -0.085  0.00  0.00    +0.180 C 
ATOM     27  C   LIG    1       -6.918  -1.166   1.004  0.00  0.00    +0.010 C 
ATOM     28  C   LIG    1       -7.497  -2.482   1.531  0.00  0.00    +0.000 C 
ATOM     29  C   LIG    1       -8.117  -3.260   0.367  0.00  0.00    +0.020 C 
ATOM     30  C   LIG    1       -7.051  -3.501  -0.705  0.00  0.00    +0.180 C 
ENDBRANCH  24  25
ENDBRANCH   6  24
TORSDOF 5
