REMARK  Name = ZINCrD000000AqMU.0
REMARK                            x       y       z     vdW  Elec       q    Type
REMARK                         _______ _______ _______ _____ _____    ______ ____
ROOT
ATOM      1  O   LIG    1        3.037   5.466  -2.731  0.00  0.00    -0.470 OA
ATOM      2  C   LIG    1        2.186   4.636  -2.974  0.00  0.00    +0.510 C 
ATOM      3  N   LIG    1        1.634   3.925  -1.971  0.00  0.00    -0.660 N 
ATOM      4  H   LIG    1        1.013   3.207  -2.171  0.00  0.00    +0.410 HD
ENDROOT
BRANCH   3   5
ATOM      5  C   LIG    1        1.956   4.223  -0.641  0.00  0.00    +0.160 A 
ATOM      6  C   LIG    1        2.392   5.494  -0.299  0.00  0.00    +0.030 A 
ATOM      7  C   LIG    1        2.715   5.784   1.014  0.00  0.00    +0.040 A 
ATOM      8  C   LIG    1        2.598   4.812   1.990  0.00  0.00    +0.000 A 
ATOM      9  C   LIG    1        2.158   3.544   1.659  0.00  0.00    +0.040 A 
ATOM     10  C   LIG    1        1.832   3.244   0.344  0.00  0.00    +0.110 A 
BRANCH  10  11
ATOM     11  N   LIG    1        1.387   1.959   0.007  0.00  0.00    -0.580 N 
ATOM     12  C   LIG    1       -0.021   1.543   0.012  0.00  0.00    +0.260 C 
ATOM     13  C   LIG    1        0.006  -0.001   0.011  0.00  0.00    +0.060 C 
ATOM     14  C   LIG    1        1.376  -0.292  -0.644  0.00  0.00    +0.070 C 
ATOM     15  C   LIG    1        2.193   0.950  -0.364  0.00  0.00    +0.520 C 
ATOM     16  O   LIG    1        3.400   1.023  -0.458  0.00  0.00    -0.510 OA
ENDBRANCH  10  11
ENDBRANCH   3   5
BRANCH   2  17
ATOM     17  C   LIG    1        1.747   4.401  -4.396  0.00  0.00    +0.250 C 
BRANCH  17  18
ATOM     18  O   LIG    1        2.473   5.269  -5.269  0.00  0.00    -0.250 OA
BRANCH  18  19
ATOM     19  C   LIG    1        2.195   5.183  -6.596  0.00  0.00    +0.200 A 
ATOM     20  C   LIG    1        1.247   4.277  -7.050  0.00  0.00    -0.040 A 
ATOM     21  C   LIG    1        0.961   4.195  -8.399  0.00  0.00    +0.140 A 
ATOM     22  C   LIG    1        1.628   5.008  -9.299  0.00  0.00    -0.080 A 
ATOM     23  C   LIG    1        2.578   5.908  -8.849  0.00  0.00    +0.160 A 
ATOM     24 CL   LIG    1        1.272   4.898 -10.995  0.00  0.00    -0.030 Cl
ATOM     25  C   LIG    1        2.862   5.997  -7.500  0.00  0.00    -0.070 A 
BRANCH  25  26
ATOM     26  N   LIG    1        3.878   6.960  -7.019  0.00  0.00    +0.030 N 
ATOM     27  O   LIG    1        4.128   7.038  -5.830  0.00  0.00    -0.110 OA
ATOM     28  O   LIG    1        4.464   7.674  -7.813  0.00  0.00    -0.170 OA
ENDBRANCH  25  26
ENDBRANCH  18  19
ENDBRANCH  17  18
ENDBRANCH   2  17
TORSDOF 6
