REMARK  Name = ZINCpk000004ATLo.0
REMARK                            x       y       z     vdW  Elec       q    Type
REMARK                         _______ _______ _______ _____ _____    ______ ____
ROOT
ATOM      1  C   LIG    1        0.467   4.086  -2.544  0.00  0.00    +0.570 C 
ATOM      2  N   LIG    1        0.902   4.103  -1.268  0.00  0.00    -0.590 N 
ATOM      3  O   LIG    1        0.265   3.026  -3.103  0.00  0.00    -0.520 OA
ENDROOT
BRANCH   2   4
ATOM      4  C   LIG    1        1.044   2.848  -0.526  0.00  0.00    +0.270 C 
ATOM      5  C   LIG    1        2.048   1.912  -1.229  0.00  0.00    +0.100 C 
ATOM      6  C   LIG    1        1.216   0.698  -1.579  0.00  0.00    +0.540 C 
ATOM      7  N   LIG    1       -0.042   0.891  -1.163  0.00  0.00    -0.560 N 
ATOM      8  C   LIG    1       -1.102  -0.101  -1.356  0.00  0.00    +0.320 C 
ATOM      9  O   LIG    1        1.622  -0.291  -2.150  0.00  0.00    -0.480 OA
ATOM     10  C   LIG    1       -0.250   2.064  -0.552  0.00  0.00    +0.520 C 
ATOM     11  O   LIG    1       -1.309   2.441  -0.097  0.00  0.00    -0.470 OA
ENDBRANCH   2   4
BRANCH   1  16
ATOM     12  C   LIG    1       -1.167   6.754  -4.630  0.00  0.00    +0.150 A 
ATOM     13  C   LIG    1       -0.193   7.745  -4.608  0.00  0.00    +0.010 A 
ATOM     14  C   LIG    1        0.988   7.543  -3.918  0.00  0.00    +0.040 A 
ATOM     15  C   LIG    1        1.205   6.360  -3.242  0.00  0.00    +0.030 A 
ATOM     16  C   LIG    1        0.235   5.357  -3.263  0.00  0.00    -0.110 A 
ATOM     17  C   LIG    1       -0.957   5.559  -3.959  0.00  0.00    +0.070 A 
BRANCH  12  19
ATOM     18  C   LIG    1       -3.508   6.416  -4.882  0.00  0.00    +0.540 C 
ATOM     19  N   LIG    1       -2.360   6.962  -5.330  0.00  0.00    -0.670 N 
ATOM     20  H   LIG    1       -2.362   7.500  -6.137  0.00  0.00    +0.420 HD
ATOM     21  O   LIG    1       -3.526   5.823  -3.820  0.00  0.00    -0.520 OA
BRANCH  18  23
ATOM     22  C   LIG    1       -5.872   5.998  -5.235  0.00  0.00    +0.160 C 
ATOM     23  C   LIG    1       -4.739   6.537  -5.677  0.00  0.00    -0.090 C 
ENDBRANCH  18  23
ENDBRANCH  12  19
ENDBRANCH   1  16
BRANCH   2  24
ATOM     24  C   LIG    1        1.232   5.376  -0.624  0.00  0.00    +0.290 C 
BRANCH  24  25
ATOM     25  C   LIG    1        2.749   5.574  -0.633  0.00  0.00    -0.010 C 
ATOM     26  C   LIG    1        3.085   6.970  -0.103  0.00  0.00    +0.030 C 
ENDBRANCH  24  25
ENDBRANCH   2  24
TORSDOF 6
