REMARK  Name = ZINCpe000000TDPg.0
REMARK                            x       y       z     vdW  Elec       q    Type
REMARK                         _______ _______ _______ _____ _____    ______ ____
ROOT
ATOM      1  C   LIG    1        4.118   1.958  -2.075  0.00  0.00    -0.230 C 
ATOM      2  C   LIG    1        3.916   0.772  -1.461  0.00  0.00    +0.210 C 
ATOM      3  N   LIG    1        4.173  -0.406  -2.101  0.00  0.00    -0.640 N 
ATOM      4  H   LIG    1        4.016  -1.233  -1.619  0.00  0.00    +0.430 HD
ATOM      5  C   LIG    1        4.624  -0.484  -3.360  0.00  0.00    +0.710 C 
ATOM      6  N   LIG    1        4.873   0.613  -4.101  0.00  0.00    -0.710 N 
ATOM      7  H   LIG    1        5.203   0.534  -5.010  0.00  0.00    +0.430 HD
ATOM      8  O   LIG    1        4.819  -1.581  -3.848  0.00  0.00    -0.550 OA
ATOM      9  C   LIG    1        4.634   1.935  -3.499  0.00  0.00    +0.270 C 
ATOM     10  C   LIG    1        3.624   2.677  -4.378  0.00  0.00    +0.050 C 
ENDROOT
BRANCH   1  11
ATOM     11  C   LIG    1        3.858   3.179  -1.410  0.00  0.00    +0.530 C 
ATOM     12  O   LIG    1        3.551   3.178  -0.233  0.00  0.00    -0.480 OA
BRANCH  11  13
ATOM     13  O   LIG    1        3.949   4.346  -2.082  0.00  0.00    -0.340 OA
BRANCH  13  15
ATOM     14  C   LIG    1        3.826   6.752  -2.271  0.00  0.00    +0.070 C 
ATOM     15  C   LIG    1        3.673   5.540  -1.349  0.00  0.00    +0.200 C 
ENDBRANCH  13  15
ENDBRANCH  11  13
ENDBRANCH   1  11
BRANCH   2  16
ATOM     16  C   LIG    1        3.404   0.749  -0.043  0.00  0.00    +0.460 C 
BRANCH  16  17
ATOM     17  N   LIG    1        4.534   0.844   0.885  0.00  0.00    -0.140 N 
ATOM     18  N   LIG    1        5.187  -0.155   1.368  0.00  0.00    -0.060 NA
ATOM     19  N   LIG    1        6.114   0.289   2.148  0.00  0.00    -0.270 NA
ATOM     20  C   LIG    1        6.029   1.627   2.146  0.00  0.00    +0.200 A 
ATOM     21  N   LIG    1        5.029   1.941   1.346  0.00  0.00    -0.250 NA
BRANCH  20  22
ATOM     22  C   LIG    1        6.892   2.571   2.900  0.00  0.00    -0.020 A 
ATOM     23  C   LIG    1        6.685   3.944   2.793  0.00  0.00    +0.050 A 
ATOM     24  C   LIG    1        7.487   4.817   3.499  0.00  0.00    +0.010 A 
ATOM     25  C   LIG    1        8.502   4.331   4.304  0.00  0.00    +0.030 A 
ATOM     26  C   LIG    1        8.715   2.969   4.410  0.00  0.00    +0.010 A 
ATOM     27  C   LIG    1        7.915   2.086   3.712  0.00  0.00    +0.050 A 
ENDBRANCH  20  22
ENDBRANCH  16  17
ENDBRANCH   2  16
TORSDOF 6
