REMARK  Name = ZINCrg000000p9jb.1
REMARK                            x       y       z     vdW  Elec       q    Type
REMARK                         _______ _______ _______ _____ _____    ______ ____
ROOT
ATOM      1  C   LIG    1        3.834   7.489   2.614  0.00  0.00    +0.580 C 
ATOM      2  N   LIG    1        3.603   6.858   1.446  0.00  0.00    -0.710 N 
ATOM      3  H   LIG    1        3.754   7.321   0.607  0.00  0.00    +0.410 HD
ATOM      4  O   LIG    1        3.645   6.910   3.665  0.00  0.00    -0.520 OA
ENDROOT
BRANCH   1   9
ATOM      5  C   LIG    1        4.955  10.764   1.423  0.00  0.00    +0.310 A 
ATOM      6  C   LIG    1        5.212  11.468   2.599  0.00  0.00    -0.020 A 
ATOM      7  C   LIG    1        5.010  10.845   3.818  0.00  0.00    +0.090 A 
ATOM      8  C   LIG    1        4.551   9.536   3.827  0.00  0.00    +0.020 A 
ATOM      9  C   LIG    1        4.319   8.889   2.617  0.00  0.00    +0.100 A 
ATOM     10  N   LIG    1        4.524   9.516   1.464  0.00  0.00    -0.500 NA
BRANCH   5  15
ATOM     11  C   LIG    1        4.573  13.059  -3.639  0.00  0.00    +0.190 C 
ATOM     12  N   LIG    1        4.361  12.405  -2.340  0.00  0.00    -0.550 NA
ATOM     13  C   LIG    1        5.138  11.162  -2.244  0.00  0.00    +0.180 C 
ATOM     14  C   LIG    1        4.829  10.473  -0.912  0.00  0.00    +0.220 C 
ATOM     15  N   LIG    1        5.156  11.382   0.195  0.00  0.00    -0.480 N 
ATOM     16  C   LIG    1        4.379  12.626   0.098  0.00  0.00    +0.210 C 
ATOM     17  C   LIG    1        4.688  13.315  -1.233  0.00  0.00    +0.190 C 
ENDBRANCH   5  15
ENDBRANCH   1   9
BRANCH   2  18
ATOM     18  C   LIG    1        3.123   5.474   1.443  0.00  0.00    +0.260 C 
BRANCH  18  19
ATOM     19  C   LIG    1        2.942   5.000   0.000  0.00  0.00    +0.340 C 
BRANCH  19  20
ATOM     20  N   LIG    1        2.463   3.615  -0.002  0.00  0.00    -0.400 N 
ATOM     21  N   LIG    1        3.250   2.454  -0.016  0.00  0.00    -0.000 NA
ATOM     22  N   LIG    1        2.486   1.419  -0.014  0.00  0.00    -0.210 NA
ATOM     23  C   LIG    1        1.190   1.793   0.000  0.00  0.00    -0.020 A 
ATOM     24  C   LIG    1       -0.013   1.076   0.008  0.00  0.00    +0.110 A 
ATOM     25  C   LIG    1       -1.203   1.742   0.017  0.00  0.00    +0.010 A 
ATOM     26  C   LIG    1       -1.239   3.131   0.030  0.00  0.00    +0.080 A 
ATOM     27  C   LIG    1       -0.071   3.859   0.023  0.00  0.00    +0.000 A 
ATOM     28  C   LIG    1        1.153   3.199   0.008  0.00  0.00    +0.090 A 
ENDBRANCH  19  20
ENDBRANCH  18  19
ENDBRANCH   2  18
TORSDOF 5
