REMARK  Name = ZINCvU0000000Itx.0
REMARK                            x       y       z     vdW  Elec       q    Type
REMARK                         _______ _______ _______ _____ _____    ______ ____
ROOT
ATOM      1  N   LIG    1        5.465   0.997  -1.698  0.00  0.00    -0.600 N 
ATOM      2  C   LIG    1        4.146   0.895  -1.436  0.00  0.00    +0.520 C 
ATOM      3  O   LIG    1        3.357   0.745  -2.345  0.00  0.00    -0.520 OA
ENDROOT
BRANCH   1   5
ATOM      4  C   LIG    1        6.883  -0.190  -0.098  0.00  0.00    +0.020 C 
ATOM      5  C   LIG    1        6.418   1.178  -0.601  0.00  0.00    +0.280 C 
ENDBRANCH   1   5
BRANCH   2   6
ATOM      6  C   LIG    1        3.653   0.969  -0.014  0.00  0.00    +0.160 C 
BRANCH   6   7
ATOM      7  C   LIG    1        2.152   0.830   0.004  0.00  0.00    -0.170 A 
ATOM      8  C   LIG    1        1.253   1.823   0.018  0.00  0.00    +0.240 A 
ATOM      9  O   LIG    1        0.006   1.319   0.033  0.00  0.00    -0.190 OA
ATOM     10  C   LIG    1        0.033  -0.029   0.029  0.00  0.00    +0.050 A 
ATOM     11  C   LIG    1       -0.957  -1.004   0.039  0.00  0.00    +0.020 A 
ATOM     12  C   LIG    1       -0.609  -2.338   0.032  0.00  0.00    -0.060 A 
ATOM     13  C   LIG    1        0.724  -2.722   0.014  0.00  0.00    -0.100 A 
ATOM     14  C   LIG    1        1.721  -1.772   0.003  0.00  0.00    +0.050 A 
ATOM     15  C   LIG    1        1.082  -4.186   0.006  0.00  0.00    +0.100 C 
ATOM     16  C   LIG    1       -1.689  -3.389   0.043  0.00  0.00    +0.090 C 
ATOM     17  C   LIG    1        1.383  -0.419   0.011  0.00  0.00    -0.110 A 
ENDBRANCH   6   7
ENDBRANCH   2   6
BRANCH   1  18
ATOM     18  C   LIG    1        5.944   0.925  -3.081  0.00  0.00    +0.340 C 
BRANCH  18  19
ATOM     19  C   LIG    1        5.977   2.310  -3.673  0.00  0.00    +0.500 C 
ATOM     20  N   LIG    1        6.388   2.490  -4.944  0.00  0.00    -0.680 N 
ATOM     21  H   LIG    1        6.725   1.738  -5.456  0.00  0.00    +0.410 HD
ATOM     22  O   LIG    1        5.634   3.264  -3.007  0.00  0.00    -0.500 OA
BRANCH  20  23
ATOM     23  C   LIG    1        6.330   3.761  -5.525  0.00  0.00    +0.200 A 
ATOM     24  C   LIG    1        6.562   4.891  -4.752  0.00  0.00    +0.030 A 
ATOM     25  C   LIG    1        6.510   6.145  -5.330  0.00  0.00    +0.070 A 
ATOM     26  C   LIG    1        6.214   6.276  -6.675  0.00  0.00    +0.000 A 
ATOM     27  C   LIG    1        5.976   5.153  -7.446  0.00  0.00    +0.090 A 
ATOM     28  C   LIG    1        6.033   3.897  -6.875  0.00  0.00    -0.210 A 
BRANCH  28  29
ATOM     29  C   LIG    1        5.773   2.674  -7.717  0.00  0.00    +0.510 C 
ATOM     30  F   LIG    1        4.677   1.975  -7.199  0.00  0.00    -0.170 F 
ATOM     31  F   LIG    1        6.902   1.848  -7.700  0.00  0.00    -0.180 F 
ATOM     32  F   LIG    1        5.499   3.062  -9.032  0.00  0.00    -0.170 F 
ENDBRANCH  28  29
ENDBRANCH  20  23
ENDBRANCH  18  19
ENDBRANCH   1  18
TORSDOF 7
