REMARK  Name = ZINCpk00001iS6wp.0
REMARK                            x       y       z     vdW  Elec       q    Type
REMARK                         _______ _______ _______ _____ _____    ______ ____
ROOT
ATOM      1  C   LIG    1       -2.997   6.437   1.161  0.00  0.00    +0.520 C 
ATOM      2  N   LIG    1       -2.233   5.735   0.300  0.00  0.00    -0.620 N 
ATOM      3  C   LIG    1       -1.104   6.361  -0.408  0.00  0.00    +0.300 C 
ATOM      4  C   LIG    1        0.183   5.681   0.057  0.00  0.00    +0.130 C 
ATOM      5  C   LIG    1        0.035   4.183   0.030  0.00  0.00    +0.090 A 
ATOM      6  N   LIG    1        1.139   3.446   0.014  0.00  0.00    -0.230 NA
ATOM      7  N   LIG    1        1.118   2.166   0.003  0.00  0.00    -0.220 NA
ATOM      8  C   LIG    1       -0.018   1.480   0.010  0.00  0.00    +0.100 A 
ATOM      9  C   LIG    1       -1.232   2.168   0.020  0.00  0.00    +0.060 A 
ATOM     10  C   LIG    1       -1.195   3.557   0.031  0.00  0.00    -0.090 A 
ATOM     11  C   LIG    1       -2.494   4.316   0.030  0.00  0.00    +0.360 C 
ATOM     12  O   LIG    1       -2.759   7.609   1.365  0.00  0.00    -0.500 OA
ENDROOT
BRANCH   8  13
ATOM     13  C   LIG    1        0.002  -0.004   0.002  0.00  0.00    -0.000 A 
ATOM     14  C   LIG    1       -1.187  -0.738   0.015  0.00  0.00    -0.010 A 
ATOM     15  C   LIG    1       -1.123  -2.117   0.001  0.00  0.00    +0.260 A 
ATOM     16  N   LIG    1        0.039  -2.740  -0.014  0.00  0.00    -0.480 NA
ATOM     17  C   LIG    1        1.184  -2.085  -0.021  0.00  0.00    +0.260 A 
ATOM     18  C   LIG    1        1.211  -0.706  -0.013  0.00  0.00    +0.020 A 
ENDBRANCH   8  13
BRANCH   1  19
ATOM     19  C   LIG    1       -4.145   5.766   1.868  0.00  0.00    +0.200 C 
BRANCH  19  20
ATOM     20  O   LIG    1       -4.797   6.710   2.720  0.00  0.00    -0.350 OA
BRANCH  20  21
ATOM     21  C   LIG    1       -5.907   6.173   3.442  0.00  0.00    +0.190 C 
BRANCH  21  22
ATOM     22  C   LIG    1       -6.524   7.266   4.317  0.00  0.00    +0.190 C 
BRANCH  22  23
ATOM     23  O   LIG    1       -7.074   8.289   3.484  0.00  0.00    -0.380 OA
BRANCH  23  25
ATOM     24  C   LIG    1       -8.230  10.394   3.219  0.00  0.00    +0.040 C 
ATOM     25  C   LIG    1       -7.678   9.364   4.206  0.00  0.00    +0.160 C 
ENDBRANCH  23  25
ENDBRANCH  22  23
ENDBRANCH  21  22
ENDBRANCH  20  21
ENDBRANCH  19  20
ENDBRANCH   1  19
TORSDOF 7
