REMARK  Name = ZINCrD00000759QB.0
REMARK                            x       y       z     vdW  Elec       q    Type
REMARK                         _______ _______ _______ _____ _____    ______ ____
ROOT
ATOM      1  O   LIG    1       -1.195   2.120   0.019  0.00  0.00    -0.320 OA
ENDROOT
BRANCH   1   2
ATOM      2  C   LIG    1       -0.018   1.461   0.010  0.00  0.00    +0.540 C 
ATOM      3  O   LIG    1        1.027   2.084   0.003  0.00  0.00    -0.480 OA
BRANCH   2   7
ATOM      4  C   LIG    1        0.064  -3.185   2.014  0.00  0.00    +0.150 C 
ATOM      5  C   LIG    1        0.039  -2.113   0.955  0.00  0.00    -0.200 A 
ATOM      6  C   LIG    1        0.024  -0.811   1.202  0.00  0.00    -0.050 A 
ATOM      7  C   LIG    1        0.002  -0.004   0.002  0.00  0.00    -0.170 A 
ATOM      8  C   LIG    1       -0.004  -0.756  -1.144  0.00  0.00    +0.050 A 
ATOM      9  C   LIG    1        0.029  -0.230   2.593  0.00  0.00    +0.130 C 
ATOM     10  S   LIG    1        0.027  -2.420  -0.772  0.00  0.00    +0.240 S 
BRANCH   8  11
ATOM     11  N   LIG    1       -0.030  -0.234  -2.432  0.00  0.00    -0.380 N 
ATOM     12  C   LIG    1       -0.059   1.094  -2.754  0.00  0.00    +0.140 A 
ATOM     13  C   LIG    1       -0.075   1.202  -4.098  0.00  0.00    -0.030 A 
ATOM     14  C   LIG    1       -0.065  -0.105  -4.627  0.00  0.00    -0.020 A 
ATOM     15  C   LIG    1       -0.037  -0.964  -3.588  0.00  0.00    +0.150 A 
ENDBRANCH   8  11
ENDBRANCH   2   7
ENDBRANCH   1   2
BRANCH   1  16
ATOM     16  C   LIG    1       -1.139   3.571   0.027  0.00  0.00    +0.190 C 
ATOM     17  C   LIG    1       -1.126   4.088  -1.413  0.00  0.00    +0.070 C 
BRANCH  16  18
ATOM     18  C   LIG    1       -2.345   4.116   0.746  0.00  0.00    +0.520 C 
ATOM     19  N   LIG    1       -2.506   5.448   0.877  0.00  0.00    -0.690 N 
ATOM     20  H   LIG    1       -1.846   6.055   0.509  0.00  0.00    +0.410 HD
ATOM     21  C   LIG    1       -3.586   5.936   1.520  0.00  0.00    +0.700 C 
ATOM     22  N   LIG    1       -3.747   7.268   1.651  0.00  0.00    -0.730 N 
ATOM     23  H   LIG    1       -3.086   7.875   1.283  0.00  0.00    +0.400 HD
ATOM     24  O   LIG    1       -4.413   5.175   1.982  0.00  0.00    -0.520 OA
ATOM     25  O   LIG    1       -3.171   3.357   1.206  0.00  0.00    -0.440 OA
BRANCH  22  26
ATOM     26  C   LIG    1       -4.920   7.798   2.350  0.00  0.00    +0.180 C 
ATOM     27  C   LIG    1       -6.191   7.341   1.633  0.00  0.00    +0.030 C 
ATOM     28  C   LIG    1       -4.860   9.327   2.358  0.00  0.00    +0.040 C 
ATOM     29  C   LIG    1       -4.933   7.281   3.790  0.00  0.00    +0.030 C 
ENDBRANCH  22  26
ENDBRANCH  16  18
ENDBRANCH   1  16
TORSDOF 6
