REMARK  Name = ZINCrH000004nCaG.0
REMARK                            x       y       z     vdW  Elec       q    Type
REMARK                         _______ _______ _______ _____ _____    ______ ____
ROOT
ATOM      1  C   LIG    1       -0.024   5.653  -0.183  0.00  0.00    -0.010 C 
ATOM      2  C   LIG    1        0.642   6.257   1.056  0.00  0.00    +0.040 C 
ATOM      3  C   LIG    1        0.574   7.784   0.972  0.00  0.00    +0.180 C 
ATOM      4  N   LIG    1       -0.830   8.208   0.893  0.00  0.00    -0.530 NA
ATOM      5  C   LIG    1       -1.478   7.678  -0.313  0.00  0.00    +0.180 C 
ATOM      6  C   LIG    1       -1.470   6.149  -0.268  0.00  0.00    +0.060 C 
ENDROOT
BRANCH   1   9
ATOM      7  N   LIG    1        1.159   3.489   0.010  0.00  0.00    -0.660 N 
ATOM      8  H   LIG    1        1.990   3.983   0.085  0.00  0.00    +0.410 HD
ATOM      9  C   LIG    1       -0.013   4.149  -0.077  0.00  0.00    +0.520 C 
ATOM     10  O   LIG    1       -1.058   3.534  -0.071  0.00  0.00    -0.520 OA
BRANCH   7  16
ATOM     11  C   LIG    1        2.234   1.394   0.575  0.00  0.00    +0.100 A 
ATOM     12  C   LIG    1        2.245   0.009   0.554  0.00  0.00    -0.060 A 
ATOM     13  C   LIG    1        1.209  -0.682  -0.047  0.00  0.00    +0.030 A 
ATOM     14  C   LIG    1        0.160   0.005  -0.627  0.00  0.00    +0.000 A 
ATOM     15  C   LIG    1        0.140   1.387  -0.610  0.00  0.00    +0.050 A 
ATOM     16  C   LIG    1        1.176   2.088  -0.009  0.00  0.00    +0.120 A 
BRANCH  11  18
ATOM     17  C   LIG    1        4.303   1.298   1.744  0.00  0.00    +0.250 C 
ATOM     18  O   LIG    1        3.252   2.075   1.165  0.00  0.00    -0.320 OA
ENDBRANCH  11  18
ENDBRANCH   7  16
ENDBRANCH   1   9
BRANCH   4  19
ATOM     19  C   LIG    1       -0.941   9.672   0.951  0.00  0.00    +0.280 C 
BRANCH  19  20
ATOM     20  C   LIG    1       -0.065  10.199   2.058  0.00  0.00    +0.080 A 
ATOM     21  C   LIG    1        1.183  10.632   1.848  0.00  0.00    -0.090 A 
ATOM     22  S   LIG    1        1.841  11.157   3.396  0.00  0.00    +0.170 S 
ATOM     23  C   LIG    1        0.377  10.736   4.172  0.00  0.00    +0.040 A 
ATOM     24  N   LIG    1       -0.463  10.267   3.312  0.00  0.00    -0.450 NA
BRANCH  23  25
ATOM     25  C   LIG    1        0.107  10.890   5.646  0.00  0.00    +0.250 C 
ATOM     26  C   LIG    1        0.847   9.796   6.418  0.00  0.00    +0.040 C 
BRANCH  25  27
ATOM     27  O   LIG    1        0.563  12.172   6.082  0.00  0.00    -0.380 OA
ATOM     28  C   LIG    1       -0.180  12.712   7.177  0.00  0.00    +0.220 C 
ENDBRANCH  25  27
ENDBRANCH  23  25
ENDBRANCH  19  20
ENDBRANCH   4  19
TORSDOF 7
