REMARK  Name = ZINCqH0000051L9V.0
REMARK                            x       y       z     vdW  Elec       q    Type
REMARK                         _______ _______ _______ _____ _____    ______ ____
ROOT
ATOM      1  C   LIG    1        1.584   3.138   0.004  0.00  0.00    +0.090 C 
ATOM      2  C   LIG    1        2.424   3.439   1.246  0.00  0.00    +0.070 C 
ATOM      3  C   LIG    1        1.610   3.120   2.502  0.00  0.00    +0.020 C 
ATOM      4  C   LIG    1        0.343   3.976   2.519  0.00  0.00    +0.260 C 
ATOM      5  O   LIG    1       -0.423   3.673   3.696  0.00  0.00    -0.370 OA
ATOM      6  C   LIG    1       -0.032   4.679   4.661  0.00  0.00    +0.200 C 
ATOM      7  C   LIG    1        0.162   5.923   3.758  0.00  0.00    +0.200 C 
ATOM      8  C   LIG    1       -0.497   3.683   1.275  0.00  0.00    +0.040 C 
ATOM      9  O   LIG    1        0.700   5.364   2.543  0.00  0.00    -0.370 OA
ATOM     10  C   LIG    1        0.320   4.001   0.021  0.00  0.00    +0.100 C 
ENDROOT
BRANCH   1  14
ATOM     11  C   LIG    1        3.810   4.024  -3.478  0.00  0.00    -0.030 A 
ATOM     12  C   LIG    1        4.432   3.322  -2.458  0.00  0.00    +0.060 A 
ATOM     13  C   LIG    1        3.704   3.036  -1.313  0.00  0.00    -0.010 A 
ATOM     14  C   LIG    1        2.387   3.448  -1.233  0.00  0.00    +0.130 A 
ATOM     15  N   LIG    1        1.827   4.114  -2.224  0.00  0.00    -0.470 NA
ATOM     16  C   LIG    1        2.490   4.407  -3.325  0.00  0.00    +0.260 A 
ENDBRANCH   1  14
BRANCH   1  17
ATOM     17  C   LIG    1        1.197   1.681  -0.000  0.00  0.00    +0.190 A 
ATOM     18  N   LIG    1       -0.014   1.209   0.009  0.00  0.00    -0.370 NA
ATOM     19  O   LIG    1        0.002  -0.004   0.002  0.00  0.00    +0.090 OA
ATOM     20  C   LIG    1        1.272  -0.439  -0.012  0.00  0.00    +0.250 A 
ATOM     21  N   LIG    1        2.041   0.638  -0.014  0.00  0.00    -0.470 NA
BRANCH  20  22
ATOM     22  C   LIG    1        1.722  -1.843  -0.024  0.00  0.00    -0.060 A 
ATOM     23  C   LIG    1        3.021  -2.204  -0.045  0.00  0.00    -0.010 A 
ATOM     24  S   LIG    1        3.182  -3.901  -0.051  0.00  0.00    +0.210 S 
ATOM     25  C   LIG    1        1.443  -4.139  -0.034  0.00  0.00    -0.050 A 
ATOM     26  C   LIG    1        0.817  -2.966  -0.021  0.00  0.00    +0.050 A 
ENDBRANCH  20  22
ENDBRANCH   1  17
TORSDOF 3
