REMARK  Name = ZINCrD0000070Yov.0
REMARK                            x       y       z     vdW  Elec       q    Type
REMARK                         _______ _______ _______ _____ _____    ______ ____
ROOT
ATOM      1  C   LIG    1       -0.669   2.344   1.898  0.00  0.00    +0.190 C 
ATOM      2  C   LIG    1       -0.093   2.006   0.521  0.00  0.00    +0.060 C 
ENDROOT
BRANCH   1   3
ATOM      3  C   LIG    1       -0.520   3.821   2.157  0.00  0.00    +0.520 C 
ATOM      4  N   LIG    1       -1.187   4.709   1.393  0.00  0.00    -0.720 N 
ATOM      5  H   LIG    1       -1.762   4.397   0.677  0.00  0.00    +0.400 HD
ATOM      6  O   LIG    1        0.200   4.210   3.052  0.00  0.00    -0.510 OA
BRANCH   4   7
ATOM      7  C   LIG    1       -1.043   6.145   1.645  0.00  0.00    +0.290 C 
ATOM      8  C   LIG    1       -2.022   6.572   2.740  0.00  0.00    +0.040 C 
BRANCH   7   9
ATOM      9  C   LIG    1       -1.339   6.909   0.380  0.00  0.00    -0.110 A 
ATOM     10  C   LIG    1       -2.373   6.506  -0.444  0.00  0.00    +0.040 A 
ATOM     11  C   LIG    1       -2.649   7.209  -1.601  0.00  0.00    -0.010 A 
ATOM     12  C   LIG    1       -1.882   8.310  -1.941  0.00  0.00    +0.100 A 
ATOM     13  C   LIG    1       -0.843   8.710  -1.118  0.00  0.00    -0.010 A 
ATOM     14  F   LIG    1       -2.148   8.995  -3.075  0.00  0.00    -0.140 F 
ATOM     15  C   LIG    1       -0.572   8.008   0.041  0.00  0.00    +0.060 A 
ENDBRANCH   7   9
ENDBRANCH   4   7
ENDBRANCH   1   3
BRANCH   1  16
ATOM     16  O   LIG    1        0.048   1.599   2.918  0.00  0.00    -0.330 OA
BRANCH  16  17
ATOM     17  C   LIG    1       -0.435   0.382   3.241  0.00  0.00    +0.540 C 
ATOM     18  O   LIG    1       -1.428  -0.045   2.685  0.00  0.00    -0.490 OA
BRANCH  17  23
ATOM     19  C   LIG    1        0.780  -2.074   5.670  0.00  0.00    -0.260 A 
ATOM     20  C   LIG    1        1.699  -1.047   5.813  0.00  0.00    +0.120 A 
ATOM     21  N   LIG    1        1.371  -0.064   4.962  0.00  0.00    -0.510 N 
ATOM     22  H   LIG    1        1.852   0.771   4.856  0.00  0.00    +0.430 HD
ATOM     23  C   LIG    1        0.238  -0.426   4.263  0.00  0.00    -0.050 A 
ATOM     24  C   LIG    1        2.872  -1.038   6.759  0.00  0.00    +0.160 C 
ATOM     25  C   LIG    1       -0.146  -1.666   4.680  0.00  0.00    -0.020 A 
ATOM     26  C   LIG    1       -1.330  -2.453   4.181  0.00  0.00    +0.140 C 
BRANCH  19  28
ATOM     27  C   LIG    1        1.556  -4.519   5.892  0.00  0.00    +0.070 C 
ATOM     28  C   LIG    1        0.767  -3.343   6.406  0.00  0.00    +0.440 C 
ATOM     29  O   LIG    1        0.122  -3.445   7.428  0.00  0.00    -0.450 OA
ENDBRANCH  19  28
ENDBRANCH  17  23
ENDBRANCH  16  17
ENDBRANCH   1  16
TORSDOF 7
