REMARK  Name = ZINCrH000004n2jz.0
REMARK                            x       y       z     vdW  Elec       q    Type
REMARK                         _______ _______ _______ _____ _____    ______ ____
ROOT
ATOM      1  N   LIG    1        4.433  -0.053  -2.939  0.00  0.00    -0.740 N 
ATOM      2  H   LIG    1        3.877   0.261  -3.669  0.00  0.00    +0.390 HD
ATOM      3  C   LIG    1        4.053   0.161  -1.663  0.00  0.00    +0.710 C 
ATOM      4  N   LIG    1        2.901   0.810  -1.403  0.00  0.00    -0.740 N 
ATOM      5  H   LIG    1        2.345   1.124  -2.133  0.00  0.00    +0.400 HD
ATOM      6  O   LIG    1        4.751  -0.232  -0.748  0.00  0.00    -0.590 OA
ENDROOT
BRANCH   1   7
ATOM      7  C   LIG    1        5.685  -0.758  -3.222  0.00  0.00    +0.310 C 
ATOM      8  C   LIG    1        5.437  -2.268  -3.198  0.00  0.00    +0.040 C 
BRANCH   7  12
ATOM      9  C   LIG    1        7.121   0.386  -7.083  0.00  0.00    +0.100 A 
ATOM     10  C   LIG    1        5.766   0.179  -6.879  0.00  0.00    -0.040 A 
ATOM     11  C   LIG    1        5.305  -0.197  -5.631  0.00  0.00    +0.050 A 
ATOM     12  C   LIG    1        6.192  -0.355  -4.583  0.00  0.00    -0.100 A 
ATOM     13  C   LIG    1        7.545  -0.148  -4.782  0.00  0.00    +0.050 A 
ATOM     14  C   LIG    1        8.012   0.222  -6.030  0.00  0.00    +0.080 A 
ATOM     15  F   LIG    1        9.334   0.424  -6.224  0.00  0.00    -0.130 F 
BRANCH   9  17
ATOM     16  C   LIG    1        6.603   0.901  -9.346  0.00  0.00    +0.260 C 
ATOM     17  O   LIG    1        7.577   0.751  -8.311  0.00  0.00    -0.310 OA
ENDBRANCH   9  17
ENDBRANCH   7  12
ENDBRANCH   1   7
BRANCH   4  18
ATOM     18  C   LIG    1        2.489   1.043  -0.016  0.00  0.00    +0.340 C 
BRANCH  18  19
ATOM     19  C   LIG    1        1.177   1.782   0.000  0.00  0.00    -0.100 A 
ATOM     20  C   LIG    1       -0.013   1.076   0.008  0.00  0.00    +0.030 A 
ATOM     21  C   LIG    1       -1.218   1.748   0.017  0.00  0.00    +0.030 A 
ATOM     22  C   LIG    1       -1.235   3.141   0.030  0.00  0.00    -0.010 A 
ATOM     23  C   LIG    1       -0.035   3.848   0.023  0.00  0.00    +0.040 A 
ATOM     24  C   LIG    1        1.165   3.166   0.008  0.00  0.00    +0.030 A 
BRANCH  22  25
ATOM     25  C   LIG    1       -2.528   3.870   0.046  0.00  0.00    +0.110 A 
ATOM     26  N   LIG    1       -2.680   5.177   0.053  0.00  0.00    -0.280 NA
ATOM     27  N   LIG    1       -4.053   5.456   0.067  0.00  0.00    -0.470 N 
ATOM     28  H   LIG    1       -4.454   6.339   0.074  0.00  0.00    +0.440 HD
ATOM     29  C   LIG    1       -4.720   4.282   0.067  0.00  0.00    +0.240 A 
ATOM     30  C   LIG    1       -3.809   3.285   0.049  0.00  0.00    -0.110 A 
ENDBRANCH  22  25
ENDBRANCH  18  19
ENDBRANCH   4  18
TORSDOF 6
