REMARK  Name = ZINCvU00000008oA.0
REMARK                            x       y       z     vdW  Elec       q    Type
REMARK                         _______ _______ _______ _____ _____    ______ ____
ROOT
ATOM      1  C   LIG    1        1.986   3.580   0.126  0.00  0.00    +0.540 C 
ATOM      2  N   LIG    1        3.183   4.043   0.538  0.00  0.00    -0.610 N 
ATOM      3  H   LIG    1        3.896   3.421   0.752  0.00  0.00    +0.430 HD
ATOM      4  O   LIG    1        1.094   4.357  -0.141  0.00  0.00    -0.480 OA
ENDROOT
BRANCH   2   5
ATOM      5  C   LIG    1        3.395   5.411   0.658  0.00  0.00    +0.270 A 
ATOM      6  N   LIG    1        4.501   5.967   1.044  0.00  0.00    -0.490 NA
ATOM      7  C   LIG    1        4.522   7.291   1.098  0.00  0.00    +0.120 A 
ATOM      8  C   LIG    1        3.378   7.901   0.741  0.00  0.00    -0.100 A 
ATOM      9  S   LIG    1        2.206   6.660   0.302  0.00  0.00    +0.220 S 
BRANCH   7  10
ATOM     10  C   LIG    1        5.725   8.049   1.522  0.00  0.00    -0.000 A 
ATOM     11  C   LIG    1        5.698   9.441   1.556  0.00  0.00    +0.060 A 
ATOM     12  C   LIG    1        6.817  10.143   1.957  0.00  0.00    +0.030 A 
ATOM     13  C   LIG    1        7.970   9.465   2.314  0.00  0.00    +0.070 A 
ATOM     14  C   LIG    1        8.005   8.079   2.277  0.00  0.00    +0.070 A 
ATOM     15  F   LIG    1        9.133   7.422   2.627  0.00  0.00    -0.130 F 
ATOM     16  F   LIG    1        9.065  10.156   2.701  0.00  0.00    -0.130 F 
ATOM     17  C   LIG    1        6.887   7.369   1.882  0.00  0.00    +0.060 A 
ENDBRANCH   7  10
ENDBRANCH   2   5
BRANCH   1  19
ATOM     18  C   LIG    1        2.359   1.600  -1.319  0.00  0.00    +0.110 C 
ATOM     19  C   LIG    1        1.756   2.096  -0.004  0.00  0.00    +0.020 C 
BRANCH  19  20
ATOM     20  S   LIG    1       -0.022   1.758   0.012  0.00  0.00    +0.160 S 
BRANCH  20  21
ATOM     21  C   LIG    1        0.002  -0.004   0.002  0.00  0.00    +0.120 A 
ATOM     22  N   LIG    1        1.071  -0.766  -0.012  0.00  0.00    -0.280 NA
ATOM     23  N   LIG    1        0.715  -2.003  -0.015  0.00  0.00    -0.260 NA
ATOM     24  C   LIG    1       -0.594  -2.080  -0.003  0.00  0.00    +0.220 A 
ATOM     25  O   LIG    1       -1.073  -0.816   0.013  0.00  0.00    -0.190 OA
BRANCH  24  26
ATOM     26  C   LIG    1       -1.397  -3.319  -0.001  0.00  0.00    -0.060 A 
ATOM     27  C   LIG    1       -0.766  -4.564  -0.013  0.00  0.00    +0.110 A 
ATOM     28  C   LIG    1       -1.522  -5.718  -0.011  0.00  0.00    +0.020 A 
ATOM     29  C   LIG    1       -2.903  -5.645   0.003  0.00  0.00    +0.080 A 
ATOM     30  C   LIG    1       -3.538  -4.416   0.014  0.00  0.00    +0.000 A 
ATOM     31  C   LIG    1       -2.794  -3.251   0.019  0.00  0.00    +0.130 A 
ATOM     32  F   LIG    1       -3.414  -2.051   0.036  0.00  0.00    -0.120 F 
ENDBRANCH  24  26
ENDBRANCH  20  21
ENDBRANCH  19  20
ENDBRANCH   1  19
TORSDOF 6
