REMARK  Name = ZINCrg00001JduYY.0
REMARK                            x       y       z     vdW  Elec       q    Type
REMARK                         _______ _______ _______ _____ _____    ______ ____
ROOT
ATOM      1  N   LIG    1       -3.558  -0.683   4.148  0.00  0.00    -0.460 N 
ATOM      2  C   LIG    1       -3.345  -0.023   2.969  0.00  0.00    +0.180 A 
ATOM      3  N   LIG    1       -4.333  -0.322   2.174  0.00  0.00    -0.250 NA
ATOM      4  N   LIG    1       -5.151  -1.117   2.766  0.00  0.00    -0.300 NA
ATOM      5  C   LIG    1       -4.726  -1.369   3.982  0.00  0.00    +0.350 A 
ENDROOT
BRANCH   2   6
ATOM      6  C   LIG    1       -2.182   0.879   2.648  0.00  0.00    +0.260 C 
ATOM      7  C   LIG    1       -2.644   2.337   2.676  0.00  0.00    +0.050 C 
BRANCH   6   8
ATOM      8  O   LIG    1       -1.679   0.563   1.348  0.00  0.00    -0.350 OA
BRANCH   8   9
ATOM      9  C   LIG    1       -0.279   0.806   1.192  0.00  0.00    +0.180 C 
BRANCH   9  10
ATOM     10  C   LIG    1        0.147   0.434  -0.230  0.00  0.00    +0.190 C 
BRANCH  10  11
ATOM     11  O   LIG    1       -0.495   1.306  -1.163  0.00  0.00    -0.380 OA
ATOM     12  C   LIG    1       -0.163   1.043  -2.527  0.00  0.00    +0.200 C 
ENDBRANCH  10  11
ENDBRANCH   9  10
ENDBRANCH   8   9
ENDBRANCH   6   8
ENDBRANCH   2   6
BRANCH   5  13
ATOM     13  N   LIG    1       -5.344  -2.182   4.919  0.00  0.00    -0.460 N 
ATOM     14  C   LIG    1       -5.262  -3.595   4.525  0.00  0.00    +0.240 C 
BRANCH  13  15
ATOM     15  C   LIG    1       -6.739  -1.774   5.131  0.00  0.00    +0.200 C 
ATOM     16  C   LIG    1       -7.344  -2.607   6.258  0.00  0.00    +0.040 C 
ATOM     17  C   LIG    1       -8.852  -2.389   6.338  0.00  0.00    +0.080 C 
ATOM     18  C   LIG    1       -9.150  -0.977   6.847  0.00  0.00    -0.320 C 
ATOM     19  S   LIG    1       -8.519   0.231   5.645  0.00  0.00    +2.420 S 
ATOM     20  O   LIG    1       -8.557   1.523   6.235  0.00  0.00    -0.930 OA
ATOM     21  O   LIG    1       -9.168   0.014   4.399  0.00  0.00    -0.920 OA
ATOM     22  C   LIG    1       -6.785  -0.289   5.498  0.00  0.00    -0.340 C 
ENDBRANCH  13  15
ENDBRANCH   5  13
BRANCH   1  23
ATOM     23  C   LIG    1       -2.710  -0.657   5.342  0.00  0.00    +0.320 C 
BRANCH  23  24
ATOM     24  C   LIG    1       -3.146   0.492   6.253  0.00  0.00    +0.020 C 
BRANCH  24  25
ATOM     25  C   LIG    1       -2.260   0.519   7.500  0.00  0.00    +0.180 C 
BRANCH  25  27
ATOM     26  C   LIG    1       -1.900   1.706   9.551  0.00  0.00    +0.200 C 
ATOM     27  O   LIG    1       -2.668   1.592   8.351  0.00  0.00    -0.390 OA
ENDBRANCH  25  27
ENDBRANCH  24  25
ENDBRANCH  23  24
ENDBRANCH   1  23
TORSDOF 11
