REMARK  Name = ZINCrg000000qNbg.0
REMARK                            x       y       z     vdW  Elec       q    Type
REMARK                         _______ _______ _______ _____ _____    ______ ____
ROOT
ATOM      1  N   LIG    1        0.000   1.461   0.009  0.00  0.00    -0.600 N 
ATOM      2  C   LIG    1        1.159   2.149   0.011  0.00  0.00    +0.510 C 
ATOM      3  O   LIG    1        2.217   1.555   0.006  0.00  0.00    -0.520 OA
ATOM      4  C   LIG    1       -1.277   2.178   0.009  0.00  0.00    +0.300 C 
ENDROOT
BRANCH   1   5
ATOM      5  C   LIG    1        0.018  -0.004   0.001  0.00  0.00    +0.340 C 
BRANCH   5   8
ATOM      6  N   LIG    1        0.043  -1.840   1.659  0.00  0.00    -0.660 N 
ATOM      7  H   LIG    1       -0.032  -2.467   0.922  0.00  0.00    +0.420 HD
ATOM      8  C   LIG    1        0.026  -0.514   1.420  0.00  0.00    +0.490 C 
ATOM      9  O   LIG    1        0.018   0.269   2.346  0.00  0.00    -0.500 OA
BRANCH   6  16
ATOM     10  C   LIG    1       -0.310  -3.579   3.306  0.00  0.00    +0.100 A 
ATOM     11  C   LIG    1       -0.183  -4.043   4.605  0.00  0.00    -0.040 A 
ATOM     12  C   LIG    1        0.415  -3.251   5.567  0.00  0.00    +0.050 A 
ATOM     13  C   LIG    1        0.889  -1.994   5.237  0.00  0.00    -0.050 A 
ATOM     14  C   LIG    1        0.771  -1.526   3.941  0.00  0.00    +0.070 A 
ATOM     15 CL   LIG    1        1.639  -1.005   6.450  0.00  0.00    -0.060 Cl
ATOM     16  C   LIG    1        0.167  -2.314   2.972  0.00  0.00    +0.140 A 
BRANCH  10  18
ATOM     17  C   LIG    1       -1.363  -5.644   2.773  0.00  0.00    +0.250 C 
ATOM     18  O   LIG    1       -0.897  -4.358   2.359  0.00  0.00    -0.320 OA
ENDBRANCH  10  18
ENDBRANCH   6  16
ENDBRANCH   5   8
ENDBRANCH   1   5
BRANCH   2  19
ATOM     19  C   LIG    1        1.141   3.655   0.019  0.00  0.00    +0.360 C 
BRANCH  19  20
ATOM     20  N   LIG    1        2.516   4.160   0.019  0.00  0.00    -0.560 N 
ATOM     21  C   LIG    1        3.221   4.419   1.126  0.00  0.00    +0.710 C 
ATOM     22  N   LIG    1        4.459   4.871   0.854  0.00  0.00    -0.720 N 
ATOM     23  H   LIG    1        5.141   5.118   1.498  0.00  0.00    +0.440 HD
ATOM     24  C   LIG    1        4.575   4.921  -0.614  0.00  0.00    +0.120 C 
ATOM     25  C   LIG    1        4.824   6.354  -1.089  0.00  0.00    +0.090 C 
ATOM     26  C   LIG    1        5.691   3.994  -1.098  0.00  0.00    +0.080 C 
ATOM     27  O   LIG    1        2.793   4.261   2.253  0.00  0.00    -0.530 OA
ATOM     28  C   LIG    1        3.225   4.427  -1.095  0.00  0.00    +0.540 C 
ATOM     29  O   LIG    1        2.860   4.298  -2.244  0.00  0.00    -0.460 OA
ENDBRANCH  19  20
ENDBRANCH   2  19
TORSDOF 6
