REMARK  Name = ZINCpk00000y6uNA.0
REMARK                            x       y       z     vdW  Elec       q    Type
REMARK                         _______ _______ _______ _____ _____    ______ ____
ROOT
ATOM      1  C   LIG    1        0.183   1.385   0.798  0.00  0.00    +0.310 C 
ENDROOT
BRANCH   1   7
ATOM      2  N   LIG    1       -0.770   3.080  -0.736  0.00  0.00    -0.500 NA
ATOM      3  C   LIG    1       -0.830   3.281  -2.207  0.00  0.00    +0.180 C 
ATOM      4  C   LIG    1        0.336   2.437  -2.763  0.00  0.00    +0.180 C 
ATOM      5  C   LIG    1        0.597   1.358  -1.692  0.00  0.00    +0.040 C 
ATOM      6  F   LIG    1        1.473   3.233  -2.937  0.00  0.00    -0.200 F 
ATOM      7  C   LIG    1       -0.434   1.641  -0.578  0.00  0.00    +0.110 C 
BRANCH   2   8
ATOM      8  C   LIG    1       -2.061   3.391  -0.109  0.00  0.00    +0.280 C 
BRANCH   8  11
ATOM      9  C   LIG    1       -3.552   5.185  -2.057  0.00  0.00    +0.150 C 
ATOM     10  C   LIG    1       -2.858   5.691  -0.818  0.00  0.00    +0.070 A 
ATOM     11  C   LIG    1       -2.207   4.885   0.026  0.00  0.00    -0.220 A 
ATOM     12  S   LIG    1       -1.543   5.879   1.321  0.00  0.00    +0.150 S 
ATOM     13  C   LIG    1       -2.213   7.278   0.602  0.00  0.00    +0.220 A 
ATOM     14  N   LIG    1       -2.846   6.964  -0.477  0.00  0.00    -0.470 NA
ENDBRANCH   8  11
ENDBRANCH   2   8
ENDBRANCH   1   7
BRANCH   1  15
ATOM     15  N   LIG    1        0.477  -0.043   0.944  0.00  0.00    -0.610 N 
ATOM     16  C   LIG    1        1.713  -0.507   0.673  0.00  0.00    +0.610 C 
ATOM     17  O   LIG    1        2.608   0.269   0.397  0.00  0.00    -0.550 OA
ATOM     18  C   LIG    1       -0.573  -0.965   1.383  0.00  0.00    +0.290 C 
BRANCH  16  19
ATOM     19  C   LIG    1        1.979  -1.950   0.713  0.00  0.00    -0.370 A 
ATOM     20  C   LIG    1        3.159  -2.564   1.128  0.00  0.00    +0.430 A 
ATOM     21  N   LIG    1        2.977  -3.895   1.006  0.00  0.00    -0.400 N 
ATOM     22  N   LIG    1        1.688  -4.124   0.514  0.00  0.00    -0.300 NA
ATOM     23  C   LIG    1        3.965  -4.927   1.332  0.00  0.00    +0.360 C 
ATOM     24  C   LIG    1        1.085  -2.982   0.342  0.00  0.00    +0.300 A 
BRANCH  20  25
ATOM     25  N   LIG    1        4.298  -1.930   1.581  0.00  0.00    -0.830 N 
ATOM     26  H   LIG    1        5.070  -2.453   1.848  0.00  0.00    +0.400 HD
ATOM     27  H   LIG    1        4.326  -0.962   1.632  0.00  0.00    +0.430 HD
ENDBRANCH  20  25
ENDBRANCH  16  19
ENDBRANCH   1  15
TORSDOF 6
