REMARK  Name = ZINCb80000001O5W.0
REMARK                            x       y       z     vdW  Elec       q    Type
REMARK                         _______ _______ _______ _____ _____    ______ ____
ROOT
ATOM      1  C   LIG    1        0.002  -0.004   0.002  0.00  0.00    +0.230 C 
ATOM      2  C   LIG    1       -0.019   1.528   0.010  0.00  0.00    +0.010 C 
ATOM      3  C   LIG    1        1.420   2.050  -0.001  0.00  0.00    +0.230 C 
ATOM      4  O   LIG    1        2.124   1.527   1.128  0.00  0.00    -0.370 OA
ATOM      5  C   LIG    1        2.216   0.101   1.149  0.00  0.00    +0.220 C 
ATOM      6  C   LIG    1        0.809  -0.499   1.206  0.00  0.00    +0.150 C 
ATOM      7  F   LIG    1        0.177  -0.101   2.389  0.00  0.00    -0.200 F 
ENDROOT
BRANCH   1  10
ATOM      8  C   LIG    1       -3.075  -2.261  -0.304  0.00  0.00    +0.090 C 
ATOM      9  C   LIG    1       -1.665  -1.737  -0.393  0.00  0.00    +0.510 C 
ATOM     10  N   LIG    1       -1.369  -0.513   0.088  0.00  0.00    -0.730 N 
ATOM     11  H   LIG    1       -2.064   0.030   0.491  0.00  0.00    +0.410 HD
ATOM     12  O   LIG    1       -0.796  -2.417  -0.897  0.00  0.00    -0.540 OA
ENDBRANCH   1  10
TORSDOF 1
