REMARK  Name = ZINCrD00000748Fo.0
REMARK                            x       y       z     vdW  Elec       q    Type
REMARK                         _______ _______ _______ _____ _____    ______ ____
ROOT
ATOM      1  N   LIG    1       -2.386   7.929   4.310  0.00  0.00    -0.720 N 
ATOM      2  H   LIG    1       -3.164   7.823   4.880  0.00  0.00    +0.410 HD
ATOM      3  C   LIG    1       -2.388   7.413   3.065  0.00  0.00    +0.520 C 
ATOM      4  O   LIG    1       -1.416   7.545   2.353  0.00  0.00    -0.520 OA
ENDROOT
BRANCH   1   6
ATOM      5  C   LIG    1       -1.283  10.111   4.356  0.00  0.00    +0.060 C 
ATOM      6  C   LIG    1       -1.210   8.649   4.803  0.00  0.00    +0.340 C 
BRANCH   6   7
ATOM      7  C   LIG    1       -1.176   8.586   6.308  0.00  0.00    +0.130 A 
ATOM      8  N   LIG    1       -2.186   8.787   7.114  0.00  0.00    -0.240 NA
ATOM      9  N   LIG    1       -1.814   8.654   8.339  0.00  0.00    -0.280 NA
ATOM     10  C   LIG    1       -0.524   8.364   8.379  0.00  0.00    +0.200 A 
ATOM     11  C   LIG    1        0.383   8.123   9.429  0.00  0.00    +0.080 A 
ATOM     12  C   LIG    1        1.681   7.845   9.134  0.00  0.00    +0.070 A 
ATOM     13  C   LIG    1        2.098   7.801   7.793  0.00  0.00    +0.030 A 
ATOM     14  C   LIG    1        1.218   8.034   6.797  0.00  0.00    +0.230 A 
ATOM     15  N   LIG    1       -0.087   8.315   7.077  0.00  0.00    -0.380 N 
ENDBRANCH   6   7
ENDBRANCH   1   6
BRANCH   3  16
ATOM     16  C   LIG    1       -3.598   6.671   2.558  0.00  0.00    +0.150 C 
BRANCH  16  17
ATOM     17  C   LIG    1       -3.345   6.200   1.150  0.00  0.00    -0.160 A 
ATOM     18  C   LIG    1       -3.697   6.824   0.017  0.00  0.00    +0.240 A 
ATOM     19  O   LIG    1       -3.305   6.104  -1.049  0.00  0.00    -0.190 OA
ATOM     20  C   LIG    1       -2.677   4.975  -0.663  0.00  0.00    +0.060 A 
ATOM     21  C   LIG    1       -2.096   3.921  -1.353  0.00  0.00    +0.030 A 
ATOM     22  C   LIG    1       -1.512   2.875  -0.665  0.00  0.00    -0.070 A 
ATOM     23  C   LIG    1       -1.501   2.866   0.723  0.00  0.00    -0.110 A 
ATOM     24  C   LIG    1       -0.802   1.617   1.223  0.00  0.00    +0.080 C 
ATOM     25  C   LIG    1       -0.013   1.086   0.008  0.00  0.00    +0.030 C 
ATOM     26  C   LIG    1       -2.074   3.906   1.427  0.00  0.00    +0.060 A 
ATOM     27  C   LIG    1       -0.825   1.630  -1.186  0.00  0.00    +0.080 C 
ATOM     28  C   LIG    1       -2.664   4.965   0.742  0.00  0.00    -0.110 A 
ENDBRANCH  16  17
ENDBRANCH   3  16
TORSDOF 4
