REMARK  Name = ZINCqH0000061afz.0
REMARK                            x       y       z     vdW  Elec       q    Type
REMARK                         _______ _______ _______ _____ _____    ______ ____
ROOT
ATOM      1  C   LIG    1       -1.107  -2.244  -0.646  0.00  0.00    +0.250 C 
ATOM      2  C   LIG    1        0.238  -2.986  -0.742  0.00  0.00    +0.040 C 
ATOM      3  C   LIG    1       -0.522  -4.086  -1.488  0.00  0.00    -0.100 C 
ATOM      4  C   LIG    1        0.172  -4.957  -2.535  0.00  0.00    +0.030 C 
ATOM      5  C   LIG    1        0.265  -6.041  -1.445  0.00  0.00    +0.250 C 
ATOM      6  C   LIG    1       -0.949  -5.370  -0.778  0.00  0.00    +0.050 C 
ATOM      7  C   LIG    1       -1.549  -3.028  -1.895  0.00  0.00    +0.040 C 
ENDROOT
BRANCH   1   9
ATOM      8  C   LIG    1       -1.093   0.052   0.171  0.00  0.00    +0.520 C 
ATOM      9  N   LIG    1       -0.997  -0.800  -0.869  0.00  0.00    -0.720 N 
ATOM     10  H   LIG    1       -0.855  -0.457  -1.765  0.00  0.00    +0.400 HD
ATOM     11  O   LIG    1       -1.271  -0.377   1.292  0.00  0.00    -0.520 OA
BRANCH   8  12
ATOM     12  C   LIG    1       -0.980   1.537  -0.058  0.00  0.00    +0.030 C 
BRANCH  12  14
ATOM     13  C   LIG    1       -1.798   3.778   0.682  0.00  0.00    +0.030 C 
ATOM     14  C   LIG    1       -1.812   2.280   0.989  0.00  0.00    +0.070 C 
ENDBRANCH  12  14
BRANCH  12  15
ATOM     15  S   LIG    1        0.757   2.040   0.082  0.00  0.00    -0.200 S 
ATOM     16  C   LIG    1        1.543   1.188  -1.313  0.00  0.00    +0.130 C 
ENDBRANCH  12  15
ENDBRANCH   8  12
ENDBRANCH   1   9
BRANCH   5  17
ATOM     17  N   LIG    1       -0.008  -7.394  -1.936  0.00  0.00    -0.720 N 
ATOM     18  H   LIG    1       -0.915  -7.653  -2.164  0.00  0.00    +0.400 HD
ATOM     19  C   LIG    1        1.000  -8.278  -2.072  0.00  0.00    +0.560 C 
ATOM     20  O   LIG    1        2.134  -7.953  -1.787  0.00  0.00    -0.530 OA
BRANCH  19  21
ATOM     21  C   LIG    1        0.719  -9.669  -2.577  0.00  0.00    -0.160 C 
ATOM     22  C   LIG    1        0.882 -10.826  -1.589  0.00  0.00    -0.090 C 
ATOM     23  C   LIG    1       -0.083 -12.006  -1.716  0.00  0.00    +0.070 C 
ATOM     24  C   LIG    1        1.319 -10.481  -0.163  0.00  0.00    +0.070 C 
ATOM     25  C   LIG    1       -0.398  -9.781  -3.617  0.00  0.00    +0.070 C 
ATOM     26  C   LIG    1        1.905 -10.626  -2.709  0.00  0.00    -0.080 C 
ATOM     27  C   LIG    1        3.287 -10.097  -2.318  0.00  0.00    +0.080 C 
ATOM     28  C   LIG    1        1.885 -11.622  -3.870  0.00  0.00    +0.060 C 
ENDBRANCH  19  21
ENDBRANCH   5  17
TORSDOF 6
