REMARK  Name = ZINCrg000000s7bv.0
REMARK                            x       y       z     vdW  Elec       q    Type
REMARK                         _______ _______ _______ _____ _____    ______ ____
ROOT
ATOM      1  C   LIG    1       -4.872   1.963   0.038  0.00  0.00    +0.510 C 
ATOM      2  N   LIG    1       -6.101   2.514   0.047  0.00  0.00    -0.520 N 
ATOM      3  H   LIG    1       -6.200   3.479   0.052  0.00  0.00    +0.440 HD
ATOM      4  O   LIG    1       -4.748   0.756   0.031  0.00  0.00    -0.530 OA
ENDROOT
BRANCH   2   5
ATOM      5  N   LIG    1       -7.237   1.694   0.049  0.00  0.00    -0.520 N 
ATOM      6  H   LIG    1       -7.138   0.729   0.043  0.00  0.00    +0.440 HD
ATOM      7  C   LIG    1       -8.467   2.245   0.058  0.00  0.00    +0.520 C 
ATOM      8  O   LIG    1       -8.590   3.451   0.065  0.00  0.00    -0.520 OA
BRANCH   7   9
ATOM      9  C   LIG    1       -9.688   1.362   0.060  0.00  0.00    +0.210 C 
BRANCH   9  10
ATOM     10  C   LIG    1      -10.928   2.220   0.071  0.00  0.00    +0.290 A 
ATOM     11  N   LIG    1      -11.546   2.649  -0.990  0.00  0.00    -0.470 NA
ATOM     12  C   LIG    1      -12.621   3.393  -0.623  0.00  0.00    +0.050 A 
ATOM     13  C   LIG    1      -13.609   4.076  -1.336  0.00  0.00    +0.070 A 
ATOM     14  C   LIG    1      -14.588   4.753  -0.664  0.00  0.00    +0.000 A 
ATOM     15  C   LIG    1      -14.614   4.769   0.723  0.00  0.00    +0.030 A 
ATOM     16  C   LIG    1      -13.649   4.101   1.447  0.00  0.00    +0.010 A 
ATOM     17  C   LIG    1      -12.646   3.409   0.782  0.00  0.00    +0.050 A 
ATOM     18  N   LIG    1      -11.566   2.653   1.191  0.00  0.00    -0.480 N 
ATOM     19  C   LIG    1      -11.176   2.373   2.575  0.00  0.00    +0.340 C 
ENDBRANCH   9  10
ENDBRANCH   7   9
ENDBRANCH   2   5
BRANCH   1  20
ATOM     20  C   LIG    1       -3.650   2.845   0.036  0.00  0.00    +0.330 C 
BRANCH  20  22
ATOM     21  C   LIG    1       -1.227   2.588   0.022  0.00  0.00    +0.600 C 
ATOM     22  N   LIG    1       -2.445   2.012   0.026  0.00  0.00    -0.720 N 
ATOM     23  H   LIG    1       -2.525   1.045   0.021  0.00  0.00    +0.410 HD
ATOM     24  O   LIG    1       -1.128   3.801   0.028  0.00  0.00    -0.520 OA
BRANCH  21  29
ATOM     25  C   LIG    1        2.545  -1.281  -0.030  0.00  0.00    +0.140 C 
ATOM     26  C   LIG    1        1.708  -0.027  -0.014  0.00  0.00    -0.190 A 
ATOM     27  C   LIG    1        2.204   1.216  -0.013  0.00  0.00    -0.010 A 
ATOM     28  C   LIG    1        1.263   2.218   0.002  0.00  0.00    +0.120 A 
ATOM     29  C   LIG    1       -0.022   1.754   0.012  0.00  0.00    -0.280 A 
ATOM     30  S   LIG    1        0.002  -0.004   0.002  0.00  0.00    +0.210 S 
ENDBRANCH  21  29
ENDBRANCH  20  22
ENDBRANCH   1  20
TORSDOF 6
