REMARK  Name = ZINCrH000004ktgh.0
REMARK                            x       y       z     vdW  Elec       q    Type
REMARK                         _______ _______ _______ _____ _____    ______ ____
ROOT
ATOM      1  C   LIG    1       -1.196   1.697   0.017  0.00  0.00    +0.380 A 
ATOM      2  C   LIG    1       -2.412   1.031   0.127  0.00  0.00    -0.060 A 
ATOM      3  C   LIG    1       -3.583   1.763   0.142  0.00  0.00    +0.160 A 
ATOM      4  C   LIG    1       -3.498   3.157   0.032  0.00  0.00    -0.120 A 
ATOM      5  C   LIG    1       -2.241   3.752  -0.081  0.00  0.00    +0.330 A 
ATOM      6  N   LIG    1       -1.149   3.017  -0.085  0.00  0.00    -0.470 NA
ENDROOT
BRANCH   4   7
ATOM      7  C   LIG    1       -4.722   3.985   0.036  0.00  0.00    +0.170 A 
ATOM      8  N   LIG    1       -5.924   3.524   0.131  0.00  0.00    -0.460 NA
ATOM      9  C   LIG    1       -6.939   4.406   0.123  0.00  0.00    +0.080 A 
ATOM     10  C   LIG    1       -8.326   4.158   0.216  0.00  0.00    +0.080 A 
ATOM     11  C   LIG    1       -9.216   5.188   0.186  0.00  0.00    +0.030 A 
ATOM     12  C   LIG    1       -8.781   6.500   0.065  0.00  0.00    +0.040 A 
ATOM     13  C   LIG    1       -7.434   6.772  -0.029  0.00  0.00    +0.060 A 
ATOM     14  C   LIG    1       -6.508   5.732   0.000  0.00  0.00    -0.170 A 
ATOM     15  S   LIG    1       -4.749   5.739  -0.095  0.00  0.00    +0.070 S 
ENDBRANCH   4   7
BRANCH   1  17
ATOM     16  C   LIG    1        1.175   1.605   0.005  0.00  0.00    +0.500 C 
ATOM     17  N   LIG    1       -0.011   0.966   0.007  0.00  0.00    -0.660 N 
ATOM     18  H   LIG    1       -0.040  -0.004  -0.002  0.00  0.00    +0.420 HD
ATOM     19  O   LIG    1        1.213   2.814  -0.077  0.00  0.00    -0.460 OA
BRANCH  16  20
ATOM     20  C   LIG    1        2.456   0.817   0.105  0.00  0.00    +0.060 C 
BRANCH  20  21
ATOM     21  C   LIG    1        3.648   1.775   0.081  0.00  0.00    +0.040 C 
BRANCH  21  22
ATOM     22  C   LIG    1        4.948   0.975   0.182  0.00  0.00    +0.310 C 
BRANCH  22  24
ATOM     23  C   LIG    1        6.656   2.235  -1.015  0.00  0.00    +0.650 C 
ATOM     24  N   LIG    1        6.090   1.893   0.160  0.00  0.00    -0.600 N 
ATOM     25  C   LIG    1        6.616   2.439   1.413  0.00  0.00    +0.300 C 
ATOM     26  O   LIG    1        6.220   1.782  -2.054  0.00  0.00    -0.570 OA
BRANCH  23  28
ATOM     27  C   LIG    1        8.265   3.403  -2.336  0.00  0.00    +0.280 C 
ATOM     28  O   LIG    1        7.705   3.079  -1.036  0.00  0.00    -0.370 OA
ENDBRANCH  23  28
ENDBRANCH  22  24
ENDBRANCH  21  22
ENDBRANCH  20  21
ENDBRANCH  16  20
ENDBRANCH   1  17
TORSDOF 7
