REMARK  Name = ZINCrg00000SjSKM.0
REMARK                            x       y       z     vdW  Elec       q    Type
REMARK                         _______ _______ _______ _____ _____    ______ ____
ROOT
ATOM      1  N   LIG    1        4.990  -0.113  -1.561  0.00  0.00    -0.390 N 
ATOM      2  C   LIG    1        3.823  -0.139  -2.233  0.00  0.00    +0.290 A 
ATOM      3  N   LIG    1        3.714   0.937  -2.970  0.00  0.00    -0.490 NA
ATOM      4  C   LIG    1        4.791   1.709  -2.806  0.00  0.00    +0.320 A 
ATOM      5  N   LIG    1        5.187   2.930  -3.329  0.00  0.00    -0.510 N 
ATOM      6  C   LIG    1        4.320   3.635  -4.276  0.00  0.00    +0.340 C 
ATOM      7  C   LIG    1        6.367   3.468  -2.968  0.00  0.00    +0.710 A 
ATOM      8  O   LIG    1        6.698   4.540  -3.437  0.00  0.00    -0.530 OA
ATOM      9  N   LIG    1        7.189   2.851  -2.102  0.00  0.00    -0.550 N 
ATOM     10  C   LIG    1        8.462   3.480  -1.741  0.00  0.00    +0.340 C 
ATOM     11  C   LIG    1        6.859   1.660  -1.559  0.00  0.00    +0.580 A 
ATOM     12  O   LIG    1        7.612   1.111  -0.775  0.00  0.00    -0.480 OA
ATOM     13  C   LIG    1        5.631   1.060  -1.910  0.00  0.00    -0.150 A 
ENDROOT
BRANCH   1  14
ATOM     14  C   LIG    1        5.487  -1.135  -0.636  0.00  0.00    +0.220 C 
ATOM     15  C   LIG    1        6.812  -1.694  -1.158  0.00  0.00    +0.080 C 
BRANCH  14  17
ATOM     16  C   LIG    1        4.527  -0.295   1.641  0.00  0.00    +0.070 C 
ATOM     17  C   LIG    1        5.700  -0.521   0.723  0.00  0.00    +0.340 C 
ATOM     18  O   LIG    1        6.812  -0.211   1.077  0.00  0.00    -0.390 OA
ENDBRANCH  14  17
ENDBRANCH   1  14
BRANCH   2  19
ATOM     19  C   LIG    1        2.800  -1.242  -2.152  0.00  0.00    +0.310 C 
BRANCH  19  20
ATOM     20  N   LIG    1        1.928  -1.017  -0.992  0.00  0.00    -0.540 NA
ATOM     21  C   LIG    1        1.491   0.383  -0.924  0.00  0.00    +0.170 C 
ATOM     22  C   LIG    1        0.708   0.613   0.370  0.00  0.00    -0.010 C 
ATOM     23  C   LIG    1       -0.505  -0.321   0.400  0.00  0.00    +0.020 C 
ATOM     24  C   LIG    1       -0.026  -1.770   0.280  0.00  0.00    -0.010 C 
ATOM     25  C   LIG    1       -1.236  -2.707   0.248  0.00  0.00    +0.020 C 
ATOM     26  C   LIG    1        0.235   2.067   0.429  0.00  0.00    +0.020 C 
ATOM     27  C   LIG    1        0.778  -1.931  -1.012  0.00  0.00    +0.180 C 
ENDBRANCH  19  20
ENDBRANCH   2  19
TORSDOF 4
