REMARK  Name = ZINCpk000000oK5V.0
REMARK                            x       y       z     vdW  Elec       q    Type
REMARK                         _______ _______ _______ _____ _____    ______ ____
ROOT
ATOM      1  N   LIG    1        0.955  -4.749  -2.244  0.00  0.00    -0.630 NA
ATOM      2  C   LIG    1        1.247  -6.046  -2.160  0.00  0.00    +0.490 A 
ATOM      3  N   LIG    1        2.502  -6.599  -2.162  0.00  0.00    -0.480 N 
ATOM      4  H   LIG    1        3.341  -6.116  -2.226  0.00  0.00    +0.460 HD
ATOM      5  N   LIG    1        2.353  -7.988  -2.055  0.00  0.00    -0.480 N 
ATOM      6  H   LIG    1        3.075  -8.635  -2.032  0.00  0.00    +0.450 HD
ATOM      7  C   LIG    1        1.024  -8.277  -1.989  0.00  0.00    +0.390 A 
ATOM      8  C   LIG    1        0.318  -7.113  -2.045  0.00  0.00    -0.200 A 
ENDROOT
BRANCH   8   9
ATOM      9  C   LIG    1       -1.158  -6.983  -1.997  0.00  0.00    +0.020 A 
ATOM     10  C   LIG    1       -1.768  -6.335  -0.925  0.00  0.00    +0.070 A 
ATOM     11  C   LIG    1       -3.143  -6.215  -0.882  0.00  0.00    +0.040 A 
ATOM     12  C   LIG    1       -3.921  -6.738  -1.904  0.00  0.00    +0.030 A 
ATOM     13  O   LIG    1       -5.273  -6.751  -2.092  0.00  0.00    -0.310 OA
ATOM     14  C   LIG    1       -5.464  -7.052  -3.488  0.00  0.00    +0.420 C 
ATOM     15  O   LIG    1       -4.290  -7.807  -3.839  0.00  0.00    -0.310 OA
ATOM     16  C   LIG    1       -3.316  -7.388  -2.979  0.00  0.00    +0.030 A 
ATOM     17  C   LIG    1       -1.938  -7.505  -3.028  0.00  0.00    +0.040 A 
ENDBRANCH   8   9
BRANCH   1  18
ATOM     18  C   LIG    1        1.932  -3.853  -2.343  0.00  0.00    +0.500 C 
ATOM     19  O   LIG    1        3.092  -4.217  -2.356  0.00  0.00    -0.580 OA
BRANCH  18  24
ATOM     20  N   LIG    1        0.690  -0.478  -1.207  0.00  0.00    -0.540 NA
ATOM     21  C   LIG    1        1.944   0.258  -1.421  0.00  0.00    +0.140 C 
ATOM     22  C   LIG    1        2.596  -0.225  -2.720  0.00  0.00    +0.220 C 
ATOM     23  O   LIG    1        2.803  -1.638  -2.647  0.00  0.00    -0.370 OA
ATOM     24  C   LIG    1        1.602  -2.386  -2.439  0.00  0.00    +0.190 C 
ATOM     25  C   LIG    1        0.940  -1.925  -1.138  0.00  0.00    +0.180 C 
BRANCH  20  27
ATOM     26  C   LIG    1       -0.019   1.526   0.010  0.00  0.00    +0.030 C 
ATOM     27  C   LIG    1        0.002  -0.004   0.002  0.00  0.00    +0.160 C 
ENDBRANCH  20  27
ENDBRANCH  18  24
ENDBRANCH   1  18
TORSDOF 4
