REMARK  Name = ZINCkj00000y7MKG.0
REMARK                            x       y       z     vdW  Elec       q    Type
REMARK                         _______ _______ _______ _____ _____    ______ ____
ROOT
ATOM      1  C   LIG    1       -1.593   1.034  -5.695  0.00  0.00    +0.140 C 
ATOM      2  C   LIG    1       -0.385   1.469  -4.851  0.00  0.00    +0.280 C 
ATOM      3  N   LIG    1       -0.862   1.788  -3.497  0.00  0.00    -0.640 N 
ATOM      4  C   LIG    1       -2.003   2.708  -3.364  0.00  0.00    +0.280 C 
ATOM      5  C   LIG    1       -3.130   2.216  -4.280  0.00  0.00    +0.240 C 
ATOM      6  C   LIG    1       -0.268   1.258  -2.409  0.00  0.00    +0.710 C 
ATOM      7  N   LIG    1        0.839   0.503  -2.547  0.00  0.00    -0.740 N 
ATOM      8  H   LIG    1        1.168   0.280  -3.432  0.00  0.00    +0.390 HD
ATOM      9  O   LIG    1       -0.731   1.462  -1.304  0.00  0.00    -0.570 OA
ATOM     10  O   LIG    1       -2.615   2.029  -5.601  0.00  0.00    -0.390 OA
ENDROOT
BRANCH   1  11
ATOM     11  C   LIG    1       -1.165   0.878  -7.156  0.00  0.00    +0.290 C 
BRANCH  11  13
ATOM     12  C   LIG    1       -2.767  -0.866  -7.545  0.00  0.00    +0.320 C 
ATOM     13  N   LIG    1       -2.322   0.470  -7.964  0.00  0.00    -0.380 N 
ATOM     14  H   LIG    1       -3.074   1.131  -7.833  0.00  0.00    +0.430 HD
BRANCH  13  15
ATOM     15  C   LIG    1       -1.941   0.436  -9.382  0.00  0.00    +0.290 C 
BRANCH  15  16
ATOM     16  C   LIG    1       -3.175   0.134 -10.235  0.00  0.00    -0.080 C 
ATOM     17  C   LIG    1       -3.179  -1.170 -11.035  0.00  0.00    +0.050 C 
ATOM     18  C   LIG    1       -3.009   0.170 -11.756  0.00  0.00    +0.070 C 
ENDBRANCH  15  16
ENDBRANCH  13  15
ENDBRANCH  11  13
ENDBRANCH   1  11
BRANCH   7  19
ATOM     19  C   LIG    1        1.547   0.017  -1.360  0.00  0.00    +0.310 C 
BRANCH  19  20
ATOM     20  C   LIG    1        2.760  -0.810  -1.792  0.00  0.00    -0.070 C 
ATOM     21  C   LIG    1        2.775  -2.292  -1.415  0.00  0.00    +0.020 C 
ATOM     22  C   LIG    1        3.701  -1.311  -0.694  0.00  0.00    +0.030 C 
ENDBRANCH  19  20
ENDBRANCH   7  19
TORSDOF 6
