REMARK  Name = ZINCkj00000y7MKG.1
REMARK                            x       y       z     vdW  Elec       q    Type
REMARK                         _______ _______ _______ _____ _____    ______ ____
ROOT
ATOM      1  C   LIG    1       -1.751   0.503  -5.536  0.00  0.00    +0.140 C 
ATOM      2  C   LIG    1       -0.511   1.022  -4.799  0.00  0.00    +0.310 C 
ATOM      3  N   LIG    1       -0.900   1.368  -3.423  0.00  0.00    -0.640 N 
ATOM      4  C   LIG    1       -2.077   2.230  -3.233  0.00  0.00    +0.260 C 
ATOM      5  C   LIG    1       -3.238   1.656  -4.046  0.00  0.00    +0.240 C 
ATOM      6  C   LIG    1       -0.201   0.905  -2.368  0.00  0.00    +0.710 C 
ATOM      7  N   LIG    1       -0.632   1.151  -1.114  0.00  0.00    -0.740 N 
ATOM      8  H   LIG    1       -1.402   1.722  -0.970  0.00  0.00    +0.400 HD
ATOM      9  O   LIG    1        0.817   0.265  -2.546  0.00  0.00    -0.580 OA
ATOM     10  O   LIG    1       -2.813   1.450  -5.395  0.00  0.00    -0.380 OA
ENDROOT
BRANCH   1  11
ATOM     11  C   LIG    1       -1.425   0.318  -7.019  0.00  0.00    +0.290 C 
BRANCH  11  13
ATOM     12  C   LIG    1       -2.348  -0.211  -9.169  0.00  0.00    +0.330 C 
ATOM     13  N   LIG    1       -2.614  -0.178  -7.725  0.00  0.00    -0.380 N 
ATOM     14  H   LIG    1       -3.394   0.435  -7.540  0.00  0.00    +0.430 HD
BRANCH  13  15
ATOM     15  C   LIG    1       -2.934  -1.532  -7.254  0.00  0.00    +0.280 C 
BRANCH  15  16
ATOM     16  C   LIG    1       -4.242  -1.999  -7.895  0.00  0.00    -0.080 C 
ATOM     17  C   LIG    1       -5.428  -2.265  -6.967  0.00  0.00    +0.040 C 
ATOM     18  C   LIG    1       -4.690  -3.436  -7.621  0.00  0.00    +0.070 C 
ENDBRANCH  15  16
ENDBRANCH  13  15
ENDBRANCH  11  13
ENDBRANCH   1  11
BRANCH   7  19
ATOM     19  C   LIG    1        0.063   0.554   0.029  0.00  0.00    +0.310 C 
BRANCH  19  20
ATOM     20  C   LIG    1       -0.622   0.990   1.326  0.00  0.00    -0.070 C 
ATOM     21  C   LIG    1        0.191   1.839   2.304  0.00  0.00    +0.030 C 
ATOM     22  C   LIG    1       -0.115   0.377   2.633  0.00  0.00    +0.030 C 
ENDBRANCH  19  20
ENDBRANCH   7  19
TORSDOF 6
