REMARK  Name = ZINCpe00000MJJK1.0
REMARK                            x       y       z     vdW  Elec       q    Type
REMARK                         _______ _______ _______ _____ _____    ______ ____
ROOT
ATOM      1  C   LIG    1       -0.014   1.209   0.009  0.00  0.00    +0.520 C 
ATOM      2  N   LIG    1        1.143   1.898   0.001  0.00  0.00    -0.620 N 
ATOM      3  C   LIG    1        1.140   3.368   0.009  0.00  0.00    +0.260 C 
ATOM      4  C   LIG    1        2.010   3.857   1.171  0.00  0.00    +0.010 C 
ATOM      5  C   LIG    1        3.402   3.232   1.059  0.00  0.00    +0.030 C 
ATOM      6  C   LIG    1        3.289   1.709   1.148  0.00  0.00    +0.080 C 
ATOM      7  C   LIG    1        2.434   1.195  -0.009  0.00  0.00    +0.290 C 
ATOM      8  O   LIG    1        0.002  -0.004   0.002  0.00  0.00    -0.530 OA
ENDROOT
BRANCH   6   9
ATOM      9  C   LIG    1        4.664   1.097   1.071  0.00  0.00    +0.040 A 
ATOM     10  N   LIG    1        5.413   0.754   2.087  0.00  0.00    -0.260 NA
ATOM     11  N   LIG    1        6.530   0.260   1.688  0.00  0.00    -0.380 N 
ATOM     12  H   LIG    1        7.238  -0.060   2.268  0.00  0.00    +0.440 HD
ATOM     13  C   LIG    1        6.567   0.254   0.323  0.00  0.00    -0.040 A 
ATOM     14  C   LIG    1        5.362   0.788  -0.099  0.00  0.00    +0.030 A 
BRANCH  13  15
ATOM     15  C   LIG    1        7.666  -0.229  -0.529  0.00  0.00    +0.600 C 
ATOM     16  O   LIG    1        7.566  -0.174  -1.740  0.00  0.00    -0.520 OA
ATOM     17  N   LIG    1        8.783  -0.731   0.033  0.00  0.00    -0.850 N 
ATOM     18  H   LIG    1        9.507  -1.050  -0.528  0.00  0.00    +0.410 HD
ATOM     19  H   LIG    1        8.863  -0.775   0.999  0.00  0.00    +0.400 HD
ENDBRANCH  13  15
ENDBRANCH   6   9
BRANCH   1  20
ATOM     20  C   LIG    1       -1.330   1.944   0.019  0.00  0.00    +0.140 C 
BRANCH  20  28
ATOM     21  C   LIG    1       -2.750   0.739  -2.545  0.00  0.00    +0.150 C 
ATOM     22  C   LIG    1       -3.089   0.417  -1.112  0.00  0.00    +0.090 A 
ATOM     23  N   LIG    1       -4.019  -0.412  -0.711  0.00  0.00    -0.300 NA
ATOM     24  N   LIG    1       -4.019  -0.425   0.689  0.00  0.00    -0.370 N 
ATOM     25  C   LIG    1       -3.054   0.418   1.113  0.00  0.00    +0.100 A 
ATOM     26  C   LIG    1       -2.701   0.715   2.548  0.00  0.00    +0.140 C 
ATOM     27  C   LIG    1       -4.909  -1.215   1.544  0.00  0.00    +0.350 C 
ATOM     28  C   LIG    1       -2.462   0.950   0.019  0.00  0.00    -0.220 A 
ENDBRANCH  20  28
ENDBRANCH   1  20
TORSDOF 4
