REMARK  Name = ZINCrH000004jdvb.0
REMARK                            x       y       z     vdW  Elec       q    Type
REMARK                         _______ _______ _______ _____ _____    ______ ____
ROOT
ATOM      1  N   LIG    1       -6.513   1.796   2.098  0.00  0.00    -0.570 N 
ATOM      2  C   LIG    1       -6.101   0.392   1.979  0.00  0.00    +0.310 C 
ATOM      3  C   LIG    1       -5.011   0.373   0.885  0.00  0.00    -0.010 C 
ATOM      4  C   LIG    1       -5.375   1.627   0.056  0.00  0.00    +0.090 C 
ATOM      5  C   LIG    1       -6.122   2.511   1.029  0.00  0.00    +0.520 C 
ATOM      6  O   LIG    1       -6.337   3.694   0.869  0.00  0.00    -0.510 OA
ENDROOT
BRANCH   1  12
ATOM      7  C   LIG    1       -6.534   2.834   4.279  0.00  0.00    -0.060 A 
ATOM      8  C   LIG    1       -7.234   3.357   5.348  0.00  0.00    +0.010 A 
ATOM      9  C   LIG    1       -8.617   3.362   5.334  0.00  0.00    +0.020 A 
ATOM     10  C   LIG    1       -9.303   2.848   4.249  0.00  0.00    +0.010 A 
ATOM     11  C   LIG    1       -8.608   2.327   3.175  0.00  0.00    +0.010 A 
ATOM     12  C   LIG    1       -7.219   2.322   3.185  0.00  0.00    +0.140 A 
BRANCH   7  14
ATOM     13  C   LIG    1       -4.500   4.064   3.571  0.00  0.00    +0.010 C 
ATOM     14  C   LIG    1       -5.027   2.824   4.297  0.00  0.00    +0.070 C 
ENDBRANCH   7  14
ENDBRANCH   1  12
BRANCH   3  15
ATOM     15  C   LIG    1       -3.637   0.506   1.490  0.00  0.00    +0.530 C 
ATOM     16  N   LIG    1       -2.548   0.505   0.696  0.00  0.00    -0.600 N 
ATOM     17  O   LIG    1       -3.512   0.615   2.691  0.00  0.00    -0.500 OA
BRANCH  16  18
ATOM     18  C   LIG    1       -1.220   0.720   1.275  0.00  0.00    +0.280 C 
ATOM     19  C   LIG    1       -0.517   1.858   0.532  0.00  0.00    +0.050 C 
BRANCH  18  20
ATOM     20  C   LIG    1       -0.393  -0.561   1.145  0.00  0.00    -0.060 C 
ATOM     21  C   LIG    1        0.837  -0.519   0.236  0.00  0.00    +0.010 C 
ATOM     22  C   LIG    1        1.009  -0.562   1.756  0.00  0.00    +0.030 C 
ENDBRANCH  18  20
ENDBRANCH  16  18
BRANCH  16  23
ATOM     23  C   LIG    1       -2.693   0.288  -0.745  0.00  0.00    +0.320 C 
BRANCH  23  24
ATOM     24  C   LIG    1       -2.649  -1.212  -1.042  0.00  0.00    +0.430 C 
ATOM     25  F   LIG    1       -1.371  -1.706  -0.760  0.00  0.00    -0.170 F 
ATOM     26  F   LIG    1       -2.945  -1.429  -2.393  0.00  0.00    -0.180 F 
ATOM     27  F   LIG    1       -3.591  -1.873  -0.247  0.00  0.00    -0.180 F 
ENDBRANCH  23  24
ENDBRANCH  16  23
ENDBRANCH   3  15
TORSDOF 7
