REMARK  Name = ZINCpk00001AZivP.0
REMARK                            x       y       z     vdW  Elec       q    Type
REMARK                         _______ _______ _______ _____ _____    ______ ____
ROOT
ATOM      1  C   LIG    1        6.444   1.575  -2.595  0.00  0.00    +0.060 C 
ATOM      2  C   LIG    1        7.534   0.866  -1.789  0.00  0.00    +0.270 C 
ENDROOT
BRANCH   2   3
ATOM      3  C   LIG    1        8.812   0.841  -2.587  0.00  0.00    +0.520 C 
ATOM      4  N   LIG    1        9.390   1.996  -2.970  0.00  0.00    -0.510 N 
ATOM      5  H   LIG    1        8.984   2.844  -2.732  0.00  0.00    +0.440 HD
ATOM      6  O   LIG    1        9.321  -0.220  -2.885  0.00  0.00    -0.520 OA
BRANCH   4   7
ATOM      7  N   LIG    1       10.579   1.973  -3.712  0.00  0.00    -0.520 N 
ATOM      8  H   LIG    1       10.986   1.125  -3.950  0.00  0.00    +0.430 HD
ATOM      9  C   LIG    1       11.157   3.128  -4.095  0.00  0.00    +0.600 C 
ATOM     10  O   LIG    1       10.647   4.192  -3.796  0.00  0.00    -0.520 OA
BRANCH   9  11
ATOM     11  C   LIG    1       12.400   3.104  -4.871  0.00  0.00    -0.280 A 
ATOM     12  C   LIG    1       13.079   4.204  -5.315  0.00  0.00    +0.120 A 
ATOM     13  C   LIG    1       14.217   3.892  -6.020  0.00  0.00    +0.000 A 
ATOM     14  C   LIG    1       14.464   2.583  -6.150  0.00  0.00    -0.050 A 
ATOM     15  S   LIG    1       13.261   1.655  -5.372  0.00  0.00    +0.210 S 
ENDBRANCH   9  11
ENDBRANCH   4   7
ENDBRANCH   2   3
BRANCH   2  16
ATOM     16  N   LIG    1        7.112  -0.507  -1.500  0.00  0.00    -1.100 NA
ATOM     17  H   LIG    1        7.266  -1.209  -2.151  0.00  0.00    +0.430 HD
BRANCH  16  18
ATOM     18  S   LIG    1        6.372  -0.860  -0.061  0.00  0.00    +2.690 S 
ATOM     19  O   LIG    1        6.060  -2.246  -0.099  0.00  0.00    -0.950 OA
ATOM     20  O   LIG    1        7.171  -0.271   0.956  0.00  0.00    -0.950 OA
BRANCH  18  21
ATOM     21  C   LIG    1        4.832  -0.004  -0.043  0.00  0.00    -0.600 C 
ATOM     22  C   LIG    1        3.695  -0.685  -0.036  0.00  0.00    +0.220 C 
BRANCH  22  23
ATOM     23  C   LIG    1        2.403   0.034  -0.020  0.00  0.00    -0.100 A 
ATOM     24  C   LIG    1        1.204  -0.681  -0.013  0.00  0.00    +0.040 A 
ATOM     25  C   LIG    1        0.002  -0.004   0.002  0.00  0.00    +0.000 A 
ATOM     26  C   LIG    1       -0.017   1.379   0.010  0.00  0.00    +0.030 A 
ATOM     27  C   LIG    1        1.168   2.093   0.002  0.00  0.00    +0.000 A 
ATOM     28  C   LIG    1        2.377   1.429  -0.013  0.00  0.00    +0.040 A 
ENDBRANCH  22  23
ENDBRANCH  18  21
ENDBRANCH  16  18
ENDBRANCH   2  16
TORSDOF 7
