REMARK  Name = ZINCpk00000y6u7U.0
REMARK                            x       y       z     vdW  Elec       q    Type
REMARK                         _______ _______ _______ _____ _____    ______ ____
ROOT
ATOM      1  C   LIG    1        2.650   3.667  -0.621  0.00  0.00    +0.170 C 
ATOM      2  C   LIG    1        3.498   2.486  -0.080  0.00  0.00    +0.100 C 
ATOM      3  C   LIG    1        2.491   1.317  -0.056  0.00  0.00    +0.340 C 
ATOM      4  N   LIG    1        1.143   1.902  -0.023  0.00  0.00    -0.620 N 
ATOM      5  C   LIG    1       -0.013   1.211  -0.017  0.00  0.00    +0.520 C 
ATOM      6  O   LIG    1        0.004  -0.001  -0.046  0.00  0.00    -0.500 OA
ATOM      7  C   LIG    1        1.267   3.371   0.010  0.00  0.00    +0.240 C 
ENDROOT
BRANCH   3   8
ATOM      8  C   LIG    1        2.713   0.470   1.171  0.00  0.00    +0.170 A 
ATOM      9  N   LIG    1        3.831  -0.105   1.522  0.00  0.00    -0.280 NA
ATOM     10  N   LIG    1        3.661  -0.744   2.625  0.00  0.00    -0.290 NA
ATOM     11  C   LIG    1        2.425  -0.614   3.022  0.00  0.00    +0.180 A 
ATOM     12  C   LIG    1        1.818  -1.213   4.264  0.00  0.00    +0.200 C 
ATOM     13  N   LIG    1        1.788   0.161   2.111  0.00  0.00    -0.560 N 
ATOM     14  H   LIG    1        0.858   0.438   2.128  0.00  0.00    +0.420 HD
ENDBRANCH   3   8
BRANCH   1  16
ATOM     15  C   LIG    1        2.304   4.904  -2.645  0.00  0.00    +0.210 C 
ATOM     16  O   LIG    1        2.579   3.635  -2.048  0.00  0.00    -0.370 OA
ENDBRANCH   1  16
BRANCH   5  17
ATOM     17  C   LIG    1       -1.330   1.944   0.019  0.00  0.00    +0.220 C 
BRANCH  17  18
ATOM     18  N   LIG    1       -2.431   0.980  -0.102  0.00  0.00    -0.470 N 
ATOM     19  C   LIG    1       -2.643   0.255   1.170  0.00  0.00    +0.240 C 
ATOM     20  C   LIG    1       -3.757   1.084   1.850  0.00  0.00    +0.060 C 
ATOM     21  C   LIG    1       -4.462   1.728   0.673  0.00  0.00    -0.140 A 
ATOM     22  C   LIG    1       -5.693   2.340   0.567  0.00  0.00    +0.030 A 
ATOM     23  C   LIG    1       -6.111   2.853  -0.648  0.00  0.00    +0.000 A 
ATOM     24  C   LIG    1       -5.292   2.750  -1.757  0.00  0.00    +0.030 A 
ATOM     25  C   LIG    1       -4.058   2.140  -1.656  0.00  0.00    +0.020 A 
ATOM     26  C   LIG    1       -3.629   1.625  -0.435  0.00  0.00    +0.080 A 
ENDBRANCH  17  18
ENDBRANCH   5  17
TORSDOF 4
