REMARK  Name = ZINCpk00000y6u7U.1
REMARK                            x       y       z     vdW  Elec       q    Type
REMARK                         _______ _______ _______ _____ _____    ______ ____
ROOT
ATOM      1  C   LIG    1        0.347   1.986   2.030  0.00  0.00    +0.170 C 
ATOM      2  C   LIG    1       -0.828   1.958   1.018  0.00  0.00    +0.070 C 
ATOM      3  C   LIG    1       -0.145   1.514  -0.293  0.00  0.00    +0.350 C 
ATOM      4  N   LIG    1        1.285   1.834  -0.170  0.00  0.00    -0.610 N 
ATOM      5  C   LIG    1        2.228   1.583  -1.099  0.00  0.00    +0.530 C 
ATOM      6  O   LIG    1        1.923   1.049  -2.144  0.00  0.00    -0.500 OA
ATOM      7  C   LIG    1        1.515   2.475   1.138  0.00  0.00    +0.240 C 
ENDROOT
BRANCH   3   8
ATOM      8  C   LIG    1       -0.738   2.259  -1.461  0.00  0.00    +0.230 A 
ATOM      9  N   LIG    1       -0.513   3.512  -1.756  0.00  0.00    -0.300 NA
ATOM     10  N   LIG    1       -1.256   3.796  -2.914  0.00  0.00    -0.480 N 
ATOM     11  H   LIG    1       -1.299   4.644  -3.384  0.00  0.00    +0.440 HD
ATOM     12  C   LIG    1       -1.901   2.662  -3.237  0.00  0.00    +0.290 A 
ATOM     13  C   LIG    1       -2.829   2.475  -4.410  0.00  0.00    +0.190 C 
ATOM     14  N   LIG    1       -1.581   1.748  -2.358  0.00  0.00    -0.530 NA
ENDBRANCH   3   8
BRANCH   1  16
ATOM     15  C   LIG    1        1.264   0.677   3.817  0.00  0.00    +0.210 C 
ATOM     16  O   LIG    1        0.610   0.679   2.546  0.00  0.00    -0.370 OA
ENDBRANCH   1  16
BRANCH   5  17
ATOM     17  C   LIG    1        3.663   1.966  -0.839  0.00  0.00    +0.230 C 
BRANCH  17  18
ATOM     18  N   LIG    1        4.509   1.467  -1.931  0.00  0.00    -0.470 N 
ATOM     19  C   LIG    1        4.724   0.008  -1.809  0.00  0.00    +0.230 C 
ATOM     20  C   LIG    1        6.065  -0.073  -1.045  0.00  0.00    +0.060 C 
ATOM     21  C   LIG    1        6.733   1.242  -1.396  0.00  0.00    -0.140 A 
ATOM     22  C   LIG    1        8.042   1.662  -1.283  0.00  0.00    +0.030 A 
ATOM     23  C   LIG    1        8.400   2.933  -1.697  0.00  0.00    +0.000 A 
ATOM     24  C   LIG    1        7.444   3.781  -2.224  0.00  0.00    +0.030 A 
ATOM     25  C   LIG    1        6.133   3.366  -2.337  0.00  0.00    +0.010 A 
ATOM     26  C   LIG    1        5.763   2.089  -1.919  0.00  0.00    +0.090 A 
ENDBRANCH  17  18
ENDBRANCH   5  17
TORSDOF 4
