REMARK  Name = ZINCvU0000000DyP.0
REMARK                            x       y       z     vdW  Elec       q    Type
REMARK                         _______ _______ _______ _____ _____    ______ ____
ROOT
ATOM      1  C   LIG    1       -3.577  -6.876  -1.381  0.00  0.00    +0.300 C 
ENDROOT
BRANCH   1   2
ATOM      2  C   LIG    1       -3.672  -7.310  -2.821  0.00  0.00    +0.110 A 
ATOM      3  C   LIG    1       -2.737  -8.056  -3.413  0.00  0.00    -0.100 A 
ATOM      4  S   LIG    1       -3.235  -8.335  -5.080  0.00  0.00    +0.140 S 
ATOM      5  C   LIG    1       -4.651  -7.412  -4.821  0.00  0.00    +0.270 A 
ATOM      6  N   LIG    1       -4.684  -6.978  -3.601  0.00  0.00    -0.460 NA
BRANCH   5   7
ATOM      7  N   LIG    1       -5.627  -7.164  -5.782  0.00  0.00    -0.480 N 
ATOM      8  C   LIG    1       -6.650  -6.332  -5.504  0.00  0.00    +0.510 C 
ATOM      9  O   LIG    1       -6.678  -5.737  -4.447  0.00  0.00    -0.460 OA
ATOM     10  C   LIG    1       -7.760  -6.141  -6.505  0.00  0.00    +0.110 C 
BRANCH   7  11
ATOM     11  C   LIG    1       -5.546  -7.779  -7.038  0.00  0.00    +0.110 A 
ATOM     12  C   LIG    1       -4.568  -7.387  -7.942  0.00  0.00    +0.020 A 
ATOM     13  C   LIG    1       -4.488  -7.999  -9.178  0.00  0.00    +0.030 A 
ATOM     14  C   LIG    1       -5.386  -8.994  -9.518  0.00  0.00    +0.030 A 
ATOM     15  C   LIG    1       -6.364  -9.383  -8.622  0.00  0.00    +0.030 A 
ATOM     16  C   LIG    1       -6.447  -8.778  -7.383  0.00  0.00    +0.020 A 
ENDBRANCH   7  11
ENDBRANCH   5   7
ENDBRANCH   1   2
BRANCH   1  17
ATOM     17  N   LIG    1       -2.968  -5.541  -1.311  0.00  0.00    -0.520 NA
BRANCH  17  18
ATOM     18  C   LIG    1       -1.551  -5.588  -1.695  0.00  0.00    +0.200 C 
BRANCH  18  20
ATOM     19  C   LIG    1        0.688  -6.537  -1.121  0.00  0.00    +0.030 C 
ATOM     20  C   LIG    1       -0.788  -6.489  -0.722  0.00  0.00    -0.030 C 
ENDBRANCH  18  20
ENDBRANCH  17  18
BRANCH  17  21
ATOM     21  C   LIG    1       -3.132  -4.957   0.027  0.00  0.00    +0.360 C 
BRANCH  21  22
ATOM     22  C   LIG    1       -2.721  -3.508  -0.003  0.00  0.00    +0.180 A 
ATOM     23  N   LIG    1       -3.498  -2.494  -0.260  0.00  0.00    -0.260 NA
ATOM     24  N   LIG    1       -2.818  -1.403  -0.201  0.00  0.00    -0.270 NA
ATOM     25  C   LIG    1       -1.569  -1.688   0.100  0.00  0.00    +0.240 A 
ATOM     26  O   LIG    1       -1.485  -3.028   0.224  0.00  0.00    -0.220 OA
BRANCH  25  27
ATOM     27  C   LIG    1       -0.470  -0.725   0.262  0.00  0.00    -0.150 A 
ATOM     28  C   LIG    1       -0.579   0.625   0.126  0.00  0.00    +0.100 A 
ATOM     29  C   LIG    1        0.597   1.315   0.327  0.00  0.00    +0.020 A 
ATOM     30  C   LIG    1        1.657   0.558   0.624  0.00  0.00    -0.010 A 
ATOM     31  S   LIG    1        1.193  -1.137   0.663  0.00  0.00    +0.170 S 
ENDBRANCH  25  27
ENDBRANCH  21  22
ENDBRANCH  17  21
ENDBRANCH   1  17
TORSDOF 9
