REMARK  Name = ZINCpk00000xWSnq.0
REMARK                            x       y       z     vdW  Elec       q    Type
REMARK                         _______ _______ _______ _____ _____    ______ ____
ROOT
ATOM      1  C   LIG    1        1.010   3.751  -0.170  0.00  0.00    +0.220 C 
ATOM      2  C   LIG    1        2.421   4.246  -0.550  0.00  0.00    +0.040 C 
ATOM      3  C   LIG    1        3.002   3.054  -1.357  0.00  0.00    +0.040 C 
ATOM      4  C   LIG    1        2.388   1.845  -0.604  0.00  0.00    +0.260 C 
ATOM      5  N   LIG    1        1.030   2.283  -0.234  0.00  0.00    -0.600 N 
ATOM      6  C   LIG    1       -0.018   1.471   0.010  0.00  0.00    +0.590 C 
ATOM      7  O   LIG    1       -1.119   1.945   0.215  0.00  0.00    -0.500 OA
ENDROOT
BRANCH   6   8
ATOM      8  C   LIG    1        0.170   0.008   0.022  0.00  0.00    -0.160 A 
ATOM      9  C   LIG    1        1.343  -0.546   0.538  0.00  0.00    +0.060 A 
ATOM     10  C   LIG    1        1.512  -1.914   0.547  0.00  0.00    -0.010 A 
ATOM     11  C   LIG    1        0.522  -2.743   0.047  0.00  0.00    +0.050 A 
ATOM     12  C   LIG    1       -0.643  -2.209  -0.467  0.00  0.00    -0.010 A 
ATOM     13  C   LIG    1       -0.832  -0.835  -0.478  0.00  0.00    +0.160 A 
BRANCH  13  14
ATOM     14  O   LIG    1       -1.979  -0.310  -0.977  0.00  0.00    -0.480 OA
ATOM     15  H   LIG    1       -1.944  -0.117  -1.924  0.00  0.00    +0.390 HD
ENDBRANCH  13  14
ENDBRANCH   6   8
BRANCH   1  18
ATOM     16  N   LIG    1        0.595   5.513   1.516  0.00  0.00    -0.720 N 
ATOM     17  H   LIG    1        0.761   6.171   0.823  0.00  0.00    +0.400 HD
ATOM     18  C   LIG    1        0.669   4.199   1.228  0.00  0.00    +0.510 C 
ATOM     19  O   LIG    1        0.462   3.375   2.095  0.00  0.00    -0.510 OA
BRANCH  16  20
ATOM     20  C   LIG    1        0.264   5.948   2.876  0.00  0.00    +0.350 C 
BRANCH  20  26
ATOM     21  C   LIG    1        2.655  10.181   3.401  0.00  0.00    +0.180 C 
ATOM     22  C   LIG    1        1.358   9.448   3.176  0.00  0.00    +0.320 A 
ATOM     23  N   LIG    1        0.246  10.141   3.034  0.00  0.00    -0.510 NA
ATOM     24  C   LIG    1       -0.912   9.532   2.834  0.00  0.00    +0.330 A 
ATOM     25  C   LIG    1       -0.943   8.148   2.772  0.00  0.00    -0.070 A 
ATOM     26  C   LIG    1        0.246   7.454   2.931  0.00  0.00    +0.160 A 
ATOM     27  N   LIG    1        1.366   8.131   3.127  0.00  0.00    -0.510 NA
ENDBRANCH  20  26
ENDBRANCH  16  20
ENDBRANCH   1  18
TORSDOF 5
