REMARK  Name = ZINCrg000000rgZM.0
REMARK                            x       y       z     vdW  Elec       q    Type
REMARK                         _______ _______ _______ _____ _____    ______ ____
ROOT
ATOM      1  N   LIG    1        3.002  -1.934   1.819  0.00  0.00    -0.740 N 
ATOM      2  H   LIG    1        2.139  -2.372   1.744  0.00  0.00    +0.410 HD
ATOM      3  C   LIG    1        3.103  -0.607   1.612  0.00  0.00    +0.710 C 
ATOM      4  N   LIG    1        1.995   0.130   1.400  0.00  0.00    -0.630 N 
ATOM      5  C   LIG    1        0.676  -0.510   1.276  0.00  0.00    +0.280 C 
ATOM      6  C   LIG    1        0.006  -0.001  -0.004  0.00  0.00    +0.170 C 
ATOM      7  N   LIG    1       -0.015   1.468   0.008  0.00  0.00    -0.530 NA
ATOM      8  C   LIG    1        1.346   2.020   0.004  0.00  0.00    +0.170 C 
ATOM      9  C   LIG    1        2.071   1.594   1.285  0.00  0.00    +0.310 C 
ATOM     10  O   LIG    1        4.196  -0.073   1.617  0.00  0.00    -0.590 OA
ENDROOT
BRANCH   1  12
ATOM     11  C   LIG    1        4.920  -3.121   0.873  0.00  0.00    +0.060 C 
ATOM     12  C   LIG    1        4.193  -2.717   2.158  0.00  0.00    +0.360 C 
BRANCH  12  13
ATOM     13  C   LIG    1        3.783  -3.954   2.914  0.00  0.00    +0.160 A 
ATOM     14  N   LIG    1        2.795  -4.752   2.614  0.00  0.00    -0.280 NA
ATOM     15  N   LIG    1        2.736  -5.709   3.472  0.00  0.00    -0.290 NA
ATOM     16  C   LIG    1        3.677  -5.559   4.363  0.00  0.00    +0.380 A 
ATOM     17  N   LIG    1        4.369  -4.441   4.035  0.00  0.00    -0.470 N 
ATOM     18  C   LIG    1        5.517  -3.874   4.746  0.00  0.00    +0.350 C 
ENDBRANCH  12  13
ENDBRANCH   1  12
BRANCH   7  19
ATOM     19  C   LIG    1       -0.800   1.993  -1.117  0.00  0.00    +0.290 C 
BRANCH  19  20
ATOM     20  C   LIG    1       -1.006   3.475  -0.937  0.00  0.00    +0.070 A 
ATOM     21  C   LIG    1       -0.241   4.448  -1.478  0.00  0.00    +0.080 A 
ATOM     22  N   LIG    1       -0.764   5.646  -1.073  0.00  0.00    -0.360 N 
ATOM     23  C   LIG    1       -0.402   6.940  -1.312  0.00  0.00    +0.210 A 
ATOM     24  C   LIG    1       -1.105   7.960  -0.777  0.00  0.00    +0.010 A 
ATOM     25  C   LIG    1       -2.223   7.702   0.034  0.00  0.00    +0.040 A 
ATOM     26  C   LIG    1       -2.594   6.417   0.280  0.00  0.00    +0.070 A 
ATOM     27  C   LIG    1       -1.850   5.363  -0.285  0.00  0.00    +0.220 A 
ATOM     28  N   LIG    1       -1.979   4.045  -0.222  0.00  0.00    -0.470 NA
ENDBRANCH  19  20
ENDBRANCH   7  19
TORSDOF 4
