REMARK  Name = ZINCqH0000005arR.0
REMARK                            x       y       z     vdW  Elec       q    Type
REMARK                         _______ _______ _______ _____ _____    ______ ____
ROOT
ATOM      1  C   LIG    1        0.044   0.217   4.752  0.00  0.00    +0.140 A 
ATOM      2  N   LIG    1       -1.012   0.702   5.353  0.00  0.00    -0.210 NA
ATOM      3  N   LIG    1       -0.660   1.506   6.294  0.00  0.00    -0.250 NA
ATOM      4  C   LIG    1        0.660   1.577   6.343  0.00  0.00    +0.210 A 
ATOM      5  C   LIG    1        1.563   2.287   7.159  0.00  0.00    +0.010 A 
ATOM      6  C   LIG    1        2.901   2.141   6.952  0.00  0.00    +0.120 A 
ATOM      7  C   LIG    1        3.360   1.290   5.933  0.00  0.00    -0.190 A 
ATOM      8  C   LIG    1        2.483   0.617   5.159  0.00  0.00    +0.340 A 
ATOM      9 CL   LIG    1        0.977   3.334   8.413  0.00  0.00    +0.010 Cl
ATOM     10  N   LIG    1        1.140   0.747   5.359  0.00  0.00    -0.380 N 
ENDROOT
BRANCH   7  11
ATOM     11  C   LIG    1        4.841   1.128   5.702  0.00  0.00    +0.530 C 
ATOM     12  F   LIG    1        5.086  -0.109   5.096  0.00  0.00    -0.170 F 
ATOM     13  F   LIG    1        5.513   1.188   6.928  0.00  0.00    -0.160 F 
ATOM     14  F   LIG    1        5.298   2.154   4.869  0.00  0.00    -0.160 F 
ENDBRANCH   7  11
BRANCH   1  15
ATOM     15  C   LIG    1        0.046  -0.756   3.601  0.00  0.00    +0.440 C 
BRANCH  15  19
ATOM     16  C   LIG    1       -0.018   1.461   0.010  0.00  0.00    +0.280 C 
ATOM     17  N   LIG    1        0.002  -0.004   0.002  0.00  0.00    -0.630 N 
ATOM     18  C   LIG    1        0.022  -0.684   1.165  0.00  0.00    +0.710 C 
ATOM     19  N   LIG    1        0.024  -0.017   2.336  0.00  0.00    -0.750 N 
ATOM     20  H   LIG    1        0.011   0.953   2.342  0.00  0.00    +0.400 HD
ATOM     21  O   LIG    1        0.039  -1.900   1.159  0.00  0.00    -0.580 OA
BRANCH  17  22
ATOM     22  C   LIG    1       -0.000  -0.730  -1.271  0.00  0.00    +0.310 C 
BRANCH  22  23
ATOM     23  C   LIG    1        1.441  -0.963  -1.727  0.00  0.00    -0.030 C 
ATOM     24  C   LIG    1        2.106   0.383  -2.086  0.00  0.00    +0.000 C 
ATOM     25  C   LIG    1        2.997   0.051  -3.310  0.00  0.00    +0.010 C 
ATOM     26  C   LIG    1        2.131  -0.961  -4.100  0.00  0.00    +0.000 C 
ATOM     27  C   LIG    1        1.457  -1.817  -3.007  0.00  0.00    +0.020 C 
ENDBRANCH  22  23
ENDBRANCH  17  22
ENDBRANCH  15  19
ENDBRANCH   1  15
TORSDOF 5
