REMARK  Name = ZINCnE00000hdauU.0
REMARK                            x       y       z     vdW  Elec       q    Type
REMARK                         _______ _______ _______ _____ _____    ______ ____
ROOT
ATOM      1  C   LIG    1       -2.012  -0.261  -2.465  0.00  0.00    +0.530 C 
ATOM      2  N   LIG    1       -2.085  -1.095  -3.521  0.00  0.00    -0.720 N 
ATOM      3  H   LIG    1       -2.822  -1.722  -3.593  0.00  0.00    +0.390 HD
ATOM      4  O   LIG    1       -1.045   0.459  -2.327  0.00  0.00    -0.510 OA
ENDROOT
BRANCH   1   7
ATOM      5  C   LIG    1       -2.988   0.746  -0.280  0.00  0.00    +0.040 C 
ATOM      6  C   LIG    1       -2.836  -0.760  -0.054  0.00  0.00    +0.060 C 
ATOM      7  C   LIG    1       -3.131  -0.223  -1.456  0.00  0.00    -0.060 C 
BRANCH   5  14
ATOM      8  C   LIG    1       -3.186   3.628  -0.308  0.00  0.00    +0.080 C 
ATOM      9  C   LIG    1       -1.834   2.967  -0.233  0.00  0.00    -0.080 A 
ATOM     10  C   LIG    1       -0.689   3.739  -0.181  0.00  0.00    -0.020 A 
ATOM     11  C   LIG    1        0.551   3.132  -0.113  0.00  0.00    -0.010 A 
ATOM     12  C   LIG    1        0.646   1.753  -0.095  0.00  0.00    -0.010 A 
ATOM     13  C   LIG    1       -0.500   0.981  -0.145  0.00  0.00    +0.060 A 
ATOM     14  C   LIG    1       -1.739   1.587  -0.219  0.00  0.00    -0.050 A 
ENDBRANCH   5  14
ENDBRANCH   1   7
BRANCH   2  15
ATOM     15  C   LIG    1       -1.053  -1.055  -4.559  0.00  0.00    +0.350 C 
BRANCH  15  16
ATOM     16  C   LIG    1       -1.607  -1.622  -5.841  0.00  0.00    -0.150 A 
ATOM     17  C   LIG    1       -1.377  -1.134  -7.061  0.00  0.00    +0.050 A 
ATOM     18  C   LIG    1       -1.991  -1.825  -8.091  0.00  0.00    +0.010 A 
ATOM     19  C   LIG    1       -2.728  -2.869  -7.707  0.00  0.00    -0.060 A 
ATOM     20  S   LIG    1       -2.662  -3.025  -5.956  0.00  0.00    +0.050 S 
ENDBRANCH  15  16
BRANCH  15  21
ATOM     21  C   LIG    1        0.152  -1.886  -4.113  0.00  0.00    -0.060 C 
BRANCH  21  22
ATOM     22  C   LIG    1        1.274  -1.718  -5.106  0.00  0.00    +0.500 C 
ATOM     23  O   LIG    1        2.286  -2.388  -5.000  0.00  0.00    -0.700 OA
ATOM     24  O   LIG    1        1.168  -0.911  -6.014  0.00  0.00    -0.690 OA
ENDBRANCH  21  22
ENDBRANCH  15  21
ENDBRANCH   2  15
TORSDOF 6
