REMARK  Name = ZINCrH00000tj0VS.0
REMARK                            x       y       z     vdW  Elec       q    Type
REMARK                         _______ _______ _______ _____ _____    ______ ____
ROOT
ATOM      1  N   LIG    1       -2.129  -1.489  -3.891  0.00  0.00    -0.530 NA
ATOM      2  C   LIG    1       -1.103  -1.082  -4.861  0.00  0.00    +0.170 C 
ATOM      3  C   LIG    1       -1.651  -1.240  -6.281  0.00  0.00    +0.020 C 
ATOM      4  C   LIG    1       -2.903  -0.372  -6.439  0.00  0.00    +0.010 C 
ATOM      5  C   LIG    1       -3.936  -0.784  -5.387  0.00  0.00    +0.050 C 
ATOM      6  C   LIG    1       -3.322  -0.639  -3.993  0.00  0.00    +0.240 C 
ENDROOT
BRANCH   6   7
ATOM      7  C   LIG    1       -4.329  -1.062  -2.954  0.00  0.00    +0.080 A 
ATOM      8  N   LIG    1       -4.681  -2.274  -2.745  0.00  0.00    -0.420 NA
ATOM      9  C   LIG    1       -5.591  -2.507  -1.780  0.00  0.00    +0.080 A 
ATOM     10  C   LIG    1       -6.147  -3.726  -1.343  0.00  0.00    +0.090 A 
ATOM     11  C   LIG    1       -7.070  -3.743  -0.341  0.00  0.00    +0.030 A 
ATOM     12  C   LIG    1       -7.480  -2.565   0.267  0.00  0.00    +0.040 A 
ATOM     13  C   LIG    1       -6.953  -1.360  -0.140  0.00  0.00    +0.050 A 
ATOM     14  C   LIG    1       -6.009  -1.323  -1.163  0.00  0.00    -0.180 A 
ATOM     15  S   LIG    1       -5.147   0.016  -1.915  0.00  0.00    +0.090 S 
ENDBRANCH   6   7
BRANCH   1  16
ATOM     16  C   LIG    1       -1.592  -1.482  -2.524  0.00  0.00    +0.440 C 
BRANCH  16  27
ATOM     17  O   LIG    1        1.280  -1.122  -2.448  0.00  0.00    -0.470 OA
ATOM     18  C   LIG    1        0.771  -2.222  -2.459  0.00  0.00    +0.540 C 
ATOM     19  C   LIG    1        1.481  -3.543  -2.540  0.00  0.00    +0.000 C 
ATOM     20  C   LIG    1        2.886  -3.587  -2.035  0.00  0.00    +0.100 C 
ATOM     21  C   LIG    1        2.988  -3.827  -0.562  0.00  0.00    -0.030 C 
ATOM     22  C   LIG    1        1.987  -4.186   0.166  0.00  0.00    -0.050 C 
ATOM     23  C   LIG    1        0.592  -4.365  -0.325  0.00  0.00    +0.080 C 
ATOM     24  C   LIG    1        0.501  -4.503  -1.847  0.00  0.00    +0.040 C 
ATOM     25  C   LIG    1       -0.820  -3.812  -2.225  0.00  0.00    +0.530 C 
ATOM     26  O   LIG    1       -1.903  -4.345  -2.342  0.00  0.00    -0.440 OA
ATOM     27  N   LIG    1       -0.550  -2.505  -2.403  0.00  0.00    -0.580 N 
ENDBRANCH  16  27
ENDBRANCH   1  16
TORSDOF 3
