REMARK  Name = ZINCtV00000L6k3C.0
REMARK                            x       y       z     vdW  Elec       q    Type
REMARK                         _______ _______ _______ _____ _____    ______ ____
ROOT
ATOM      1  C   LIG    1        2.387   5.440  -0.106  0.00  0.00    +0.210 C 
ENDROOT
BRANCH   1   2
ATOM      2  C   LIG    1        2.204   6.037   1.266  0.00  0.00    -0.120 A 
ATOM      3  C   LIG    1        3.308   6.336   2.042  0.00  0.00    +0.050 A 
ATOM      4  C   LIG    1        3.139   6.889   3.298  0.00  0.00    +0.010 A 
ATOM      5  C   LIG    1        1.868   7.132   3.782  0.00  0.00    -0.070 A 
ATOM      6  C   LIG    1        0.764   6.828   3.007  0.00  0.00    +0.010 A 
ATOM      7  C   LIG    1        1.684   7.728   5.154  0.00  0.00    +0.090 C 
ATOM      8  C   LIG    1        0.932   6.280   1.749  0.00  0.00    +0.040 A 
ENDBRANCH   1   2
BRANCH   1   9
ATOM      9  C   LIG    1        2.662   3.964   0.022  0.00  0.00    +0.410 C 
ATOM     10  O   LIG    1        3.799   3.550  -0.059  0.00  0.00    -0.420 OA
BRANCH   9  15
ATOM     11  C   LIG    1       -1.677   0.293   0.883  0.00  0.00    +0.100 C 
ATOM     12  C   LIG    1       -0.540   1.256   0.660  0.00  0.00    -0.050 A 
ATOM     13  C   LIG    1        0.766   0.798   0.694  0.00  0.00    +0.000 A 
ATOM     14  C   LIG    1        1.812   1.672   0.486  0.00  0.00    +0.090 A 
ATOM     15  C   LIG    1        1.552   3.025   0.245  0.00  0.00    -0.170 A 
ATOM     16  C   LIG    1        0.230   3.480   0.217  0.00  0.00    +0.060 A 
ATOM     17  C   LIG    1       -0.806   2.594   0.428  0.00  0.00    +0.000 A 
ENDBRANCH   9  15
ENDBRANCH   1   9
BRANCH   1  18
ATOM     18  O   LIG    1        3.506   6.085  -0.769  0.00  0.00    -0.300 OA
BRANCH  18  19
ATOM     19  C   LIG    1        3.232   7.179  -1.506  0.00  0.00    +0.520 C 
ATOM     20  O   LIG    1        2.089   7.582  -1.592  0.00  0.00    -0.460 OA
BRANCH  19  21
ATOM     21  C   LIG    1        4.322   7.889  -2.210  0.00  0.00    +0.120 A 
ATOM     22  N   LIG    1        5.569   7.443  -2.112  0.00  0.00    -0.390 NA
ATOM     23  C   LIG    1        6.567   8.043  -2.722  0.00  0.00    +0.330 A 
ATOM     24  C   LIG    1        6.353   9.174  -3.496  0.00  0.00    -0.050 A 
ATOM     25  C   LIG    1        5.065   9.675  -3.627  0.00  0.00    -0.000 A 
ATOM     26 CL   LIG    1        4.755  11.089  -4.586  0.00  0.00    +0.010 Cl
ATOM     27 CL   LIG    1        7.683   9.954  -4.294  0.00  0.00    -0.000 Cl
ATOM     28  C   LIG    1        4.030   9.017  -2.977  0.00  0.00    -0.020 A 
ATOM     29 CL   LIG    1        2.398   9.595  -3.109  0.00  0.00    +0.030 Cl
ENDBRANCH  19  21
ENDBRANCH  18  19
ENDBRANCH   1  18
TORSDOF 6
