REMARK  Name = ZINCpk00000y6vAq.0
REMARK                            x       y       z     vdW  Elec       q    Type
REMARK                         _______ _______ _______ _____ _____    ______ ____
ROOT
ATOM      1  C   LIG    1        1.614   3.294  -0.065  0.00  0.00    +0.340 C 
ATOM      2  C   LIG    1        1.540   3.745  -1.527  0.00  0.00    +0.020 C 
ATOM      3  C   LIG    1        1.733   5.262  -1.599  0.00  0.00    -0.010 C 
ATOM      4  C   LIG    1        0.614   5.958  -0.822  0.00  0.00    +0.020 C 
ATOM      5  C   LIG    1        0.677   5.532   0.649  0.00  0.00    +0.280 C 
ATOM      6  C   LIG    1        1.694   5.712  -3.061  0.00  0.00    +0.030 C 
ATOM      7  N   LIG    1        0.638   4.065   0.718  0.00  0.00    -0.600 N 
ATOM      8  C   LIG    1       -0.276   3.438   1.485  0.00  0.00    +0.570 C 
ATOM      9  O   LIG    1       -0.251   2.227   1.593  0.00  0.00    -0.470 OA
ENDROOT
BRANCH   8  10
ATOM     10  C   LIG    1       -1.305   4.219   2.192  0.00  0.00    +0.010 A 
ATOM     11  C   LIG    1       -1.071   4.689   3.454  0.00  0.00    +0.110 A 
ATOM     12  C   LIG    1       -2.133   5.472   4.116  0.00  0.00    +0.560 A 
ATOM     13  N   LIG    1       -3.292   5.681   3.458  0.00  0.00    -0.650 N 
ATOM     14  H   LIG    1       -4.000   6.190   3.883  0.00  0.00    +0.440 HD
ATOM     15  C   LIG    1       -3.475   5.192   2.220  0.00  0.00    +0.700 A 
ATOM     16  O   LIG    1       -4.531   5.399   1.654  0.00  0.00    -0.540 OA
ATOM     17  O   LIG    1       -1.969   5.915   5.236  0.00  0.00    -0.490 OA
ATOM     18  N   LIG    1       -2.526   4.482   1.588  0.00  0.00    -0.610 N 
ATOM     19  H   LIG    1       -2.697   4.147   0.694  0.00  0.00    +0.440 HD
BRANCH  11  20
ATOM     20  N   LIG    1        0.136   4.443   4.093  0.00  0.00    -0.830 N 
ATOM     21  H   LIG    1        0.321   4.851   4.954  0.00  0.00    +0.420 HD
ATOM     22  H   LIG    1        0.794   3.862   3.680  0.00  0.00    +0.410 HD
ENDBRANCH  11  20
ENDBRANCH   8  10
BRANCH   1  26
ATOM     23  C   LIG    1        0.176  -0.062  -0.058  0.00  0.00    +0.010 A 
ATOM     24  C   LIG    1        1.423  -0.363   0.347  0.00  0.00    -0.070 A 
ATOM     25  C   LIG    1        2.140   0.854   0.402  0.00  0.00    -0.060 A 
ATOM     26  C   LIG    1        1.289   1.825   0.027  0.00  0.00    +0.010 A 
ATOM     27  O   LIG    1        0.101   1.265  -0.250  0.00  0.00    -0.150 OA
BRANCH  23  29
ATOM     28  C   LIG    1       -1.730  -1.204   1.043  0.00  0.00    +0.030 C 
ATOM     29  C   LIG    1       -0.947  -1.047  -0.262  0.00  0.00    +0.130 C 
ENDBRANCH  23  29
ENDBRANCH   1  26
TORSDOF 4
