REMARK  Name = ZINCrg000000to6K.0
REMARK                            x       y       z     vdW  Elec       q    Type
REMARK                         _______ _______ _______ _____ _____    ______ ____
ROOT
ATOM      1  O   LIG    1       -3.632  -2.095   0.025  0.00  0.00    -0.530 OA
ATOM      2  C   LIG    1       -2.571  -2.688   0.012  0.00  0.00    +0.560 C 
ATOM      3  N   LIG    1       -1.413  -1.998   0.005  0.00  0.00    -0.720 N 
ATOM      4  H   LIG    1       -0.567  -2.472  -0.006  0.00  0.00    +0.400 HD
ENDROOT
BRANCH   2   5
ATOM      5  C   LIG    1       -2.551  -4.167   0.004  0.00  0.00    -0.130 A 
ATOM      6  C   LIG    1       -1.335  -4.851  -0.017  0.00  0.00    +0.040 A 
ATOM      7  C   LIG    1       -1.323  -6.230  -0.020  0.00  0.00    +0.040 A 
ATOM      8  C   LIG    1       -2.514  -6.935  -0.013  0.00  0.00    -0.090 A 
ATOM      9  C   LIG    1       -3.723  -6.263   0.004  0.00  0.00    +0.040 A 
ATOM     10  C   LIG    1       -3.749  -4.884   0.012  0.00  0.00    +0.080 A 
BRANCH   8  11
ATOM     11  C   LIG    1       -2.493  -8.442  -0.021  0.00  0.00    +0.360 C 
BRANCH  11  12
ATOM     12  N   LIG    1       -2.501  -8.923  -1.405  0.00  0.00    -0.570 N 
ATOM     13  C   LIG    1       -3.630  -9.181  -2.077  0.00  0.00    +0.530 C 
ATOM     14  C   LIG    1       -3.283  -9.653  -3.472  0.00  0.00    +0.080 C 
ATOM     15  C   LIG    1       -1.741  -9.632  -3.487  0.00  0.00    +0.080 C 
ATOM     16  O   LIG    1       -4.753  -9.054  -1.637  0.00  0.00    -0.480 OA
ATOM     17  C   LIG    1       -1.379  -9.145  -2.101  0.00  0.00    +0.530 C 
ATOM     18  O   LIG    1       -0.251  -8.981  -1.687  0.00  0.00    -0.480 OA
ENDBRANCH  11  12
ENDBRANCH   8  11
ENDBRANCH   2   5
BRANCH   3  19
ATOM     19  C   LIG    1       -1.433  -0.534   0.013  0.00  0.00    +0.270 C 
BRANCH  19  20
ATOM     20  C   LIG    1        0.002  -0.004   0.002  0.00  0.00    +0.270 C 
BRANCH  20  21
ATOM     21  N   LIG    1       -0.018   1.461   0.010  0.00  0.00    -0.720 N 
ATOM     22  H   LIG    1       -0.864   1.934   0.017  0.00  0.00    +0.410 HD
ATOM     23  C   LIG    1        1.140   2.151   0.003  0.00  0.00    +0.610 C 
ATOM     24  O   LIG    1        2.202   1.556  -0.011  0.00  0.00    -0.520 OA
BRANCH  23  25
ATOM     25  C   LIG    1        1.120   3.617   0.011  0.00  0.00    -0.090 A 
ATOM     26  C   LIG    1        2.214   4.434   0.010  0.00  0.00    +0.050 A 
ATOM     27  C   LIG    1        1.733   5.753   0.018  0.00  0.00    -0.070 A 
ATOM     28  C   LIG    1        0.383   5.683   0.030  0.00  0.00    +0.210 A 
ATOM     29  O   LIG    1        0.018   4.395   0.026  0.00  0.00    -0.170 OA
ENDBRANCH  23  25
ENDBRANCH  20  21
ENDBRANCH  19  20
ENDBRANCH   3  19
TORSDOF 7
