REMARK  Name = ZINCvU0000000J8u.0
REMARK                            x       y       z     vdW  Elec       q    Type
REMARK                         _______ _______ _______ _____ _____    ______ ____
ROOT
ATOM      1  C   LIG    1        7.825  -1.246  -3.014  0.00  0.00    -0.160 A 
ATOM      2  C   LIG    1        7.396  -2.054  -4.076  0.00  0.00    +0.100 A 
ATOM      3  C   LIG    1        8.296  -2.567  -4.961  0.00  0.00    +0.020 A 
ATOM      4  C   LIG    1        9.655  -2.301  -4.810  0.00  0.00    +0.110 A 
ATOM      5  C   LIG    1       10.105  -1.496  -3.747  0.00  0.00    -0.030 A 
ATOM      6  N   LIG    1       11.453  -1.406  -3.844  0.00  0.00    -0.210 NA
ATOM      7  N   LIG    1       11.869  -2.076  -4.860  0.00  0.00    +0.000 NA
ATOM      8  N   LIG    1       10.777  -2.665  -5.513  0.00  0.00    -0.390 N 
ATOM      9  C   LIG    1        9.176  -0.969  -2.846  0.00  0.00    +0.190 A 
ENDROOT
BRANCH   1  12
ATOM     10  N   LIG    1        5.526  -0.958  -2.226  0.00  0.00    -0.730 N 
ATOM     11  H   LIG    1        5.231  -1.514  -2.964  0.00  0.00    +0.400 HD
ATOM     12  C   LIG    1        6.837  -0.691  -2.066  0.00  0.00    +0.560 C 
ATOM     13  O   LIG    1        7.207   0.006  -1.141  0.00  0.00    -0.530 OA
BRANCH  10  14
ATOM     14  C   LIG    1        4.546  -0.408  -1.286  0.00  0.00    +0.260 C 
BRANCH  14  15
ATOM     15  C   LIG    1        3.142  -0.859  -1.691  0.00  0.00    +0.010 C 
BRANCH  15  19
ATOM     16  C   LIG    1        1.615   1.823   1.546  0.00  0.00    +0.010 C 
ATOM     17  C   LIG    1        1.078   1.848   0.115  0.00  0.00    -0.030 C 
ATOM     18  C   LIG    1        2.086   1.237  -0.847  0.00  0.00    +0.020 C 
ATOM     19  C   LIG    1        2.116  -0.284  -0.706  0.00  0.00    +0.000 C 
ATOM     20  C   LIG    1        0.733  -0.838  -1.042  0.00  0.00    +0.020 C 
ATOM     21  C   LIG    1       -0.316  -0.301  -0.075  0.00  0.00    -0.060 C 
ATOM     22  C   LIG    1       -1.703  -0.728  -0.602  0.00  0.00    +0.000 C 
ATOM     23  C   LIG    1       -0.133  -0.941   1.304  0.00  0.00    +0.020 C 
ATOM     24  C   LIG    1       -0.295   1.214   0.020  0.00  0.00    +0.020 C 
ENDBRANCH  15  19
ENDBRANCH  14  15
ENDBRANCH  10  14
ENDBRANCH   1  12
BRANCH   8  25
ATOM     25  C   LIG    1       10.824  -3.507  -6.710  0.00  0.00    +0.350 C 
BRANCH  25  26
ATOM     26  C   LIG    1       10.702  -2.628  -7.957  0.00  0.00    +0.070 C 
BRANCH  26  27
ATOM     27  C   LIG    1       10.750  -3.494  -9.189  0.00  0.00    -0.090 A 
ATOM     28  C   LIG    1       11.963  -3.770  -9.792  0.00  0.00    +0.010 A 
ATOM     29  C   LIG    1       12.008  -4.569 -10.920  0.00  0.00    +0.000 A 
ATOM     30  C   LIG    1       10.839  -5.082 -11.451  0.00  0.00    +0.000 A 
ATOM     31  C   LIG    1        9.626  -4.801 -10.850  0.00  0.00    +0.000 A 
ATOM     32  C   LIG    1        9.582  -4.007  -9.720  0.00  0.00    +0.010 A 
ENDBRANCH  26  27
ENDBRANCH  25  26
ENDBRANCH   8  25
TORSDOF 7
