REMARK  Name = ZINC9p0000002o1i.0
REMARK                            x       y       z     vdW  Elec       q    Type
REMARK                         _______ _______ _______ _____ _____    ______ ____
ROOT
ATOM      1  C   LIG    1       -1.490   3.616   0.036  0.00  0.00    +0.000 C 
ATOM      2  C   LIG    1       -0.750   3.109   1.275  0.00  0.00    +0.020 C 
ATOM      3  C   LIG    1       -0.729   1.579   1.267  0.00  0.00    +0.040 C 
ATOM      4  C   LIG    1       -0.013   1.086   0.008  0.00  0.00    +0.040 C 
ATOM      5  C   LIG    1       -0.753   1.593  -1.232  0.00  0.00    +0.170 C 
ATOM      6  C   LIG    1       -0.773   3.123  -1.223  0.00  0.00    +0.040 C 
ENDROOT
BRANCH   5   7
ATOM      7  N   LIG    1       -0.065   1.119  -2.440  0.00  0.00    -0.640 N 
ATOM      8  H   LIG    1        0.881   1.468  -2.447  0.00  0.00    +0.430 HD
ATOM      9  H   LIG    1       -0.553   1.453  -3.258  0.00  0.00    +0.440 HD
ATOM     10  H   LIG    1       -0.051   0.110  -2.446  0.00  0.00    +0.440 HD
ENDBRANCH   5   7
BRANCH   1  12
ATOM     11  C   LIG    1       -2.333   5.638   1.236  0.00  0.00    +0.020 C 
ATOM     12  C   LIG    1       -1.510   5.146   0.044  0.00  0.00    +0.020 C 
ENDBRANCH   1  12
TORSDOF 2
