REMARK  Name = ZINCpe000000Y3ld.0
REMARK                            x       y       z     vdW  Elec       q    Type
REMARK                         _______ _______ _______ _____ _____    ______ ____
ROOT
ATOM      1  C   LIG    1        6.134  -0.494  -0.062  0.00  0.00    +0.330 C 
ENDROOT
BRANCH   1  13
ATOM      2  C   LIG    1        5.963   2.301  -0.045  0.00  0.00    +0.170 C 
ATOM      3  C   LIG    1        4.698   1.481  -0.036  0.00  0.00    +0.410 A 
ATOM      4  N   LIG    1        3.559   2.106  -0.021  0.00  0.00    -0.520 NA
ATOM      5  C   LIG    1        2.380   1.435  -0.013  0.00  0.00    +0.160 A 
ATOM      6  C   LIG    1        1.156   2.106   0.002  0.00  0.00    +0.030 A 
ATOM      7  C   LIG    1       -0.017   1.384   0.010  0.00  0.00    +0.070 A 
ATOM      8  C   LIG    1        0.002  -0.004   0.002  0.00  0.00    -0.010 A 
ATOM      9  C   LIG    1        1.198  -0.689  -0.014  0.00  0.00    +0.100 A 
ATOM     10  C   LIG    1        2.396   0.022  -0.021  0.00  0.00    -0.200 A 
ATOM     11  C   LIG    1        3.701  -0.653  -0.038  0.00  0.00    +0.560 A 
ATOM     12  O   LIG    1        3.785  -1.868  -0.046  0.00  0.00    -0.510 OA
ATOM     13  N   LIG    1        4.807   0.127  -0.045  0.00  0.00    -0.530 N 
ENDBRANCH   1  13
BRANCH   1  14
ATOM     14  C   LIG    1        6.603  -0.715   1.353  0.00  0.00    +0.510 C 
ATOM     15  N   LIG    1        7.805  -1.278   1.585  0.00  0.00    -0.710 N 
ATOM     16  H   LIG    1        8.369  -1.541   0.840  0.00  0.00    +0.410 HD
ATOM     17  O   LIG    1        5.898  -0.386   2.284  0.00  0.00    -0.520 OA
BRANCH  15  18
ATOM     18  C   LIG    1        8.261  -1.492   2.960  0.00  0.00    +0.270 C 
ATOM     19  C   LIG    1        7.277  -2.412   3.686  0.00  0.00    +0.060 C 
ATOM     20  C   LIG    1        8.336  -0.149   3.688  0.00  0.00    +0.060 C 
BRANCH  18  21
ATOM     21  C   LIG    1        9.626  -2.131   2.943  0.00  0.00    -0.030 A 
ATOM     22  C   LIG    1       10.372  -2.476   4.019  0.00  0.00    +0.160 A 
ATOM     23  N   LIG    1       11.513  -3.015   3.529  0.00  0.00    -0.290 N 
ATOM     24  N   LIG    1       11.453  -2.985   2.243  0.00  0.00    -0.080 NA
ATOM     25  C   LIG    1       12.626  -3.537   4.325  0.00  0.00    +0.370 C 
ATOM     26  N   LIG    1       10.341  -2.464   1.863  0.00  0.00    -0.270 NA
ENDBRANCH  18  21
ENDBRANCH  15  18
ENDBRANCH   1  14
TORSDOF 4
