REMARK  Name = ZINCrD000000Bg1o.0
REMARK                            x       y       z     vdW  Elec       q    Type
REMARK                         _______ _______ _______ _____ _____    ______ ____
ROOT
ATOM      1  O   LIG    1        4.716   1.564  -0.034  0.00  0.00    -0.530 OA
ATOM      2  C   LIG    1        3.657   2.160  -0.021  0.00  0.00    +0.560 C 
ATOM      3  N   LIG    1        3.642   3.508  -0.013  0.00  0.00    -0.720 N 
ATOM      4  H   LIG    1        2.797   3.984  -0.002  0.00  0.00    +0.410 HD
ENDROOT
BRANCH   2   5
ATOM      5  C   LIG    1        2.385   1.407  -0.013  0.00  0.00    -0.140 A 
ATOM      6  C   LIG    1        1.167   2.088   0.002  0.00  0.00    +0.050 A 
ATOM      7  C   LIG    1       -0.017   1.379   0.010  0.00  0.00    +0.000 A 
ATOM      8  C   LIG    1        0.002  -0.004   0.002  0.00  0.00    +0.080 A 
ATOM      9  C   LIG    1        1.206  -0.686  -0.014  0.00  0.00    -0.120 A 
ATOM     10  C   LIG    1        2.397   0.011  -0.021  0.00  0.00    +0.110 A 
BRANCH   9  11
ATOM     11  C   LIG    1        1.217  -2.193  -0.023  0.00  0.00    +0.380 C 
ATOM     12  O   LIG    1        1.864  -2.664  -1.217  0.00  0.00    -0.370 OA
ATOM     13  C   LIG    1        1.140  -3.860  -1.585  0.00  0.00    +0.210 C 
ATOM     14  C   LIG    1       -0.310  -3.481  -1.194  0.00  0.00    +0.200 C 
ATOM     15  O   LIG    1       -0.130  -2.684  -0.006  0.00  0.00    -0.380 OA
ENDBRANCH   9  11
ENDBRANCH   2   5
BRANCH   3  16
ATOM     16  C   LIG    1        4.903   4.254  -0.021  0.00  0.00    +0.250 C 
BRANCH  16  17
ATOM     17  C   LIG    1        4.606   5.755  -0.009  0.00  0.00    +0.260 C 
BRANCH  17  18
ATOM     18  C   LIG    1        5.903   6.523  -0.017  0.00  0.00    -0.120 A 
ATOM     19  C   LIG    1        6.436   6.952   1.160  0.00  0.00    +0.040 A 
ATOM     20  C   LIG    1        7.647   7.663   1.157  0.00  0.00    -0.050 A 
ATOM     21  C   LIG    1        8.230   8.117   2.352  0.00  0.00    +0.020 A 
ATOM     22  C   LIG    1        9.402   8.809   2.310  0.00  0.00    +0.010 A 
ATOM     23  C   LIG    1       10.035   9.074   1.097  0.00  0.00    +0.010 A 
ATOM     24  C   LIG    1        9.500   8.650  -0.081  0.00  0.00    +0.020 A 
ATOM     25  C   LIG    1        8.291   7.934  -0.077  0.00  0.00    -0.050 A 
ATOM     26  C   LIG    1        7.708   7.480  -1.272  0.00  0.00    +0.030 A 
ATOM     27  C   LIG    1        6.536   6.789  -1.230  0.00  0.00    +0.010 A 
ENDBRANCH  17  18
BRANCH  17  28
ATOM     28  O   LIG    1        3.842   6.099  -1.167  0.00  0.00    -0.550 OA
ATOM     29  H   LIG    1        4.286   5.902  -2.004  0.00  0.00    +0.380 HD
ENDBRANCH  17  28
ENDBRANCH  16  17
ENDBRANCH   3  16
TORSDOF 6
