REMARK  Name = ZINCrD000000AC4I.0
REMARK                            x       y       z     vdW  Elec       q    Type
REMARK                         _______ _______ _______ _____ _____    ______ ____
ROOT
ATOM      1  O   LIG    1        5.325   2.478   1.887  0.00  0.00    -0.510 OA
ATOM      2  C   LIG    1        6.234   2.732   1.125  0.00  0.00    +0.520 C 
ATOM      3  N   LIG    1        7.446   2.175   1.313  0.00  0.00    -0.620 N 
ATOM      4  C   LIG    1        8.563   2.463   0.399  0.00  0.00    +0.250 C 
ATOM      5  C   LIG    1        9.779   2.876   1.244  0.00  0.00    +0.220 C 
ATOM      6  O   LIG    1       10.017   1.880   2.241  0.00  0.00    -0.370 OA
ATOM      7  C   LIG    1        8.949   1.723   3.178  0.00  0.00    +0.200 C 
ATOM      8  C   LIG    1        7.691   1.256   2.436  0.00  0.00    +0.280 C 
ENDROOT
BRANCH   7   9
ATOM      9  C   LIG    1        9.333   0.696   4.212  0.00  0.00    -0.080 A 
ATOM     10  C   LIG    1       10.268  -0.275   3.908  0.00  0.00    +0.060 A 
ATOM     11  C   LIG    1       10.625  -1.213   4.859  0.00  0.00    +0.010 A 
ATOM     12  C   LIG    1       10.038  -1.188   6.110  0.00  0.00    +0.030 A 
ATOM     13  C   LIG    1        9.099  -0.220   6.414  0.00  0.00    +0.030 A 
ATOM     14  C   LIG    1        8.746   0.723   5.465  0.00  0.00    -0.030 A 
ATOM     15 CL   LIG    1        7.566   1.938   5.845  0.00  0.00    -0.060 Cl
ENDBRANCH   7   9
BRANCH   2  16
ATOM     16  C   LIG    1        6.007   3.671  -0.032  0.00  0.00    +0.150 C 
BRANCH  16  17
ATOM     17  C   LIG    1        4.579   4.151  -0.017  0.00  0.00    +0.080 A 
ATOM     18  C   LIG    1        4.266   5.453  -0.007  0.00  0.00    -0.040 A 
ATOM     19  S   LIG    1        2.510   5.597   0.008  0.00  0.00    +0.120 S 
ATOM     20  C   LIG    1        2.371   3.841   0.000  0.00  0.00    +0.100 A 
ATOM     21  N   LIG    1        3.564   3.320  -0.008  0.00  0.00    -0.400 NA
BRANCH  20  22
ATOM     22  C   LIG    1        1.103   3.081   0.008  0.00  0.00    +0.150 A 
ATOM     23  C   LIG    1       -0.119   3.756   0.022  0.00  0.00    +0.240 A 
ATOM     24  N   LIG    1       -1.248   3.072   0.030  0.00  0.00    -0.430 NA
ATOM     25  C   LIG    1       -1.222   1.750   0.017  0.00  0.00    +0.240 A 
ATOM     26  C   LIG    1       -0.013   1.076   0.008  0.00  0.00    +0.240 A 
ATOM     27  N   LIG    1        1.122   1.750   0.001  0.00  0.00    -0.400 NA
ENDBRANCH  20  22
ENDBRANCH  16  17
ENDBRANCH   2  16
TORSDOF 4
