REMARK  Name = ZINCpk00000l2Xj2.0
REMARK                            x       y       z     vdW  Elec       q    Type
REMARK                         _______ _______ _______ _____ _____    ______ ____
ROOT
ATOM      1  O   LIG    1       -2.101   3.026  -3.367  0.00  0.00    -0.520 OA
ATOM      2  C   LIG    1       -2.040   3.718  -2.372  0.00  0.00    +0.510 C 
ATOM      3  N   LIG    1       -2.625   4.932  -2.358  0.00  0.00    -0.700 N 
ATOM      4  H   LIG    1       -2.576   5.485  -1.563  0.00  0.00    +0.410 HD
ENDROOT
BRANCH   2   5
ATOM      5  C   LIG    1       -1.315   3.224  -1.162  0.00  0.00    +0.510 C 
ATOM      6  N   LIG    1       -0.729   2.010  -1.176  0.00  0.00    -0.700 N 
ATOM      7  H   LIG    1       -0.778   1.457  -1.971  0.00  0.00    +0.410 HD
ATOM      8  O   LIG    1       -1.253   3.916  -0.167  0.00  0.00    -0.520 OA
BRANCH   6   9
ATOM      9  C   LIG    1       -0.019   1.526   0.010  0.00  0.00    +0.250 C 
ATOM     10  C   LIG    1        0.002  -0.004   0.002  0.00  0.00    +0.030 C 
ATOM     11  C   LIG    1        0.475  -0.523   1.366  0.00  0.00    +0.120 C 
ATOM     12  C   LIG    1        1.756   0.191   1.723  0.00  0.00    -0.240 A 
ATOM     13  C   LIG    1        2.669  -0.148   2.651  0.00  0.00    +0.250 A 
ATOM     14  N   LIG    1        3.650   0.781   2.618  0.00  0.00    -0.480 N 
ATOM     15  H   LIG    1        4.442   0.795   3.178  0.00  0.00    +0.440 HD
ATOM     16  N   LIG    1        3.321   1.724   1.632  0.00  0.00    -0.280 NA
ATOM     17  C   LIG    1        2.188   1.372   1.098  0.00  0.00    +0.090 A 
ATOM     18  C   LIG    1        1.418   2.064  -0.000  0.00  0.00    +0.130 C 
ENDBRANCH   6   9
ENDBRANCH   2   5
BRANCH   3  19
ATOM     19  C   LIG    1       -3.336   5.416  -3.544  0.00  0.00    +0.290 C 
BRANCH  19  20
ATOM     20  C   LIG    1       -3.903   6.809  -3.266  0.00  0.00    -0.020 C 
ATOM     21  C   LIG    1       -5.281   6.788  -2.582  0.00  0.00    +0.070 C 
ATOM     22  C   LIG    1       -5.662   7.954  -3.504  0.00  0.00    -0.140 C 
ATOM     23  C   LIG    1       -7.053   8.498  -3.817  0.00  0.00    +0.060 C 
ATOM     24  C   LIG    1       -6.015   9.385  -3.135  0.00  0.00    -0.130 C 
ATOM     25  C   LIG    1       -5.396  10.691  -3.646  0.00  0.00    +0.050 C 
ATOM     26  C   LIG    1       -6.109  11.389  -2.474  0.00  0.00    +0.010 C 
ATOM     27  C   LIG    1       -6.082  10.033  -1.747  0.00  0.00    +0.050 C 
ATOM     28  C   LIG    1       -4.597   7.446  -4.482  0.00  0.00    +0.070 C 
ENDBRANCH  19  20
ENDBRANCH   3  19
TORSDOF 4
