REMARK  Name = ZINCpk00000xR28R.0
REMARK                            x       y       z     vdW  Elec       q    Type
REMARK                         _______ _______ _______ _____ _____    ______ ____
ROOT
ATOM      1  N   LIG    1        0.026  -0.644   5.362  0.00  0.00    -1.100 NA
ATOM      2  H   LIG    1        0.398   0.168   5.742  0.00  0.00    +0.420 HD
ENDROOT
BRANCH   1   9
ATOM      3  C   LIG    1        0.731  -0.503   1.223  0.00  0.00    +0.220 A 
ATOM      4  N   LIG    1        2.016  -0.745   1.296  0.00  0.00    -0.310 NA
ATOM      5  N   LIG    1        2.266  -1.185   2.598  0.00  0.00    -0.370 N 
ATOM      6  C   LIG    1        3.543  -1.583   3.192  0.00  0.00    +0.310 C 
ATOM      7  C   LIG    1        3.264  -2.385   4.468  0.00  0.00    +0.050 C 
ATOM      8  C   LIG    1        2.279  -1.614   5.351  0.00  0.00    +0.060 C 
ATOM      9  C   LIG    1        0.900  -1.600   4.679  0.00  0.00    +0.350 C 
ATOM     10  C   LIG    1        1.082  -1.186   3.239  0.00  0.00    +0.240 A 
ATOM     11  N   LIG    1        0.170  -0.776   2.403  0.00  0.00    -0.500 NA
BRANCH   3  13
ATOM     12  C   LIG    1       -0.019   1.526   0.010  0.00  0.00    +0.030 C 
ATOM     13  C   LIG    1        0.002  -0.004   0.002  0.00  0.00    +0.150 C 
ENDBRANCH   3  13
ENDBRANCH   1   9
BRANCH   1  14
ATOM     14  S   LIG    1       -1.597  -0.948   5.486  0.00  0.00    +2.700 S 
ATOM     15  O   LIG    1       -2.038  -1.311   4.185  0.00  0.00    -0.910 OA
ATOM     16  O   LIG    1       -2.153   0.134   6.221  0.00  0.00    -0.950 OA
BRANCH  14  17
ATOM     17  C   LIG    1       -1.784  -2.381   6.493  0.00  0.00    -0.780 A 
ATOM     18  C   LIG    1       -1.809  -3.642   5.918  0.00  0.00    +0.460 A 
ATOM     19  N   LIG    1       -1.942  -4.729   6.648  0.00  0.00    -0.480 NA
ATOM     20  C   LIG    1       -2.070  -4.672   7.965  0.00  0.00    +0.340 A 
ATOM     21  O   LIG    1       -2.222  -5.612   8.919  0.00  0.00    -0.080 OA
ATOM     22  N   LIG    1       -2.310  -4.990  10.184  0.00  0.00    -0.270 NA
ATOM     23  C   LIG    1       -2.218  -3.703  10.047  0.00  0.00    +0.150 A 
ATOM     24  C   LIG    1       -2.265  -2.681  11.154  0.00  0.00    +0.210 C 
ATOM     25  C   LIG    1       -2.059  -3.427   8.618  0.00  0.00    -0.270 A 
ATOM     26  C   LIG    1       -1.913  -2.259   7.864  0.00  0.00    +0.290 A 
ENDBRANCH  14  17
ENDBRANCH   1  14
TORSDOF 4
