REMARK  Name = ZINCrH000004pZkP.0
REMARK                            x       y       z     vdW  Elec       q    Type
REMARK                         _______ _______ _______ _____ _____    ______ ____
ROOT
ATOM      1  C   LIG    1       -1.355  -2.449  -2.322  0.00  0.00    +0.070 C 
ATOM      2  C   LIG    1       -2.049  -2.744  -0.990  0.00  0.00    -0.090 C 
ATOM      3  C   LIG    1       -3.447  -2.121  -0.994  0.00  0.00    +0.060 C 
ATOM      4  C   LIG    1       -3.334  -0.611  -1.218  0.00  0.00    +0.020 C 
ATOM      5  C   LIG    1       -2.529   0.012  -0.073  0.00  0.00    +0.270 C 
ATOM      6  N   LIG    1       -1.238  -0.681   0.030  0.00  0.00    -0.600 N 
ATOM      7  C   LIG    1       -0.082   0.012   0.008  0.00  0.00    +0.560 C 
ATOM      8  O   LIG    1        0.980  -0.578  -0.009  0.00  0.00    -0.530 OA
ATOM      9  C   LIG    1       -1.230  -2.146   0.152  0.00  0.00    +0.300 C 
ENDROOT
BRANCH   7  10
ATOM     10  C   LIG    1       -0.107   1.490   0.003  0.00  0.00    -0.130 A 
ATOM     11  C   LIG    1       -1.044   2.178   0.777  0.00  0.00    +0.040 A 
ATOM     12  C   LIG    1       -1.058   3.557   0.773  0.00  0.00    +0.000 A 
ATOM     13  C   LIG    1       -0.155   4.259  -0.005  0.00  0.00    +0.030 A 
ATOM     14  C   LIG    1        0.772   3.584  -0.779  0.00  0.00    +0.010 A 
ATOM     15  C   LIG    1        0.801   2.204  -0.779  0.00  0.00    +0.060 A 
ENDBRANCH   7  10
BRANCH   2  16
ATOM     16  C   LIG    1       -2.163  -4.235  -0.802  0.00  0.00    +0.530 C 
ATOM     17  N   LIG    1       -1.052  -4.997  -0.767  0.00  0.00    -0.660 N 
ATOM     18  H   LIG    1       -0.177  -4.579  -0.781  0.00  0.00    +0.420 HD
ATOM     19  O   LIG    1       -3.255  -4.749  -0.682  0.00  0.00    -0.510 OA
BRANCH  17  20
ATOM     20  C   LIG    1       -1.161  -6.390  -0.710  0.00  0.00    +0.210 A 
ATOM     21  C   LIG    1       -0.083  -7.163  -0.259  0.00  0.00    -0.010 A 
ATOM     22  N   LIG    1        1.168  -6.867   0.183  0.00  0.00    -0.480 NA
ATOM     23  C   LIG    1        1.778  -7.973   0.485  0.00  0.00    +0.490 A 
ATOM     24  O   LIG    1        0.974  -9.024   0.261  0.00  0.00    -0.210 OA
ATOM     25  C   LIG    1       -0.206  -8.559  -0.207  0.00  0.00    +0.040 A 
ATOM     26  C   LIG    1       -1.390  -9.164  -0.603  0.00  0.00    +0.020 A 
ATOM     27  C   LIG    1       -2.444  -8.393  -1.046  0.00  0.00    +0.090 A 
ATOM     28  C   LIG    1       -2.336  -7.013  -1.095  0.00  0.00    +0.020 A 
ENDBRANCH  17  20
ENDBRANCH   2  16
TORSDOF 3
