REMARK  Name = ZINCkj00000a7Lmy.0
REMARK                            x       y       z     vdW  Elec       q    Type
REMARK                         _______ _______ _______ _____ _____    ______ ____
ROOT
ATOM      1  C   LIG    1       -0.760  -6.451   0.287  0.00  0.00    -0.030 C 
ATOM      2  C   LIG    1        0.692  -6.509  -0.258  0.00  0.00    +0.070 C 
ATOM      3  C   LIG    1        1.160  -5.042  -0.155  0.00  0.00    +0.260 C 
ATOM      4  N   LIG    1       -0.045  -4.201  -0.120  0.00  0.00    -0.620 N 
ATOM      5  C   LIG    1       -0.062  -2.857  -0.012  0.00  0.00    +0.590 C 
ATOM      6  O   LIG    1       -1.121  -2.270   0.096  0.00  0.00    -0.520 OA
ATOM      7  C   LIG    1       -1.231  -5.069  -0.230  0.00  0.00    +0.260 C 
ENDROOT
BRANCH   5   8
ATOM      8  C   LIG    1        1.204  -2.100  -0.024  0.00  0.00    -0.190 A 
ATOM      9  C   LIG    1        2.180  -2.381  -0.978  0.00  0.00    +0.110 A 
ATOM     10  C   LIG    1        3.370  -1.675  -0.995  0.00  0.00    -0.020 A 
ATOM     11  C   LIG    1        3.611  -0.682  -0.069  0.00  0.00    +0.130 A 
ATOM     12  C   LIG    1        2.647  -0.382   0.899  0.00  0.00    -0.140 A 
ATOM     13  C   LIG    1        2.878   0.667   1.895  0.00  0.00    +0.130 A 
ATOM     14  C   LIG    1        1.908   0.915   2.810  0.00  0.00    -0.050 A 
ATOM     15  C   LIG    1        0.709   0.171   2.792  0.00  0.00    +0.530 A 
ATOM     16  O   LIG    1       -0.152   0.411   3.619  0.00  0.00    -0.520 OA
ATOM     17  N   LIG    1        0.492  -0.793   1.880  0.00  0.00    -0.630 N 
ATOM     18  H   LIG    1       -0.344  -1.285   1.896  0.00  0.00    +0.420 HD
ATOM     19  C   LIG    1        1.434  -1.092   0.927  0.00  0.00    +0.240 A 
ENDBRANCH   5   8
BRANCH   1  20
ATOM     20  C   LIG    1       -1.612  -7.577  -0.303  0.00  0.00    +0.290 C 
BRANCH  20  21
ATOM     21  N   LIG    1       -2.985  -7.471   0.209  0.00  0.00    -0.640 N 
ATOM     22  H   LIG    1       -2.975  -7.548   1.215  0.00  0.00    +0.440 HD
ATOM     23  H   LIG    1       -3.547  -8.214  -0.180  0.00  0.00    +0.440 HD
ATOM     24  H   LIG    1       -3.375  -6.580  -0.057  0.00  0.00    +0.440 HD
ENDBRANCH  20  21
ENDBRANCH   1  20
TORSDOF 3
