REMARK  Name = ZINCnE000001IdyY.0
REMARK                            x       y       z     vdW  Elec       q    Type
REMARK                         _______ _______ _______ _____ _____    ______ ____
ROOT
ATOM      1  C   LIG    1        1.147  -0.610  -0.012  0.00  0.00    -0.070 A 
ATOM      2  N   LIG    1        0.002  -0.004   0.002  0.00  0.00    -0.250 NA
ATOM      3  N   LIG    1       -0.017   1.373   0.010  0.00  0.00    -0.510 NA
ATOM      4  C   LIG    1        1.199   1.993   0.001  0.00  0.00    +0.340 A 
ATOM      5  N   LIG    1        1.442   3.282   0.005  0.00  0.00    -0.640 NA
ATOM      6  S   LIG    1        2.376   0.666  -0.017  0.00  0.00    -0.100 S 
ENDROOT
BRANCH   1   7
ATOM      7  S   LIG    1        1.425  -2.350  -0.025  0.00  0.00    -0.010 S 
BRANCH   7   8
ATOM      8  C   LIG    1       -0.256  -3.032  -0.012  0.00  0.00    +0.210 C 
BRANCH   8  11
ATOM      9  C   LIG    1       -0.102  -6.555  -0.655  0.00  0.00    +0.170 A 
ATOM     10  N   LIG    1       -0.167  -5.327  -1.110  0.00  0.00    -0.470 NA
ATOM     11  C   LIG    1       -0.187  -4.538  -0.021  0.00  0.00    +0.190 A 
ATOM     12  N   LIG    1       -0.142  -5.312   1.022  0.00  0.00    -0.370 NA
ATOM     13  O   LIG    1       -0.093  -6.474   0.679  0.00  0.00    +0.080 OA
BRANCH   9  15
ATOM     14  C   LIG    1        1.405  -8.177  -1.771  0.00  0.00    +0.060 C 
ATOM     15  C   LIG    1       -0.053  -7.816  -1.478  0.00  0.00    +0.180 C 
ENDBRANCH   9  15
ENDBRANCH   8  11
ENDBRANCH   7   8
ENDBRANCH   1   7
BRANCH   5  16
ATOM     16  C   LIG    1        0.331   4.237   0.021  0.00  0.00    +0.190 C 
BRANCH  16  17
ATOM     17  C   LIG    1        0.354   5.025   1.332  0.00  0.00    +0.050 C 
BRANCH  17  18
ATOM     18  C   LIG    1       -0.788   6.007   1.348  0.00  0.00    -0.060 A 
ATOM     19  C   LIG    1       -0.609   7.285   0.851  0.00  0.00    +0.000 A 
ATOM     20  C   LIG    1       -1.658   8.184   0.862  0.00  0.00    +0.000 A 
ATOM     21  C   LIG    1       -2.885   7.809   1.377  0.00  0.00    -0.020 A 
ATOM     22  C   LIG    1       -3.063   6.534   1.879  0.00  0.00    +0.000 A 
ATOM     23  C   LIG    1       -2.015   5.633   1.864  0.00  0.00    +0.000 A 
ENDBRANCH  17  18
ENDBRANCH  16  17
ENDBRANCH   5  16
TORSDOF 7
