REMARK  Name = ZINCvU0000000D7m.0
REMARK                            x       y       z     vdW  Elec       q    Type
REMARK                         _______ _______ _______ _____ _____    ______ ____
ROOT
ATOM      1  C   LIG    1        1.214  -3.894   2.787  0.00  0.00    +0.520 C 
ATOM      2  N   LIG    1        0.861  -5.064   2.218  0.00  0.00    -0.610 N 
ATOM      3  C   LIG    1       -0.269  -5.827   2.753  0.00  0.00    +0.280 C 
ATOM      4  O   LIG    1        2.149  -3.263   2.343  0.00  0.00    -0.530 OA
ENDROOT
BRANCH   1   5
ATOM      5  C   LIG    1        0.447  -3.372   3.974  0.00  0.00    +0.130 C 
BRANCH   5  11
ATOM      6  C   LIG    1        0.552   3.458   3.039  0.00  0.00    +0.090 C 
ATOM      7  C   LIG    1        0.617   1.983   3.341  0.00  0.00    -0.060 A 
ATOM      8  C   LIG    1       -0.176   1.100   2.623  0.00  0.00    -0.090 A 
ATOM      9  C   LIG    1       -0.123  -0.252   2.885  0.00  0.00    +0.060 A 
ATOM     10  C   LIG    1        0.729  -0.727   3.880  0.00  0.00    -0.110 A 
ATOM     11  C   LIG    1        1.038  -2.058   4.416  0.00  0.00    -0.160 A 
ATOM     12  C   LIG    1        1.953  -1.871   5.377  0.00  0.00    +0.220 A 
ATOM     13  O   LIG    1        2.241  -0.563   5.493  0.00  0.00    -0.190 OA
ATOM     14  C   LIG    1        1.529   0.167   4.611  0.00  0.00    +0.050 A 
ATOM     15  C   LIG    1        1.460   1.526   4.332  0.00  0.00    +0.020 A 
BRANCH   8  16
ATOM     16  C   LIG    1       -1.095   1.621   1.548  0.00  0.00    +0.020 C 
ATOM     17  C   LIG    1       -2.520   1.130   1.813  0.00  0.00    +0.040 C 
ATOM     18  C   LIG    1       -0.625   1.111   0.184  0.00  0.00    +0.040 C 
ENDBRANCH   8  16
ENDBRANCH   5  11
ENDBRANCH   1   5
BRANCH   2  19
ATOM     19  C   LIG    1        1.606  -5.572   1.064  0.00  0.00    +0.360 C 
BRANCH  19  20
ATOM     20  C   LIG    1        2.744  -6.438   1.542  0.00  0.00    -0.260 A 
ATOM     21  C   LIG    1        3.998  -6.018   1.825  0.00  0.00    +0.250 A 
ATOM     22  N   LIG    1        4.711  -7.093   2.223  0.00  0.00    -0.370 N 
ATOM     23  N   LIG    1        3.869  -8.211   2.174  0.00  0.00    -0.290 NA
ATOM     24  C   LIG    1        2.690  -7.817   1.766  0.00  0.00    +0.240 A 
BRANCH  22  25
ATOM     25  C   LIG    1        6.119  -7.092   2.628  0.00  0.00    +0.360 C 
BRANCH  25  26
ATOM     26  C   LIG    1        6.248  -7.704   3.999  0.00  0.00    -0.110 A 
ATOM     27  C   LIG    1        6.168  -6.904   5.124  0.00  0.00    +0.020 A 
ATOM     28  C   LIG    1        6.281  -7.467   6.381  0.00  0.00    +0.000 A 
ATOM     29  C   LIG    1        6.484  -8.828   6.514  0.00  0.00    +0.010 A 
ATOM     30  C   LIG    1        6.569  -9.627   5.389  0.00  0.00    +0.000 A 
ATOM     31  C   LIG    1        6.450  -9.065   4.132  0.00  0.00    +0.040 A 
ENDBRANCH  25  26
ENDBRANCH  22  25
ENDBRANCH  19  20
ENDBRANCH   2  19
TORSDOF 7
