REMARK  Name = ZINCpk00000KcWpB.0
REMARK                            x       y       z     vdW  Elec       q    Type
REMARK                         _______ _______ _______ _____ _____    ______ ____
ROOT
ATOM      1  C   LIG    1       -0.091  -9.305  -0.259  0.00  0.00    +0.280 C 
ATOM      2  C   LIG    1       -1.014  -8.188   0.238  0.00  0.00    +0.190 C 
ATOM      3  N   LIG    1       -0.306  -6.902   0.155  0.00  0.00    -0.520 NA
ATOM      4  C   LIG    1        0.926  -6.933   0.957  0.00  0.00    +0.170 C 
ATOM      5  C   LIG    1        1.829  -8.062   0.453  0.00  0.00    +0.250 C 
ATOM      6  O   LIG    1        1.114  -9.299   0.511  0.00  0.00    -0.370 OA
ENDROOT
BRANCH   1  10
ATOM      7  C   LIG    1       -1.641 -12.584  -0.490  0.00  0.00    +0.190 A 
ATOM      8  N   LIG    1       -1.803 -12.275   0.767  0.00  0.00    -0.290 NA
ATOM      9  N   LIG    1       -1.288 -11.120   0.999  0.00  0.00    -0.260 NA
ATOM     10  C   LIG    1       -0.782 -10.635  -0.103  0.00  0.00    +0.170 A 
ATOM     11  N   LIG    1       -0.988 -11.553  -1.078  0.00  0.00    -0.570 N 
ATOM     12  H   LIG    1       -0.723 -11.485  -2.009  0.00  0.00    +0.430 HD
BRANCH   7  14
ATOM     13  C   LIG    1       -1.524 -15.060  -0.415  0.00  0.00    +0.050 C 
ATOM     14  C   LIG    1       -2.095 -13.854  -1.164  0.00  0.00    +0.140 C 
ENDBRANCH   7  14
ENDBRANCH   1  10
BRANCH   3  15
ATOM     15  C   LIG    1       -1.177  -5.795   0.570  0.00  0.00    +0.240 C 
BRANCH  15  16
ATOM     16  C   LIG    1       -0.508  -4.483   0.250  0.00  0.00    +0.510 C 
ATOM     17  N   LIG    1       -1.127  -3.322   0.544  0.00  0.00    -0.630 N 
ATOM     18  H   LIG    1       -2.002  -3.331   0.962  0.00  0.00    +0.430 HD
ATOM     19  O   LIG    1        0.586  -4.472  -0.273  0.00  0.00    -0.470 OA
BRANCH  17  20
ATOM     20  C   LIG    1       -0.511  -2.114   0.249  0.00  0.00    +0.210 A 
ATOM     21  C   LIG    1       -1.006  -0.864   0.484  0.00  0.00    -0.100 A 
ATOM     22  C   LIG    1        0.002  -0.004   0.002  0.00  0.00    +0.050 A 
ATOM     23  N   LIG    1        0.953  -0.768  -0.458  0.00  0.00    -0.370 NA
ATOM     24  O   LIG    1        0.690  -1.941  -0.325  0.00  0.00    +0.110 OA
BRANCH  22  25
ATOM     25  C   LIG    1       -0.018   1.503   0.010  0.00  0.00    +0.070 C 
ATOM     26  C   LIG    1       -0.735   1.996   1.269  0.00  0.00    +0.050 C 
ATOM     27  C   LIG    1       -0.758   2.010  -1.229  0.00  0.00    +0.050 C 
ENDBRANCH  22  25
ENDBRANCH  17  20
ENDBRANCH  15  16
ENDBRANCH   3  15
TORSDOF 6
