REMARK  Name = ZINCpk00000KcWpB.1
REMARK                            x       y       z     vdW  Elec       q    Type
REMARK                         _______ _______ _______ _____ _____    ______ ____
ROOT
ATOM      1  C   LIG    1       -0.758  -7.478  -0.309  0.00  0.00    +0.300 C 
ATOM      2  C   LIG    1        0.452  -6.540  -0.299  0.00  0.00    +0.180 C 
ATOM      3  N   LIG    1       -0.007  -5.158  -0.103  0.00  0.00    -0.520 NA
ATOM      4  C   LIG    1       -0.941  -4.763  -1.167  0.00  0.00    +0.170 C 
ATOM      5  C   LIG    1       -2.137  -5.718  -1.169  0.00  0.00    +0.250 C 
ATOM      6  O   LIG    1       -1.669  -7.060  -1.329  0.00  0.00    -0.370 OA
ENDROOT
BRANCH   1   9
ATOM      7  C   LIG    1        0.217 -10.959  -0.263  0.00  0.00    +0.290 A 
ATOM      8  N   LIG    1       -0.213  -9.865   0.311  0.00  0.00    -0.530 NA
ATOM      9  C   LIG    1       -0.301  -8.886  -0.589  0.00  0.00    +0.230 A 
ATOM     10  N   LIG    1        0.067  -9.348  -1.755  0.00  0.00    -0.290 NA
ATOM     11  N   LIG    1        0.415 -10.696  -1.566  0.00  0.00    -0.480 N 
ATOM     12  H   LIG    1        0.731 -11.315  -2.243  0.00  0.00    +0.440 HD
BRANCH   7  14
ATOM     13  C   LIG    1        1.919 -12.398   0.823  0.00  0.00    +0.050 C 
ATOM     14  C   LIG    1        0.448 -12.283   0.418  0.00  0.00    +0.150 C 
ENDBRANCH   7  14
ENDBRANCH   1   9
BRANCH   3  15
ATOM     15  C   LIG    1        1.131  -4.231  -0.030  0.00  0.00    +0.230 C 
BRANCH  15  16
ATOM     16  C   LIG    1        1.932  -4.515   1.214  0.00  0.00    +0.500 C 
ATOM     17  N   LIG    1        3.096  -3.872   1.428  0.00  0.00    -0.630 N 
ATOM     18  H   LIG    1        3.419  -3.225   0.781  0.00  0.00    +0.430 HD
ATOM     19  O   LIG    1        1.528  -5.324   2.024  0.00  0.00    -0.470 OA
BRANCH  17  20
ATOM     20  C   LIG    1        3.834  -4.133   2.573  0.00  0.00    +0.210 A 
ATOM     21  C   LIG    1        5.024  -3.567   2.929  0.00  0.00    -0.100 A 
ATOM     22  C   LIG    1        5.335  -4.176   4.162  0.00  0.00    +0.050 A 
ATOM     23  N   LIG    1        4.362  -5.004   4.422  0.00  0.00    -0.360 NA
ATOM     24  O   LIG    1        3.521  -4.995   3.554  0.00  0.00    +0.110 OA
BRANCH  22  25
ATOM     25  C   LIG    1        6.552  -3.919   5.012  0.00  0.00    +0.070 C 
ATOM     26  C   LIG    1        6.946  -2.445   4.907  0.00  0.00    +0.050 C 
ATOM     27  C   LIG    1        7.709  -4.793   4.523  0.00  0.00    +0.050 C 
ENDBRANCH  22  25
ENDBRANCH  17  20
ENDBRANCH  15  16
ENDBRANCH   3  15
TORSDOF 6
