REMARK  Name = ZINCrD000000Ah2p.0
REMARK                            x       y       z     vdW  Elec       q    Type
REMARK                         _______ _______ _______ _____ _____    ______ ____
ROOT
ATOM      1  O   LIG    1       -1.736   2.268  -1.088  0.00  0.00    -0.530 OA
ATOM      2  C   LIG    1       -0.742   1.585  -1.213  0.00  0.00    +0.520 C 
ATOM      3  N   LIG    1       -0.288   1.272  -2.443  0.00  0.00    -0.610 N 
ATOM      4  C   LIG    1        0.919   0.451  -2.609  0.00  0.00    +0.270 C 
ATOM      5  C   LIG    1        0.564  -0.761  -3.487  0.00  0.00    +0.300 C 
ATOM      6  N   LIG    1       -0.137  -0.282  -4.686  0.00  0.00    -1.000 NA
ATOM      7  C   LIG    1       -1.341   0.545  -4.521  0.00  0.00    +0.300 C 
ATOM      8  C   LIG    1       -0.989   1.752  -3.643  0.00  0.00    +0.280 C 
ENDROOT
BRANCH   6   9
ATOM      9  S   LIG    1        0.420  -0.665  -6.198  0.00  0.00    +2.690 S 
ATOM     10  O   LIG    1       -0.693  -0.561  -7.075  0.00  0.00    -0.940 OA
ATOM     11  O   LIG    1        1.188  -1.852  -6.054  0.00  0.00    -0.940 OA
BRANCH   9  12
ATOM     12  C   LIG    1        1.549   0.602  -6.675  0.00  0.00    -0.670 A 
ATOM     13  C   LIG    1        2.892   0.480  -6.373  0.00  0.00    +0.130 A 
ATOM     14  C   LIG    1        3.778   1.474  -6.746  0.00  0.00    +0.030 A 
ATOM     15  C   LIG    1        3.321   2.589  -7.423  0.00  0.00    +0.090 A 
ATOM     16  C   LIG    1        1.976   2.711  -7.726  0.00  0.00    -0.060 A 
ATOM     17 CL   LIG    1        1.401   4.111  -8.576  0.00  0.00    -0.050 Cl
ATOM     18  C   LIG    1        1.091   1.714  -7.356  0.00  0.00    +0.140 A 
ENDBRANCH   9  12
ENDBRANCH   6   9
BRANCH   2  19
ATOM     19  C   LIG    1       -0.013   1.086   0.008  0.00  0.00    +0.090 C 
BRANCH  19  20
ATOM     20  C   LIG    1       -0.729   1.579   1.267  0.00  0.00    +0.110 C 
BRANCH  20  21
ATOM     21  S   LIG    1        0.148   0.978   2.736  0.00  0.00    -0.120 S 
BRANCH  21  22
ATOM     22  C   LIG    1       -0.806   1.635   4.064  0.00  0.00    -0.080 A 
ATOM     23  C   LIG    1       -1.927   2.412   3.798  0.00  0.00    +0.000 A 
ATOM     24  C   LIG    1       -2.675   2.921   4.841  0.00  0.00    +0.030 A 
ATOM     25  C   LIG    1       -2.304   2.667   6.149  0.00  0.00    +0.010 A 
ATOM     26  C   LIG    1       -1.186   1.899   6.417  0.00  0.00    +0.030 A 
ATOM     27  C   LIG    1       -0.436   1.383   5.380  0.00  0.00    +0.030 A 
ENDBRANCH  21  22
ENDBRANCH  20  21
ENDBRANCH  19  20
ENDBRANCH   2  19
TORSDOF 6
