REMARK  Name = ZINCpe00000MJJut.0
REMARK                            x       y       z     vdW  Elec       q    Type
REMARK                         _______ _______ _______ _____ _____    ______ ____
ROOT
ATOM      1  O   LIG    1        0.970   2.671   4.365  0.00  0.00    -0.510 OA
ATOM      2  C   LIG    1       -0.034   3.330   4.551  0.00  0.00    +0.570 C 
ATOM      3  N   LIG    1       -1.119   3.139   3.774  0.00  0.00    -0.600 N 
ATOM      4  C   LIG    1       -2.369   3.862   4.044  0.00  0.00    +0.270 C 
ATOM      5  C   LIG    1       -2.811   4.578   2.763  0.00  0.00    +0.030 C 
ATOM      6  C   LIG    1       -2.906   3.562   1.623  0.00  0.00    +0.060 C 
ATOM      7  C   LIG    1       -1.530   2.937   1.377  0.00  0.00    +0.110 C 
ATOM      8  C   LIG    1       -1.074   2.204   2.643  0.00  0.00    +0.270 C 
ENDROOT
BRANCH   2   9
ATOM      9  C   LIG    1       -0.066   4.340   5.626  0.00  0.00    -0.090 A 
ATOM     10  C   LIG    1       -1.065   4.309   6.587  0.00  0.00    +0.070 A 
ATOM     11  C   LIG    1       -1.097   5.253   7.606  0.00  0.00    +0.040 A 
ATOM     12  C   LIG    1       -0.159   6.238   7.684  0.00  0.00    +0.090 A 
ATOM     13  C   LIG    1        0.870   6.312   6.727  0.00  0.00    +0.070 A 
ATOM     14  N   LIG    1        1.799   7.272   6.787  0.00  0.00    -0.420 NA
ATOM     15  C   LIG    1        2.749   7.317   5.881  0.00  0.00    +0.260 A 
ATOM     16  C   LIG    1        2.799   6.373   4.854  0.00  0.00    +0.270 A 
ATOM     17  N   LIG    1        1.897   5.421   4.775  0.00  0.00    -0.410 NA
ATOM     18  C   LIG    1        0.923   5.355   5.685  0.00  0.00    +0.110 A 
ENDBRANCH   2   9
BRANCH   7  19
ATOM     19  O   LIG    1       -0.590   3.965   1.057  0.00  0.00    -0.540 OA
ATOM     20  H   LIG    1        0.305   3.641   0.889  0.00  0.00    +0.390 HD
ENDBRANCH   7  19
BRANCH   7  21
ATOM     21  C   LIG    1       -1.619   1.946   0.216  0.00  0.00    +0.330 C 
BRANCH  21  22
ATOM     22  N   LIG    1       -0.333   1.261   0.059  0.00  0.00    -0.300 N 
ATOM     23  C   LIG    1       -0.143  -0.078   0.059  0.00  0.00    +0.140 A 
ATOM     24  C   LIG    1        1.185  -0.271  -0.119  0.00  0.00    +0.140 A 
ATOM     25  N   LIG    1        1.735   0.945  -0.218  0.00  0.00    -0.260 NA
ATOM     26  N   LIG    1        0.809   1.831  -0.109  0.00  0.00    -0.090 NA
ENDBRANCH  21  22
ENDBRANCH   7  21
TORSDOF 4
