REMARK  Name = ZINCfA000000bkTZ.0
REMARK                            x       y       z     vdW  Elec       q    Type
REMARK                         _______ _______ _______ _____ _____    ______ ____
ROOT
ATOM      1  N   LIG    1       -0.700   1.560   1.217  0.00  0.00    -0.500 N 
ATOM      2  H   LIG    1       -1.647   1.210   1.224  0.00  0.00    +0.420 HD
ATOM      3  H   LIG    1       -0.714   2.568   1.222  0.00  0.00    +0.430 HD
ENDROOT
BRANCH   1  11
ATOM      4  C   LIG    1       -0.176   2.984   4.060  0.00  0.00    +0.050 C 
ATOM      5  C   LIG    1       -0.678   1.585   3.696  0.00  0.00    -0.010 C 
ATOM      6  C   LIG    1       -0.232   0.548   4.757  0.00  0.00    +0.070 C 
ATOM      7  C   LIG    1       -0.247  -0.796   4.001  0.00  0.00    -0.060 C 
ATOM      8  C   LIG    1       -0.093  -0.463   2.507  0.00  0.00    +0.050 C 
ATOM      9  C   LIG    1        0.918  -1.672   4.466  0.00  0.00    +0.040 C 
ATOM     10  C   LIG    1       -1.575  -1.518   4.243  0.00  0.00    +0.040 C 
ATOM     11  C   LIG    1        0.010   1.073   2.407  0.00  0.00    +0.170 C 
ENDBRANCH   1  11
BRANCH   1  12
ATOM     12  C   LIG    1       -0.013   1.086   0.008  0.00  0.00    +0.400 C 
BRANCH  12  13
ATOM     13  C   LIG    1       -0.742   1.585  -1.213  0.00  0.00    -0.070 A 
ATOM     14  N   LIG    1       -0.503   2.704  -1.809  0.00  0.00    -0.430 NA
ATOM     15  C   LIG    1       -1.233   2.987  -2.869  0.00  0.00    +0.220 A 
ATOM     16  C   LIG    1       -2.143   2.060  -3.179  0.00  0.00    -0.010 A 
ATOM     17  S   LIG    1       -2.009   0.754  -2.004  0.00  0.00    +0.190 S 
ENDBRANCH  12  13
ENDBRANCH   1  12
TORSDOF 3
