REMARK  Name = ZINCtV000002tTPE.0
REMARK                            x       y       z     vdW  Elec       q    Type
REMARK                         _______ _______ _______ _____ _____    ______ ____
ROOT
ATOM      1  N   LIG    1       -0.145   6.808   2.191  0.00  0.00    -0.600 N 
ATOM      2  C   LIG    1       -0.402   7.641   1.164  0.00  0.00    +0.530 C 
ATOM      3  O   LIG    1       -0.584   7.195   0.051  0.00  0.00    -0.520 OA
ENDROOT
BRANCH   1   7
ATOM      4  C   LIG    1       -0.130   3.063   0.147  0.00  0.00    -0.020 C 
ATOM      5  C   LIG    1        1.204   3.620   0.647  0.00  0.00    +0.020 C 
ATOM      6  C   LIG    1        1.067   5.123   0.898  0.00  0.00    +0.010 C 
ATOM      7  C   LIG    1       -0.015   5.368   1.951  0.00  0.00    +0.230 C 
ATOM      8  C   LIG    1       -1.349   4.811   1.451  0.00  0.00    +0.020 C 
ATOM      9  C   LIG    1       -1.212   3.308   1.201  0.00  0.00    +0.020 C 
BRANCH   4  11
ATOM     10  C   LIG    1        0.998   1.321  -1.244  0.00  0.00    +0.010 C 
ATOM     11  C   LIG    1        0.007   1.560  -0.103  0.00  0.00    +0.000 C 
ENDBRANCH   4  11
ENDBRANCH   1   7
BRANCH   1  12
ATOM     12  C   LIG    1        0.002   7.340   3.548  0.00  0.00    +0.270 C 
ATOM     13  C   LIG    1       -0.927   6.582   4.498  0.00  0.00    +0.040 C 
BRANCH  12  14
ATOM     14  C   LIG    1        1.429   7.173   4.001  0.00  0.00    -0.110 A 
ATOM     15  C   LIG    1        2.167   6.085   3.572  0.00  0.00    +0.040 A 
ATOM     16  C   LIG    1        3.478   5.933   3.983  0.00  0.00    -0.020 A 
ATOM     17  C   LIG    1        4.049   6.865   4.833  0.00  0.00    +0.100 A 
ATOM     18  C   LIG    1        3.307   7.951   5.266  0.00  0.00    -0.010 A 
ATOM     19  F   LIG    1        5.329   6.715   5.239  0.00  0.00    -0.140 F 
ATOM     20  C   LIG    1        1.998   8.104   4.850  0.00  0.00    +0.050 A 
ENDBRANCH  12  14
ENDBRANCH   1  12
BRANCH   2  21
ATOM     21  C   LIG    1       -0.462   9.129   1.398  0.00  0.00    +0.070 C 
ATOM     22  C   LIG    1       -0.928   9.828   0.119  0.00  0.00    +0.070 C 
BRANCH  21  23
ATOM     23  C   LIG    1        0.907   9.634   1.776  0.00  0.00    -0.200 A 
ATOM     24  C   LIG    1        2.081   9.423   1.133  0.00  0.00    -0.010 A 
ATOM     25  O   LIG    1        3.021  10.068   1.838  0.00  0.00    +0.100 OA
ATOM     26  N   LIG    1        2.551  10.618   2.807  0.00  0.00    -0.350 NA
ATOM     27  C   LIG    1        2.288   8.624  -0.128  0.00  0.00    +0.180 C 
ATOM     28  C   LIG    1        1.265  10.431   2.887  0.00  0.00    +0.030 A 
ATOM     29  C   LIG    1        0.341  10.959   3.954  0.00  0.00    +0.150 C 
ENDBRANCH  21  23
ENDBRANCH   2  21
TORSDOF 6
