REMARK  Name = ZINCrH000004sOAe.0
REMARK                            x       y       z     vdW  Elec       q    Type
REMARK                         _______ _______ _______ _____ _____    ______ ____
ROOT
ATOM      1  C   LIG    1        4.768  -5.904  -0.081  0.00  0.00    +0.150 A 
ATOM      2  C   LIG    1        5.263  -4.847  -0.834  0.00  0.00    +0.020 A 
ATOM      3  C   LIG    1        4.613  -3.631  -0.830  0.00  0.00    +0.080 A 
ATOM      4  C   LIG    1        3.457  -3.463  -0.069  0.00  0.00    -0.030 A 
ATOM      5  C   LIG    1        2.965  -4.524   0.691  0.00  0.00    +0.050 A 
ATOM      6  C   LIG    1        3.616  -5.739   0.678  0.00  0.00    -0.020 A 
ENDROOT
BRANCH   4   7
ATOM      7  C   LIG    1        2.756  -2.156  -0.061  0.00  0.00    +0.120 A 
ATOM      8  C   LIG    1        1.623  -1.863   0.636  0.00  0.00    +0.110 A 
ATOM      9  N   LIG    1        1.314  -0.559   0.365  0.00  0.00    -0.400 N 
ATOM     10  C   LIG    1        0.301   0.255   0.781  0.00  0.00    +0.290 A 
ATOM     11  C   LIG    1        0.254   1.533   0.332  0.00  0.00    -0.030 A 
ATOM     12  C   LIG    1        1.247   1.988  -0.548  0.00  0.00    +0.360 A 
ATOM     13  N   LIG    1        2.211   1.186  -0.933  0.00  0.00    -0.440 NA
ATOM     14  C   LIG    1        2.269  -0.081  -0.496  0.00  0.00    +0.380 A 
ATOM     15  N   LIG    1        3.129  -1.059  -0.741  0.00  0.00    -0.460 NA
ENDBRANCH   4   7
BRANCH   1  17
ATOM     16  C   LIG    1        6.771  -7.181  -0.204  0.00  0.00    +0.520 C 
ATOM     17  N   LIG    1        5.429  -7.137  -0.088  0.00  0.00    -0.670 N 
ATOM     18  H   LIG    1        4.922  -7.960  -0.010  0.00  0.00    +0.410 HD
ATOM     19  O   LIG    1        7.414  -6.152  -0.205  0.00  0.00    -0.500 OA
BRANCH  16  20
ATOM     20  C   LIG    1        7.473  -8.508  -0.331  0.00  0.00    +0.080 C 
ATOM     21  C   LIG    1        7.181  -9.360   0.906  0.00  0.00    +0.070 C 
BRANCH  20  28
ATOM     22  C   LIG    1        9.429  -9.365  -2.774  0.00  0.00    +0.160 C 
ATOM     23  C   LIG    1        9.818  -8.651  -1.505  0.00  0.00    +0.030 A 
ATOM     24  N   LIG    1       11.010  -8.253  -1.168  0.00  0.00    -0.370 NA
ATOM     25  O   LIG    1       11.010  -7.709  -0.088  0.00  0.00    +0.100 OA
ATOM     26  C   LIG    1        9.780  -7.671   0.444  0.00  0.00    +0.010 A 
ATOM     27  C   LIG    1        9.388  -7.070   1.769  0.00  0.00    +0.190 C 
ATOM     28  C   LIG    1        8.959  -8.281  -0.444  0.00  0.00    -0.200 A 
ENDBRANCH  20  28
ENDBRANCH  16  20
ENDBRANCH   1  17
TORSDOF 4
