REMARK  Name = ZINCrD00000l0ytD.1
REMARK                            x       y       z     vdW  Elec       q    Type
REMARK                         _______ _______ _______ _____ _____    ______ ____
ROOT
ATOM      1  C   LIG    1        8.831   5.280  -1.882  0.00  0.00    +0.200 A 
ATOM      2  N   LIG    1        8.957   4.804  -3.093  0.00  0.00    -0.360 NA
ATOM      3  O   LIG    1        8.619   3.639  -3.120  0.00  0.00    +0.100 OA
ATOM      4  C   LIG    1        8.236   3.246  -1.902  0.00  0.00    +0.200 A 
ATOM      5  N   LIG    1        8.360   4.279  -1.106  0.00  0.00    -0.470 NA
ENDROOT
BRANCH   1   9
ATOM      6  C   LIG    1        9.720   9.244  -0.624  0.00  0.00    -0.170 A 
ATOM      7  C   LIG    1        9.905   8.883  -1.946  0.00  0.00    +0.080 A 
ATOM      8  C   LIG    1        9.619   7.598  -2.360  0.00  0.00    +0.050 A 
ATOM      9  C   LIG    1        9.142   6.664  -1.443  0.00  0.00    +0.010 A 
ATOM     10  C   LIG    1        8.953   7.034  -0.113  0.00  0.00    +0.070 A 
ATOM     11  C   LIG    1        9.248   8.320   0.291  0.00  0.00    +0.080 A 
BRANCH   6  13
ATOM     12  F   LIG    1        8.894  11.447  -0.313  0.00  0.00    -0.170 F 
ATOM     13  C   LIG    1       10.035  10.649  -0.178  0.00  0.00    +0.510 C 
ATOM     14  F   LIG    1       11.065  11.170  -0.969  0.00  0.00    -0.170 F 
ATOM     15  F   LIG    1       10.438  10.634   1.162  0.00  0.00    -0.170 F 
ENDBRANCH   6  13
ENDBRANCH   1   9
BRANCH   4  16
ATOM     16  C   LIG    1        7.747   1.873  -1.517  0.00  0.00    +0.350 C 
BRANCH  16  17
ATOM     17  N   LIG    1        6.288   1.810  -1.678  0.00  0.00    -0.540 NA
ATOM     18  C   LIG    1        5.803   0.429  -1.543  0.00  0.00    +0.200 C 
ATOM     19  C   LIG    1        4.294   0.395  -1.795  0.00  0.00    +0.190 C 
ATOM     20  N   LIG    1        3.619   1.284  -0.838  0.00  0.00    -0.530 NA
ATOM     21  C   LIG    1        4.105   2.664  -0.974  0.00  0.00    +0.190 C 
ATOM     22  C   LIG    1        5.614   2.698  -0.721  0.00  0.00    +0.180 C 
BRANCH  20  23
ATOM     23  C   LIG    1        2.160   1.221  -0.999  0.00  0.00    +0.140 C 
ATOM     24  C   LIG    1        1.489   2.179  -0.001  0.00  0.00    +0.050 C 
ATOM     25  C   LIG    1       -0.023   1.830   0.012  0.00  0.00    +0.130 C 
ATOM     26  S   LIG    1        0.002  -0.004   0.002  0.00  0.00    -0.280 S 
ATOM     27  C   LIG    1        1.671  -0.216  -0.722  0.00  0.00    +0.120 C 
ENDBRANCH  20  23
ENDBRANCH  16  17
ENDBRANCH   4  16
TORSDOF 5
