REMARK  Name = ZINCpk000000pD7M.0
REMARK                            x       y       z     vdW  Elec       q    Type
REMARK                         _______ _______ _______ _____ _____    ______ ____
ROOT
ATOM      1  C   LIG    1        6.234   1.109  -1.995  0.00  0.00    +0.260 C 
ENDROOT
BRANCH   1   2
ATOM      2  C   LIG    1        5.815   1.852  -3.238  0.00  0.00    +0.520 C 
ATOM      3  N   LIG    1        6.746   2.420  -4.030  0.00  0.00    -0.600 N 
ATOM      4  C   LIG    1        6.357   3.236  -5.190  0.00  0.00    +0.260 C 
ATOM      5  C   LIG    1        7.125   2.740  -6.415  0.00  0.00    +0.210 C 
ATOM      6  O   LIG    1        8.521   2.693  -6.111  0.00  0.00    -0.370 OA
ATOM      7  C   LIG    1        8.861   1.785  -5.061  0.00  0.00    +0.100 C 
ATOM      8  C   LIG    1        8.380   0.379  -5.426  0.00  0.00    +0.020 C 
ATOM      9  C   LIG    1       10.378   1.773  -4.866  0.00  0.00    +0.080 C 
ATOM     10  C   LIG    1        8.181   2.237  -3.763  0.00  0.00    +0.270 C 
ATOM     11  O   LIG    1        4.640   1.938  -3.525  0.00  0.00    -0.530 OA
ENDBRANCH   1   2
BRANCH   1  13
ATOM     12  C   LIG    1        7.067   1.367   0.347  0.00  0.00    +0.040 C 
ATOM     13  C   LIG    1        6.533   2.112  -0.878  0.00  0.00    +0.020 C 
ENDBRANCH   1  13
BRANCH   1  14
ATOM     14  N   LIG    1        5.154   0.215  -1.572  0.00  0.00    -0.680 N 
ATOM     15  H   LIG    1        4.237   0.412  -1.820  0.00  0.00    +0.420 HD
BRANCH  14  16
ATOM     16  C   LIG    1        5.441  -0.910  -0.820  0.00  0.00    +0.510 A 
ATOM     17  N   LIG    1        6.631  -1.297  -0.416  0.00  0.00    -0.370 NA
ATOM     18  N   LIG    1        6.545  -2.384   0.262  0.00  0.00    -0.010 NA
ATOM     19  N   LIG    1        5.316  -2.764   0.346  0.00  0.00    -0.080 NA
ATOM     20  N   LIG    1        4.549  -1.822  -0.361  0.00  0.00    -0.370 N 
BRANCH  20  21
ATOM     21  C   LIG    1        3.159  -1.822  -0.546  0.00  0.00    +0.140 A 
ATOM     22  C   LIG    1        2.477  -3.022  -0.697  0.00  0.00    +0.040 A 
ATOM     23  C   LIG    1        1.108  -3.019  -0.879  0.00  0.00    +0.040 A 
ATOM     24  C   LIG    1        0.416  -1.822  -0.911  0.00  0.00    +0.030 A 
ATOM     25  C   LIG    1        1.092  -0.625  -0.761  0.00  0.00    +0.050 A 
ATOM     26  C   LIG    1        2.461  -0.622  -0.578  0.00  0.00    +0.000 A 
ENDBRANCH  20  21
ENDBRANCH  14  16
ENDBRANCH   1  14
TORSDOF 5
