REMARK  Name = ZINCqH0000007ZO5.0
REMARK                            x       y       z     vdW  Elec       q    Type
REMARK                         _______ _______ _______ _____ _____    ______ ____
ROOT
ATOM      1  C   LIG    1       -2.594   1.439   0.030  0.00  0.00    +0.350 C 
ATOM      2  C   LIG    1       -3.466   2.636  -0.370  0.00  0.00    +0.020 C 
ATOM      3  C   LIG    1       -3.079   3.855   0.472  0.00  0.00    +0.040 C 
ATOM      4  C   LIG    1       -1.692   4.353   0.046  0.00  0.00    +0.100 C 
ATOM      5  C   LIG    1       -0.750   3.175   0.027  0.00  0.00    +0.090 A 
ATOM      6  N   LIG    1        0.593   3.191   0.013  0.00  0.00    -0.360 N 
ATOM      7  N   LIG    1        1.038   1.860   0.002  0.00  0.00    -0.300 NA
ATOM      8  C   LIG    1       -0.013   1.076   0.008  0.00  0.00    +0.260 A 
ATOM      9  C   LIG    1       -1.151   1.878   0.017  0.00  0.00    -0.250 A 
ENDROOT
BRANCH   1  13
ATOM     10  N   LIG    1       -2.726  -1.930  -1.436  0.00  0.00    -0.740 N 
ATOM     11  H   LIG    1       -3.017  -1.735  -2.341  0.00  0.00    +0.400 HD
ATOM     12  C   LIG    1       -2.552  -0.926  -0.554  0.00  0.00    +0.710 C 
ATOM     13  N   LIG    1       -2.783   0.348  -0.929  0.00  0.00    -0.740 N 
ATOM     14  H   LIG    1       -3.074   0.542  -1.833  0.00  0.00    +0.390 HD
ATOM     15  O   LIG    1       -2.187  -1.169   0.580  0.00  0.00    -0.590 OA
BRANCH  10  16
ATOM     16  C   LIG    1       -2.475  -3.314  -1.029  0.00  0.00    +0.330 C 
BRANCH  16  17
ATOM     17  C   LIG    1       -2.745  -4.250  -2.209  0.00  0.00    -0.050 C 
ATOM     18  C   LIG    1       -4.203  -4.105  -2.652  0.00  0.00    +0.060 C 
ATOM     19  C   LIG    1       -2.483  -5.696  -1.784  0.00  0.00    +0.060 C 
BRANCH  17  21
ATOM     20  C   LIG    1       -2.111  -5.015  -4.869  0.00  0.00    +0.130 C 
ATOM     21  S   LIG    1       -1.649  -3.817  -3.587  0.00  0.00    -0.240 S 
ENDBRANCH  17  21
ENDBRANCH  16  17
ENDBRANCH  10  16
ENDBRANCH   1  13
BRANCH   6  22
ATOM     22  C   LIG    1        1.443   4.384   0.010  0.00  0.00    +0.370 C 
BRANCH  22  23
ATOM     23  C   LIG    1        1.720   4.800  -1.412  0.00  0.00    -0.120 A 
ATOM     24  C   LIG    1        2.825   4.301  -2.075  0.00  0.00    +0.030 A 
ATOM     25  C   LIG    1        3.077   4.679  -3.380  0.00  0.00    +0.000 A 
ATOM     26  C   LIG    1        2.228   5.563  -4.020  0.00  0.00    +0.010 A 
ATOM     27  C   LIG    1        1.126   6.066  -3.355  0.00  0.00    +0.000 A 
ATOM     28  C   LIG    1        0.872   5.685  -2.051  0.00  0.00    +0.020 A 
ENDBRANCH  22  23
ENDBRANCH   6  22
TORSDOF 6
