REMARK  Name = ZINCvU0000000Hqj.0
REMARK                            x       y       z     vdW  Elec       q    Type
REMARK                         _______ _______ _______ _____ _____    ______ ____
ROOT
ATOM      1  C   LIG    1       -1.625   3.184   0.955  0.00  0.00    -0.180 A 
ATOM      2  C   LIG    1       -2.879   3.700   0.766  0.00  0.00    +0.050 A 
ATOM      3  S   LIG    1       -3.675   2.916  -0.520  0.00  0.00    +0.330 S 
ATOM      4  C   LIG    1       -2.308   1.863  -0.834  0.00  0.00    -0.080 A 
ATOM      5  C   LIG    1       -1.309   2.116   0.020  0.00  0.00    -0.010 A 
ENDROOT
BRANCH   5   6
ATOM      6  C   LIG    1       -0.017   1.390   0.010  0.00  0.00    -0.030 A 
ATOM      7  C   LIG    1        1.184   2.099   0.002  0.00  0.00    +0.050 A 
ATOM      8  C   LIG    1        2.384   1.418  -0.013  0.00  0.00    +0.030 A 
ATOM      9  C   LIG    1        2.397   0.033  -0.021  0.00  0.00    -0.030 A 
ATOM     10  C   LIG    1        1.208  -0.675  -0.013  0.00  0.00    +0.030 A 
ATOM     11 CL   LIG    1        3.910  -0.817  -0.041  0.00  0.00    -0.070 Cl
ATOM     12  C   LIG    1        0.002  -0.004   0.002  0.00  0.00    +0.050 A 
ENDBRANCH   5   6
BRANCH   2  13
ATOM     13  N   LIG    1       -3.428   4.725   1.521  0.00  0.00    -0.620 N 
ATOM     14  H   LIG    1       -2.915   5.126   2.240  0.00  0.00    +0.420 HD
ATOM     15  C   LIG    1       -4.674   5.164   1.256  0.00  0.00    +0.520 C 
ATOM     16  O   LIG    1       -5.315   4.663   0.356  0.00  0.00    -0.470 OA
BRANCH  15  17
ATOM     17  C   LIG    1       -5.271   6.279   2.076  0.00  0.00    +0.260 C 
BRANCH  17  18
ATOM     18  C   LIG    1       -4.486   7.545   1.850  0.00  0.00    -0.130 A 
ATOM     19  C   LIG    1       -4.778   8.356   0.770  0.00  0.00    +0.040 A 
ATOM     20  C   LIG    1       -4.060   9.520   0.565  0.00  0.00    +0.010 A 
ATOM     21  C   LIG    1       -3.045   9.868   1.436  0.00  0.00    +0.030 A 
ATOM     22  C   LIG    1       -2.749   9.054   2.514  0.00  0.00    +0.020 A 
ATOM     23  C   LIG    1       -3.469   7.893   2.721  0.00  0.00    +0.020 A 
ENDBRANCH  17  18
BRANCH  17  24
ATOM     24  O   LIG    1       -6.651   6.487   1.678  0.00  0.00    -0.320 OA
BRANCH  24  25
ATOM     25  C   LIG    1       -7.496   6.937   2.619  0.00  0.00    +0.460 C 
ATOM     26  O   LIG    1       -7.095   7.149   3.739  0.00  0.00    -0.500 OA
ATOM     27  C   LIG    1       -8.944   7.178   2.279  0.00  0.00    +0.180 C 
ENDBRANCH  24  25
ENDBRANCH  17  24
ENDBRANCH  15  17
ENDBRANCH   2  13
BRANCH   1  28
ATOM     28  C   LIG    1       -0.701   3.656   1.986  0.00  0.00    +0.540 C 
ATOM     29  O   LIG    1        0.075   4.560   1.740  0.00  0.00    -0.490 OA
BRANCH  28  30
ATOM     30  O   LIG    1       -0.711   3.090   3.210  0.00  0.00    -0.350 OA
BRANCH  30  32
ATOM     31  C   LIG    1        0.075   2.849   5.503  0.00  0.00    +0.070 C 
ATOM     32  C   LIG    1        0.233   3.609   4.184  0.00  0.00    +0.200 C 
ENDBRANCH  30  32
ENDBRANCH  28  30
ENDBRANCH   1  28
TORSDOF 9
