REMARK  Name = ZINCvU00000009rw.0
REMARK                            x       y       z     vdW  Elec       q    Type
REMARK                         _______ _______ _______ _____ _____    ______ ____
ROOT
ATOM      1  C   LIG    1       -2.504   0.183   0.448  0.00  0.00    +0.140 A 
ATOM      2  N   LIG    1       -3.716  -0.218   0.739  0.00  0.00    -0.440 NA
ATOM      3  C   LIG    1       -4.203   0.699   1.606  0.00  0.00    +0.210 A 
ATOM      4  N   LIG    1       -3.267   1.594   1.788  0.00  0.00    -0.340 NA
ATOM      5  O   LIG    1       -2.285   1.309   1.135  0.00  0.00    +0.100 OA
ENDROOT
BRANCH   3   6
ATOM      6  C   LIG    1       -5.547   0.690   2.233  0.00  0.00    -0.090 A 
ATOM      7  C   LIG    1       -6.455  -0.331   1.950  0.00  0.00    +0.160 A 
ATOM      8  C   LIG    1       -7.698  -0.294   2.562  0.00  0.00    -0.060 A 
ATOM      9  C   LIG    1       -8.000   0.742   3.425  0.00  0.00    +0.330 A 
ATOM     10  N   LIG    1       -7.125   1.696   3.676  0.00  0.00    -0.520 NA
ATOM     11  C   LIG    1       -5.924   1.703   3.123  0.00  0.00    +0.350 A 
BRANCH  11  12
ATOM     12  O   LIG    1       -5.054   2.701   3.414  0.00  0.00    -0.230 OA
BRANCH  12  13
ATOM     13  C   LIG    1       -5.490   3.716   4.207  0.00  0.00    +0.090 A 
ATOM     14  C   LIG    1       -5.805   4.947   3.650  0.00  0.00    +0.010 A 
ATOM     15  C   LIG    1       -6.251   5.975   4.457  0.00  0.00    +0.020 A 
ATOM     16  C   LIG    1       -6.375   5.781   5.820  0.00  0.00    +0.020 A 
ATOM     17  C   LIG    1       -6.056   4.557   6.379  0.00  0.00    +0.020 A 
ATOM     18  C   LIG    1       -5.614   3.524   5.575  0.00  0.00    +0.010 A 
ENDBRANCH  12  13
ENDBRANCH  11  12
ENDBRANCH   3   6
BRANCH   1  20
ATOM     19  C   LIG    1       -2.143  -0.577  -1.885  0.00  0.00    +0.120 C 
ATOM     20  C   LIG    1       -1.534  -0.499  -0.483  0.00  0.00    +0.290 C 
BRANCH  20  21
ATOM     21  C   LIG    1       -0.250   0.288  -0.536  0.00  0.00    -0.130 A 
ATOM     22  C   LIG    1       -0.246   1.569  -1.055  0.00  0.00    +0.070 A 
ATOM     23  C   LIG    1        0.932   2.291  -1.103  0.00  0.00    +0.030 A 
ATOM     24  C   LIG    1        2.106   1.731  -0.634  0.00  0.00    +0.080 A 
ATOM     25  C   LIG    1        2.101   0.450  -0.115  0.00  0.00    -0.180 A 
ATOM     26  C   LIG    1        0.923  -0.271  -0.066  0.00  0.00    +0.090 A 
BRANCH  25  27
ATOM     27  C   LIG    1        3.380  -0.160   0.398  0.00  0.00    +0.510 C 
ATOM     28  F   LIG    1        3.087  -1.060   1.428  0.00  0.00    -0.180 F 
ATOM     29  F   LIG    1        4.216   0.851   0.885  0.00  0.00    -0.170 F 
ATOM     30  F   LIG    1        4.024  -0.836  -0.643  0.00  0.00    -0.170 F 
ENDBRANCH  25  27
ENDBRANCH  20  21
BRANCH  20  31
ATOM     31  O   LIG    1       -1.265  -1.819  -0.006  0.00  0.00    -0.520 OA
ATOM     32  H   LIG    1       -0.877  -1.845   0.879  0.00  0.00    +0.390 HD
ENDBRANCH  20  31
ENDBRANCH   1  20
TORSDOF 7
