REMARK  Name = ZINCrg000000tR2G.0
REMARK                            x       y       z     vdW  Elec       q    Type
REMARK                         _______ _______ _______ _____ _____    ______ ____
ROOT
ATOM      1  C   LIG    1        4.714  -3.799  -1.975  0.00  0.00    +0.150 A 
ATOM      2  C   LIG    1        3.723  -3.879  -2.946  0.00  0.00    +0.040 A 
ATOM      3  C   LIG    1        3.786  -4.852  -3.926  0.00  0.00    +0.050 A 
ATOM      4  C   LIG    1        4.828  -5.756  -3.940  0.00  0.00    +0.050 A 
ATOM      5  C   LIG    1        5.825  -5.688  -2.967  0.00  0.00    +0.010 A 
ATOM      6  C   LIG    1        5.765  -4.703  -1.982  0.00  0.00    -0.020 A 
ENDROOT
BRANCH   5   7
ATOM      7  C   LIG    1        6.943  -6.657  -2.980  0.00  0.00    +0.210 A 
ATOM      8  N   LIG    1        6.969  -7.817  -3.600  0.00  0.00    -0.280 NA
ATOM      9  N   LIG    1        8.103  -8.392  -3.400  0.00  0.00    -0.290 NA
ATOM     10  C   LIG    1        8.858  -7.637  -2.652  0.00  0.00    +0.190 A 
ATOM     11  C   LIG    1       10.266  -7.924  -2.196  0.00  0.00    +0.150 C 
ATOM     12  C   LIG    1       10.376  -7.631  -0.697  0.00  0.00    +0.020 C 
ATOM     13  C   LIG    1       10.740  -6.165  -0.487  0.00  0.00    +0.020 C 
ATOM     14  C   LIG    1       10.113  -5.295  -1.575  0.00  0.00    +0.030 C 
ATOM     15  C   LIG    1        8.587  -5.406  -1.510  0.00  0.00    +0.290 C 
ATOM     16  N   LIG    1        8.149  -6.516  -2.356  0.00  0.00    -0.470 N 
ENDBRANCH   5   7
BRANCH   1  18
ATOM     17  C   LIG    1        4.008  -1.650  -1.238  0.00  0.00    +0.510 C 
ATOM     18  N   LIG    1        4.648  -2.809  -0.988  0.00  0.00    -0.670 N 
ATOM     19  H   LIG    1        5.064  -2.958  -0.124  0.00  0.00    +0.410 HD
ATOM     20  O   LIG    1        3.571  -1.425  -2.346  0.00  0.00    -0.490 OA
BRANCH  17  21
ATOM     21  C   LIG    1        3.834  -0.633  -0.139  0.00  0.00    +0.240 C 
BRANCH  21  25
ATOM     22  O   LIG    1       -0.065   1.285  -2.035  0.00  0.00    -0.550 OA
ATOM     23  C   LIG    1        0.968   1.412  -1.411  0.00  0.00    +0.530 C 
ATOM     24  C   LIG    1        1.733   0.177  -1.028  0.00  0.00    +0.230 C 
ATOM     25  N   LIG    1        3.110   0.533  -0.661  0.00  0.00    -0.520 NA
ATOM     26  C   LIG    1        3.106   1.633   0.317  0.00  0.00    +0.180 C 
ATOM     27  C   LIG    1        2.623   2.907  -0.379  0.00  0.00    +0.290 C 
ATOM     28  N   LIG    1        1.378   2.644  -1.095  0.00  0.00    -0.720 N 
ATOM     29  H   LIG    1        0.826   3.398  -1.356  0.00  0.00    +0.400 HD
ENDBRANCH  21  25
ENDBRANCH  17  21
ENDBRANCH   1  18
TORSDOF 4
