REMARK  Name = ZINCpe000000Xxxb.0
REMARK                            x       y       z     vdW  Elec       q    Type
REMARK                         _______ _______ _______ _____ _____    ______ ____
ROOT
ATOM      1  C   LIG    1        1.113   4.105  -1.245  0.00  0.00    +0.110 C 
ATOM      2  C   LIG    1        0.640   3.376   0.014  0.00  0.00    +0.180 C 
ATOM      3  N   LIG    1        1.094   1.974   0.002  0.00  0.00    -0.710 N 
ATOM      4  H   LIG    1        2.012   1.662  -0.008  0.00  0.00    +0.440 HD
ATOM      5  C   LIG    1       -0.014   1.211   0.009  0.00  0.00    +0.710 C 
ATOM      6  N   LIG    1       -1.137   1.940   0.018  0.00  0.00    -0.560 N 
ATOM      7  O   LIG    1        0.002  -0.004   0.002  0.00  0.00    -0.540 OA
ATOM      8  C   LIG    1       -0.871   3.261   0.028  0.00  0.00    +0.550 C 
ATOM      9  O   LIG    1       -1.675   4.169   0.041  0.00  0.00    -0.440 OA
ENDROOT
BRANCH   2  10
ATOM     10  C   LIG    1        1.130   4.081   1.253  0.00  0.00    +0.120 A 
ATOM     11  C   LIG    1        2.488   4.206   1.476  0.00  0.00    -0.010 A 
ATOM     12  C   LIG    1        2.928   4.857   2.618  0.00  0.00    +0.070 A 
ATOM     13  C   LIG    1        1.981   5.359   3.498  0.00  0.00    -0.020 A 
ATOM     14  C   LIG    1        0.639   5.196   3.208  0.00  0.00    +0.270 A 
ATOM     15  N   LIG    1        0.257   4.576   2.109  0.00  0.00    -0.460 NA
ENDBRANCH   2  10
BRANCH   6  16
ATOM     16  C   LIG    1       -2.487   1.371   0.020  0.00  0.00    +0.360 C 
BRANCH  16  17
ATOM     17  C   LIG    1       -2.944   1.168   1.441  0.00  0.00    +0.500 C 
ATOM     18  N   LIG    1       -4.165   0.653   1.689  0.00  0.00    -0.720 N 
ATOM     19  H   LIG    1       -4.748   0.412   0.953  0.00  0.00    +0.410 HD
ATOM     20  O   LIG    1       -2.214   1.469   2.362  0.00  0.00    -0.500 OA
BRANCH  18  21
ATOM     21  C   LIG    1       -4.609   0.456   3.071  0.00  0.00    +0.280 C 
ATOM     22  C   LIG    1       -3.694  -0.563   3.780  0.00  0.00    +0.050 C 
ATOM     23  C   LIG    1       -4.655  -1.372   4.686  0.00  0.00    +0.020 C 
ATOM     24  C   LIG    1       -5.924  -1.502   3.808  0.00  0.00    +0.040 C 
ATOM     25  C   LIG    1       -6.027  -0.141   3.088  0.00  0.00    +0.060 C 
BRANCH  21  26
ATOM     26  C   LIG    1       -4.593   1.738   3.793  0.00  0.00    +0.200 C 
ATOM     27  N   LIG    1       -4.581   2.728   4.351  0.00  0.00    -0.400 NA
ENDBRANCH  21  26
ENDBRANCH  18  21
ENDBRANCH  16  17
ENDBRANCH   6  16
TORSDOF 5
