REMARK  Name = ZINCrD0000074IOl.0
REMARK                            x       y       z     vdW  Elec       q    Type
REMARK                         _______ _______ _______ _____ _____    ______ ____
ROOT
ATOM      1  C   LIG    1        1.078   1.645  -0.016  0.00  0.00    +0.060 A 
ATOM      2  C   LIG    1       -0.145   0.993  -0.003  0.00  0.00    +0.040 A 
ATOM      3  C   LIG    1       -1.318   1.724  -0.003  0.00  0.00    +0.010 A 
ATOM      4  C   LIG    1       -1.276   3.106  -0.003  0.00  0.00    +0.040 A 
ATOM      5  C   LIG    1       -0.061   3.764  -0.016  0.00  0.00    +0.030 A 
ATOM      6  C   LIG    1        1.121   3.038  -0.022  0.00  0.00    +0.140 A 
ENDROOT
BRANCH   6   7
ATOM      7  N   LIG    1        2.354   3.703  -0.035  0.00  0.00    -0.670 N 
ATOM      8  H   LIG    1        3.108   3.317  -0.506  0.00  0.00    +0.420 HD
ATOM      9  C   LIG    1        2.492   4.879   0.609  0.00  0.00    +0.520 C 
ATOM     10  O   LIG    1        1.582   5.311   1.286  0.00  0.00    -0.490 OA
BRANCH   9  11
ATOM     11  C   LIG    1        3.777   5.657   0.489  0.00  0.00    +0.270 C 
BRANCH  11  12
ATOM     12  O   LIG    1        3.678   6.878   1.269  0.00  0.00    -0.310 OA
BRANCH  12  13
ATOM     13  C   LIG    1        4.750   7.693   1.268  0.00  0.00    +0.530 C 
ATOM     14  O   LIG    1        5.741   7.392   0.633  0.00  0.00    -0.490 OA
BRANCH  13  15
ATOM     15  C   LIG    1        4.721   8.956   2.040  0.00  0.00    +0.040 A 
ATOM     16  C   LIG    1        5.830   9.801   2.041  0.00  0.00    +0.310 A 
ATOM     17  N   LIG    1        5.799  10.927   2.731  0.00  0.00    -0.440 NA
ATOM     18  C   LIG    1        4.720  11.251   3.420  0.00  0.00    +0.270 A 
ATOM     19  C   LIG    1        3.614  10.412   3.422  0.00  0.00    +0.230 A 
ATOM     20  N   LIG    1        3.634   9.290   2.732  0.00  0.00    -0.380 NA
ENDBRANCH  13  15
ENDBRANCH  12  13
ENDBRANCH  11  12
ENDBRANCH   9  11
ENDBRANCH   6   7
BRANCH   1  21
ATOM     21  O   LIG    1        2.232   0.928  -0.021  0.00  0.00    -0.260 OA
BRANCH  21  26
ATOM     22  C   LIG    1        4.942   0.240   4.868  0.00  0.00    +0.100 C 
ATOM     23  C   LIG    1        4.217   0.424   3.560  0.00  0.00    -0.120 A 
ATOM     24  C   LIG    1        4.676  -0.212   2.421  0.00  0.00    +0.050 A 
ATOM     25  C   LIG    1        4.013  -0.045   1.221  0.00  0.00    -0.010 A 
ATOM     26  C   LIG    1        2.886   0.762   1.158  0.00  0.00    +0.110 A 
ATOM     27  C   LIG    1        2.431   1.404   2.301  0.00  0.00    -0.050 A 
ATOM     28  C   LIG    1        3.094   1.228   3.500  0.00  0.00    +0.040 A 
ENDBRANCH  21  26
ENDBRANCH   1  21
TORSDOF 7
