REMARK  Name = ZINCrD00000hQ6ZF.0
REMARK                            x       y       z     vdW  Elec       q    Type
REMARK                         _______ _______ _______ _____ _____    ______ ____
ROOT
ATOM      1  N   LIG    1       -2.156  -0.674   7.229  0.00  0.00    -0.490 N 
ATOM      2  C   LIG    1       -1.213   0.356   6.775  0.00  0.00    +0.180 C 
ATOM      3  C   LIG    1       -1.907   1.722   6.793  0.00  0.00    +0.310 C 
ATOM      4  N   LIG    1       -3.148   1.626   6.009  0.00  0.00    -0.990 NA
ATOM      5  C   LIG    1       -4.084   0.535   6.319  0.00  0.00    +0.310 C 
ATOM      6  C   LIG    1       -3.301  -0.788   6.317  0.00  0.00    +0.180 C 
ENDROOT
BRANCH   1  12
ATOM      7  C   LIG    1       -1.424  -2.491   8.640  0.00  0.00    -0.050 A 
ATOM      8  C   LIG    1       -0.790  -3.708   8.789  0.00  0.00    +0.010 A 
ATOM      9  C   LIG    1       -0.246  -4.346   7.689  0.00  0.00    +0.000 A 
ATOM     10  C   LIG    1       -0.335  -3.767   6.436  0.00  0.00    +0.000 A 
ATOM     11  C   LIG    1       -0.973  -2.551   6.279  0.00  0.00    -0.040 A 
ATOM     12  C   LIG    1       -1.515  -1.906   7.383  0.00  0.00    +0.090 A 
BRANCH   7  14
ATOM     13  C   LIG    1       -3.498  -2.155   9.957  0.00  0.00    +0.030 C 
ATOM     14  C   LIG    1       -2.015  -1.796   9.840  0.00  0.00    +0.060 C 
ENDBRANCH   7  14
ENDBRANCH   1  12
BRANCH   4  15
ATOM     15  S   LIG    1       -3.485   2.720   4.812  0.00  0.00    +2.700 S 
ATOM     16  O   LIG    1       -4.896   2.714   4.649  0.00  0.00    -0.960 OA
ATOM     17  O   LIG    1       -2.744   3.893   5.121  0.00  0.00    -0.940 OA
BRANCH  15  18
ATOM     18  C   LIG    1       -2.807   2.083   3.316  0.00  0.00    -0.710 A 
ATOM     19  C   LIG    1       -3.643   1.727   2.275  0.00  0.00    +0.170 A 
ATOM     20  C   LIG    1       -3.111   1.232   1.099  0.00  0.00    -0.140 A 
ATOM     21  C   LIG    1       -1.743   1.080   0.966  0.00  0.00    +0.010 A 
ATOM     22  C   LIG    1       -0.903   1.434   2.004  0.00  0.00    -0.090 A 
ATOM     23  C   LIG    1       -1.167   0.535  -0.316  0.00  0.00    +0.100 C 
ATOM     24  C   LIG    1       -4.024   0.850  -0.037  0.00  0.00    +0.090 C 
ATOM     25  C   LIG    1       -1.434   1.937   3.183  0.00  0.00    +0.220 A 
BRANCH  25  26
ATOM     26  O   LIG    1       -0.610   2.287   4.205  0.00  0.00    -0.310 OA
ATOM     27  C   LIG    1        0.793   2.110   3.998  0.00  0.00    +0.250 C 
ENDBRANCH  25  26
ENDBRANCH  15  18
ENDBRANCH   4  15
TORSDOF 5
