REMARK  Name = ZINCqH000000391J.0
REMARK                            x       y       z     vdW  Elec       q    Type
REMARK                         _______ _______ _______ _____ _____    ______ ____
ROOT
ATOM      1  N   LIG    1        0.005   1.023   2.463  0.00  0.00    -0.950 N 
ENDROOT
BRANCH   1   2
ATOM      2  C   LIG    1       -0.202  -0.280   2.921  0.00  0.00    +0.180 A 
ATOM      3  C   LIG    1       -0.015  -0.584   4.264  0.00  0.00    +0.000 A 
ATOM      4  C   LIG    1       -0.225  -1.872   4.714  0.00  0.00    +0.090 A 
ATOM      5  C   LIG    1       -0.610  -2.862   3.828  0.00  0.00    -0.180 A 
ATOM      6  C   LIG    1       -0.791  -2.564   2.490  0.00  0.00    +0.090 A 
ATOM      7  C   LIG    1       -0.588  -1.277   2.034  0.00  0.00    +0.030 A 
BRANCH   5   8
ATOM      8  C   LIG    1       -0.832  -4.268   4.322  0.00  0.00    +0.510 C 
ATOM      9  F   LIG    1       -1.804  -4.892   3.533  0.00  0.00    -0.180 F 
ATOM     10  F   LIG    1       -1.264  -4.232   5.653  0.00  0.00    -0.180 F 
ATOM     11  F   LIG    1        0.366  -4.987   4.241  0.00  0.00    -0.170 F 
ENDBRANCH   5   8
ENDBRANCH   1   2
BRANCH   1  12
ATOM     12  S   LIG    1        1.527   1.676   2.480  0.00  0.00    +2.680 S 
ATOM     13  O   LIG    1        1.571   2.618   1.418  0.00  0.00    -0.930 OA
ATOM     14  O   LIG    1        2.430   0.584   2.589  0.00  0.00    -0.930 OA
BRANCH  12  15
ATOM     15  C   LIG    1        1.681   2.600   3.972  0.00  0.00    -0.690 A 
ATOM     16  C   LIG    1        1.292   3.927   4.006  0.00  0.00    +0.160 A 
ATOM     17  C   LIG    1        1.405   4.658   5.175  0.00  0.00    +0.000 A 
ATOM     18  C   LIG    1        1.917   4.071   6.313  0.00  0.00    +0.140 A 
ATOM     19  C   LIG    1        2.318   2.734   6.285  0.00  0.00    -0.140 A 
ATOM     20  C   LIG    1        2.196   2.000   5.103  0.00  0.00    +0.200 A 
BRANCH  19  21
ATOM     21  C   LIG    1        2.867   2.098   7.500  0.00  0.00    +0.510 C 
ATOM     22  O   LIG    1        3.214   0.934   7.472  0.00  0.00    -0.490 OA
BRANCH  21  23
ATOM     23  O   LIG    1        2.984   2.808   8.638  0.00  0.00    -0.350 OA
ATOM     24  C   LIG    1        3.532   2.119   9.792  0.00  0.00    +0.290 C 
ENDBRANCH  21  23
ENDBRANCH  19  21
ENDBRANCH  12  15
ENDBRANCH   1  12
BRANCH   1  26
ATOM     25  C   LIG    1       -1.366   1.489   0.492  0.00  0.00    +0.030 C 
ATOM     26  C   LIG    1       -1.125   1.813   1.968  0.00  0.00    +0.300 C 
ENDBRANCH   1  26
TORSDOF 7
