REMARK  Name = ZINCkj000005hs9c.0
REMARK                            x       y       z     vdW  Elec       q    Type
REMARK                         _______ _______ _______ _____ _____    ______ ____
ROOT
ATOM      1  C   LIG    1       -1.116  10.319  -1.574  0.00  0.00    +0.000 C 
ATOM      2  C   LIG    1       -0.125   9.691  -2.558  0.00  0.00    +0.090 C 
ATOM      3  C   LIG    1       -0.371   8.182  -2.627  0.00  0.00    +0.260 C 
ATOM      4  N   LIG    1       -0.184   7.590  -1.297  0.00  0.00    -0.380 N 
ATOM      5  C   LIG    1       -1.180   8.136  -0.366  0.00  0.00    +0.270 C 
ATOM      6  H   LIG    1        0.743   7.806  -0.961  0.00  0.00    +0.430 HD
ATOM      7  C   LIG    1       -0.964   9.643  -0.209  0.00  0.00    +0.080 C 
ENDROOT
BRANCH   1  11
ATOM      8  C   LIG    1       -1.302  13.987  -0.494  0.00  0.00    +0.300 C 
ATOM      9  N   LIG    1       -1.581  12.555  -0.623  0.00  0.00    -0.730 N 
ATOM     10  H   LIG    1       -2.307  12.155  -0.119  0.00  0.00    +0.400 HD
ATOM     11  C   LIG    1       -0.829  11.792  -1.441  0.00  0.00    +0.510 C 
ATOM     12  O   LIG    1        0.079  12.292  -2.071  0.00  0.00    -0.520 OA
ENDBRANCH   1  11
BRANCH   4  13
ATOM     13  C   LIG    1       -0.345   6.133  -1.384  0.00  0.00    +0.240 C 
BRANCH  13  14
ATOM     14  C   LIG    1        0.788   5.544  -2.227  0.00  0.00    +0.270 C 
BRANCH  14  15
ATOM     15  C   LIG    1        0.614   4.051  -2.330  0.00  0.00    -0.160 A 
ATOM     16  C   LIG    1        0.056   3.498  -3.468  0.00  0.00    +0.070 A 
ATOM     17  C   LIG    1       -0.104   2.128  -3.564  0.00  0.00    +0.000 A 
ATOM     18  C   LIG    1        0.294   1.310  -2.521  0.00  0.00    +0.120 A 
ATOM     19  C   LIG    1        0.848   1.866  -1.379  0.00  0.00    +0.000 A 
ATOM     20  F   LIG    1        0.138  -0.028  -2.613  0.00  0.00    -0.130 F 
ATOM     21  C   LIG    1        1.012   3.235  -1.288  0.00  0.00    +0.050 A 
ENDBRANCH  14  15
BRANCH  14  22
ATOM     22  O   LIG    1        2.043   5.835  -1.608  0.00  0.00    -0.550 OA
ATOM     23  H   LIG    1        2.135   5.475  -0.716  0.00  0.00    +0.390 HD
ENDBRANCH  14  22
ENDBRANCH  13  14
ENDBRANCH   4  13
TORSDOF 5
