REMARK  Name = ZINCrD000000Cc0U.0
REMARK                            x       y       z     vdW  Elec       q    Type
REMARK                         _______ _______ _______ _____ _____    ______ ____
ROOT
ATOM      1  O   LIG    1        2.490   3.987  -0.103  0.00  0.00    -0.500 OA
ATOM      2  C   LIG    1        3.540   3.374  -0.116  0.00  0.00    +0.560 C 
ATOM      3  N   LIG    1        3.537   2.029  -0.021  0.00  0.00    -0.650 N 
ATOM      4  H   LIG    1        4.375   1.546   0.045  0.00  0.00    +0.420 HD
ENDROOT
BRANCH   2   5
ATOM      5  C   LIG    1        4.820   4.103  -0.236  0.00  0.00    -0.070 A 
ATOM      6  C   LIG    1        6.028   3.403  -0.246  0.00  0.00    +0.030 A 
ATOM      7  C   LIG    1        7.218   4.089  -0.365  0.00  0.00    +0.140 A 
ATOM      8  C   LIG    1        7.218   5.469  -0.462  0.00  0.00    -0.640 A 
ATOM      9  C   LIG    1        6.025   6.170  -0.447  0.00  0.00    +0.140 A 
ATOM     10  C   LIG    1        4.827   5.495  -0.335  0.00  0.00    +0.080 A 
BRANCH   8  11
ATOM     11  S   LIG    1        8.744   6.338  -0.605  0.00  0.00    +2.470 S 
ATOM     12  O   LIG    1        8.400   7.541  -1.279  0.00  0.00    -0.880 OA
ATOM     13  O   LIG    1        9.630   5.396  -1.195  0.00  0.00    -0.880 OA
BRANCH  11  14
ATOM     14  C   LIG    1        9.231   6.684   1.108  0.00  0.00    -0.050 C 
ATOM     15  F   LIG    1        9.379   5.479   1.803  0.00  0.00    -0.160 F 
ATOM     16  F   LIG    1        8.244   7.460   1.725  0.00  0.00    -0.160 F 
ENDBRANCH  11  14
ENDBRANCH   8  11
ENDBRANCH   2   5
BRANCH   3  17
ATOM     17  C   LIG    1        2.325   1.332  -0.019  0.00  0.00    +0.030 A 
ATOM     18  C   LIG    1        2.184   0.149   0.705  0.00  0.00    +0.320 A 
ATOM     19  N   LIG    1        1.024  -0.483   0.684  0.00  0.00    -0.490 NA
ATOM     20  C   LIG    1        0.002  -0.005  -0.013  0.00  0.00    +0.350 A 
ATOM     21  N   LIG    1        0.100   1.117  -0.714  0.00  0.00    -0.490 NA
ATOM     22  C   LIG    1        1.229   1.802  -0.740  0.00  0.00    +0.340 A 
BRANCH  20  23
ATOM     23  C   LIG    1       -1.283  -0.744  -0.010  0.00  0.00    -0.050 A 
ATOM     24  C   LIG    1       -1.407  -1.929   0.714  0.00  0.00    +0.070 A 
ATOM     25  C   LIG    1       -2.607  -2.610   0.717  0.00  0.00    +0.000 A 
ATOM     26  C   LIG    1       -3.682  -2.126  -0.005  0.00  0.00    +0.030 A 
ATOM     27  C   LIG    1       -3.563  -0.954  -0.730  0.00  0.00    +0.000 A 
ATOM     28  C   LIG    1       -2.370  -0.261  -0.736  0.00  0.00    +0.070 A 
ENDBRANCH  20  23
ENDBRANCH   3  17
TORSDOF 5
