REMARK  Name = ZINCrH000004mdMH.0
REMARK                            x       y       z     vdW  Elec       q    Type
REMARK                         _______ _______ _______ _____ _____    ______ ____
ROOT
ATOM      1  C   LIG    1       -3.912  -1.706  -0.525  0.00  0.00    +0.240 C 
ATOM      2  C   LIG    1       -3.718  -2.242  -1.945  0.00  0.00    +0.000 C 
ATOM      3  C   LIG    1       -2.613  -3.303  -1.940  0.00  0.00    +0.270 C 
ATOM      4  N   LIG    1       -2.952  -4.333  -0.947  0.00  0.00    -0.610 N 
ATOM      5  C   LIG    1       -3.246  -3.916   0.430  0.00  0.00    +0.290 C 
ATOM      6  C   LIG    1       -2.990  -5.635  -1.294  0.00  0.00    +0.610 C 
ATOM      7  O   LIG    1       -3.199  -6.484  -0.447  0.00  0.00    -0.520 OA
ATOM      8  C   LIG    1       -4.344  -2.848   0.399  0.00  0.00    +0.020 C 
ENDROOT
BRANCH   6   9
ATOM      9  C   LIG    1       -2.789  -6.014  -2.645  0.00  0.00    -0.330 A 
ATOM     10  C   LIG    1       -3.604  -6.849  -3.368  0.00  0.00    +0.190 A 
ATOM     11  C   LIG    1       -3.168  -7.042  -4.663  0.00  0.00    -0.070 A 
ATOM     12  C   LIG    1       -2.039  -6.402  -4.982  0.00  0.00    -0.170 A 
ATOM     13  C   LIG    1       -1.375  -6.469  -6.333  0.00  0.00    +0.140 C 
ATOM     14  S   LIG    1       -1.450  -5.498  -3.661  0.00  0.00    +0.240 S 
BRANCH  10  15
ATOM     15  O   LIG    1       -4.726  -7.422  -2.862  0.00  0.00    -0.290 OA
ATOM     16  C   LIG    1       -5.474  -8.269  -3.738  0.00  0.00    +0.250 C 
ENDBRANCH  10  15
ENDBRANCH   6   9
BRANCH   1  17
ATOM     17  N   LIG    1       -4.945  -0.667  -0.532  0.00  0.00    -0.730 N 
ATOM     18  H   LIG    1       -5.864  -0.895  -0.322  0.00  0.00    +0.400 HD
BRANCH  17  21
ATOM     19  C   LIG    1       -5.248   2.946  -1.155  0.00  0.00    +0.210 A 
ATOM     20  C   LIG    1       -5.585   1.637  -0.848  0.00  0.00    -0.130 A 
ATOM     21  C   LIG    1       -4.606   0.652  -0.841  0.00  0.00    +0.290 A 
ATOM     22  C   LIG    1       -3.291   0.979  -1.141  0.00  0.00    -0.140 A 
ATOM     23  C   LIG    1       -2.955   2.289  -1.448  0.00  0.00    +0.210 A 
ATOM     24  C   LIG    1       -3.933   3.272  -1.455  0.00  0.00    -0.220 A 
BRANCH  19  26
ATOM     25  C   LIG    1       -5.787   5.238  -1.486  0.00  0.00    +0.250 C 
ATOM     26  O   LIG    1       -6.205   3.911  -1.162  0.00  0.00    -0.310 OA
ENDBRANCH  19  26
BRANCH  23  27
ATOM     27  O   LIG    1       -1.668   2.610  -1.742  0.00  0.00    -0.310 OA
ATOM     28  C   LIG    1       -1.394   3.978  -2.048  0.00  0.00    +0.250 C 
ENDBRANCH  23  27
ENDBRANCH  17  21
ENDBRANCH   1  17
TORSDOF 6
