REMARK  Name = ZINCqH0000004WM4.0
REMARK                            x       y       z     vdW  Elec       q    Type
REMARK                         _______ _______ _______ _____ _____    ______ ____
ROOT
ATOM      1  C   LIG    1       -2.381   0.295   2.381  0.00  0.00    +0.280 C 
ATOM      2  N   LIG    1       -2.763   0.108   0.979  0.00  0.00    -0.600 N 
ATOM      3  C   LIG    1       -3.227  -1.086   0.559  0.00  0.00    +0.520 C 
ATOM      4  O   LIG    1       -3.542  -1.240  -0.601  0.00  0.00    -0.540 OA
ENDROOT
BRANCH   2   5
ATOM      5  C   LIG    1       -2.640   1.220   0.032  0.00  0.00    +0.300 C 
ATOM      6  C   LIG    1       -3.513   2.409   0.486  0.00  0.00    +0.030 C 
ATOM      7  C   LIG    1       -2.671   3.625   0.045  0.00  0.00    +0.090 C 
ATOM      8  C   LIG    1       -1.240   3.132   0.029  0.00  0.00    -0.090 A 
ATOM      9  C   LIG    1       -0.048   3.836   0.022  0.00  0.00    +0.010 A 
ATOM     10  C   LIG    1        1.158   3.163   0.008  0.00  0.00    +0.020 A 
ATOM     11  C   LIG    1        1.176   1.780   0.000  0.00  0.00    +0.010 A 
ATOM     12  C   LIG    1       -0.013   1.076   0.008  0.00  0.00    +0.030 A 
ATOM     13  C   LIG    1       -1.222   1.749   0.017  0.00  0.00    -0.110 A 
ENDBRANCH   2   5
BRANCH   3  14
ATOM     14  C   LIG    1       -3.353  -2.229   1.533  0.00  0.00    +0.040 C 
BRANCH  14  15
ATOM     15  C   LIG    1       -3.899  -3.460   0.807  0.00  0.00    +0.370 C 
BRANCH  15  16
ATOM     16  N   LIG    1       -4.022  -4.571   1.753  0.00  0.00    -0.550 N 
ATOM     17  C   LIG    1       -5.104  -4.864   2.502  0.00  0.00    +0.640 A 
ATOM     18  O   LIG    1       -4.850  -5.951   3.249  0.00  0.00    -0.230 OA
ATOM     19  C   LIG    1       -3.590  -6.382   2.993  0.00  0.00    +0.050 A 
ATOM     20  C   LIG    1       -2.837  -7.439   3.478  0.00  0.00    +0.080 A 
ATOM     21  C   LIG    1       -1.548  -7.635   3.020  0.00  0.00    -0.030 A 
ATOM     22  C   LIG    1       -1.004  -6.778   2.077  0.00  0.00    +0.070 A 
ATOM     23  C   LIG    1       -1.748  -5.721   1.588  0.00  0.00    +0.060 A 
ATOM     24 CL   LIG    1       -0.605  -8.960   3.628  0.00  0.00    -0.040 Cl
ATOM     25  O   LIG    1       -6.148  -4.241   2.502  0.00  0.00    -0.470 OA
ATOM     26  C   LIG    1       -3.043  -5.523   2.040  0.00  0.00    +0.080 A 
ENDBRANCH  15  16
ENDBRANCH  14  15
ENDBRANCH   3  14
TORSDOF 4
