REMARK  Name = ZINCpk00000kS4X7.0
REMARK                            x       y       z     vdW  Elec       q    Type
REMARK                         _______ _______ _______ _____ _____    ______ ____
ROOT
ATOM      1  C   LIG    1       -4.378   4.259   5.103  0.00  0.00    +0.230 C 
ATOM      2  C   LIG    1       -5.479   3.351   5.675  0.00  0.00    +0.020 C 
ATOM      3  C   LIG    1       -4.793   3.513   7.042  0.00  0.00    +0.230 C 
ATOM      4  C   LIG    1       -4.237   4.847   6.517  0.00  0.00    +0.030 C 
ENDROOT
BRANCH   1   6
ATOM      5  C   LIG    1       -2.943   3.398   3.332  0.00  0.00    +0.610 C 
ATOM      6  N   LIG    1       -3.191   3.529   4.650  0.00  0.00    -0.710 N 
ATOM      7  H   LIG    1       -2.585   3.139   5.299  0.00  0.00    +0.410 HD
ATOM      8  O   LIG    1       -3.704   3.887   2.518  0.00  0.00    -0.510 OA
BRANCH   5  13
ATOM      9  C   LIG    1        1.300   0.740   3.421  0.00  0.00    +0.180 C 
ATOM     10  C   LIG    1        0.104   1.503   2.911  0.00  0.00    +0.030 A 
ATOM     11  C   LIG    1       -0.195   1.719   1.611  0.00  0.00    -0.200 A 
ATOM     12  C   LIG    1       -1.386   2.461   1.580  0.00  0.00    +0.080 A 
ATOM     13  C   LIG    1       -1.755   2.667   2.879  0.00  0.00    -0.090 A 
ATOM     14  O   LIG    1       -0.835   2.080   3.672  0.00  0.00    -0.160 OA
BRANCH  11  15
ATOM     15  C   LIG    1        0.597   1.247   0.419  0.00  0.00    +0.270 C 
BRANCH  15  16
ATOM     16  O   LIG    1       -0.050   1.673  -0.781  0.00  0.00    -0.570 OA
ATOM     17  H   LIG    1        0.406   1.403  -1.591  0.00  0.00    +0.390 HD
ENDBRANCH  15  16
ENDBRANCH  11  15
ENDBRANCH   5  13
ENDBRANCH   1   6
BRANCH   3  18
ATOM     18  N   LIG    1       -5.731   3.665   8.157  0.00  0.00    -0.720 N 
ATOM     19  H   LIG    1       -6.223   4.494   8.266  0.00  0.00    +0.400 HD
ATOM     20  C   LIG    1       -5.908   2.655   9.031  0.00  0.00    +0.520 C 
ATOM     21  O   LIG    1       -5.292   1.619   8.894  0.00  0.00    -0.530 OA
BRANCH  20  22
ATOM     22  C   LIG    1       -6.873   2.812  10.178  0.00  0.00    +0.050 C 
BRANCH  22  23
ATOM     23  C   LIG    1       -6.996   1.484  10.926  0.00  0.00    +0.120 C 
ATOM     24  C   LIG    1       -5.623   1.077  11.503  0.00  0.00    +0.020 C 
ATOM     25  C   LIG    1       -5.609  -0.458  11.271  0.00  0.00    +0.000 C 
ATOM     26  C   LIG    1       -6.394  -0.562   9.939  0.00  0.00    +0.210 C 
ATOM     27  C   LIG    1       -8.015   1.619  12.060  0.00  0.00    +0.040 C 
ATOM     28  O   LIG    1       -7.408   0.453  10.021  0.00  0.00    -0.370 OA
ENDBRANCH  22  23
ENDBRANCH  20  22
ENDBRANCH   3  18
TORSDOF 7
