REMARK  Name = ZINCpk00000y6uex.0
REMARK                            x       y       z     vdW  Elec       q    Type
REMARK                         _______ _______ _______ _____ _____    ______ ____
ROOT
ATOM      1  N   LIG    1       -0.723   1.572  -1.182  0.00  0.00    -0.530 NA
ATOM      2  C   LIG    1       -1.069   2.993  -1.044  0.00  0.00    +0.160 C 
ATOM      3  C   LIG    1       -2.001   3.404  -2.189  0.00  0.00    +0.080 C 
ATOM      4  C   LIG    1       -1.319   3.068  -3.520  0.00  0.00    -0.130 C 
ATOM      5  C   LIG    1       -0.512   4.169  -4.204  0.00  0.00    +0.020 C 
ATOM      6  C   LIG    1       -0.803   1.630  -3.630  0.00  0.00    +0.070 C 
ATOM      7  C   LIG    1       -1.859   3.732  -4.785  0.00  0.00    +0.240 C 
ATOM      8  C   LIG    1        0.058   1.323  -2.400  0.00  0.00    +0.180 C 
ENDROOT
BRANCH   7   9
ATOM      9  N   LIG    1       -1.839   2.946  -6.022  0.00  0.00    -0.700 N 
ATOM     10  H   LIG    1       -1.199   2.225  -6.128  0.00  0.00    +0.400 HD
ATOM     11  C   LIG    1       -2.709   3.227  -7.012  0.00  0.00    +0.600 C 
ATOM     12  O   LIG    1       -3.511   4.131  -6.879  0.00  0.00    -0.550 OA
BRANCH  11  13
ATOM     13  C   LIG    1       -2.689   2.436  -8.256  0.00  0.00    -0.300 A 
ATOM     14  C   LIG    1       -3.519   2.604  -9.347  0.00  0.00    +0.330 A 
ATOM     15  N   LIG    1       -3.169   1.687 -10.263  0.00  0.00    -0.460 N 
ATOM     16  H   LIG    1       -3.580   1.569 -11.133  0.00  0.00    +0.450 HD
ATOM     17  N   LIG    1       -2.115   0.924  -9.747  0.00  0.00    -0.290 NA
ATOM     18  C   LIG    1       -1.822   1.361  -8.554  0.00  0.00    +0.270 A 
ENDBRANCH  11  13
ENDBRANCH   7   9
BRANCH   1  19
ATOM     19  C   LIG    1       -0.013   1.086   0.008  0.00  0.00    +0.320 C 
BRANCH  19  23
ATOM     20  C   LIG    1       -1.622   2.678   3.232  0.00  0.00    +0.190 A 
ATOM     21  N   LIG    1       -2.131   1.531   2.901  0.00  0.00    -0.330 NA
ATOM     22  N   LIG    1       -1.671   0.959   1.874  0.00  0.00    -0.200 NA
ATOM     23  C   LIG    1       -0.718   1.572   1.248  0.00  0.00    -0.000 A 
ATOM     24  S   LIG    1       -0.399   3.082   2.103  0.00  0.00    +0.160 S 
BRANCH  20  25
ATOM     25  O   LIG    1       -1.996   3.432   4.295  0.00  0.00    -0.270 OA
BRANCH  25  27
ATOM     26  C   LIG    1       -3.324   3.897   6.260  0.00  0.00    +0.080 C 
ATOM     27  C   LIG    1       -3.042   2.915   5.121  0.00  0.00    +0.200 C 
ENDBRANCH  25  27
ENDBRANCH  20  25
ENDBRANCH  19  23
ENDBRANCH   1  19
TORSDOF 6
