REMARK  Name = ZINCbw0000000Hls.0
REMARK                            x       y       z     vdW  Elec       q    Type
REMARK                         _______ _______ _______ _____ _____    ______ ____
ROOT
ATOM      1  C   LIG    1       -0.005   1.120  -0.001  0.00  0.00    +0.090 C 
ATOM      2  C   LIG    1       -0.714   1.588   1.244  0.00  0.00    -0.070 A 
ATOM      3  C   LIG    1       -0.015   1.723   2.429  0.00  0.00    +0.010 A 
ATOM      4  C   LIG    1       -0.666   2.153   3.570  0.00  0.00    +0.010 A 
ATOM      5  C   LIG    1       -2.016   2.448   3.526  0.00  0.00    +0.000 A 
ATOM      6  C   LIG    1       -2.715   2.313   2.341  0.00  0.00    +0.020 A 
ATOM      7  C   LIG    1       -2.063   1.888   1.199  0.00  0.00    -0.090 A 
ENDROOT
BRANCH   7   8
ATOM      8  C   LIG    1       -2.824   1.747  -0.094  0.00  0.00    +0.170 C 
ATOM      9  C   LIG    1       -3.287   3.126  -0.567  0.00  0.00    +0.080 C 
BRANCH   8  10
ATOM     10  C   LIG    1       -3.996   0.882   0.118  0.00  0.00    +0.210 C 
ATOM     11  N   LIG    1       -4.900   0.214   0.281  0.00  0.00    -0.430 NA
ENDBRANCH   8  10
ENDBRANCH   7   8
TORSDOF 2
