REMARK  Name = ZINCrH000004nOIZ.0
REMARK                            x       y       z     vdW  Elec       q    Type
REMARK                         _______ _______ _______ _____ _____    ______ ____
ROOT
ATOM      1  C   LIG    1        1.905   5.938  -0.478  0.00  0.00    +0.560 C 
ATOM      2  N   LIG    1        0.748   5.465   0.024  0.00  0.00    -0.670 N 
ATOM      3  H   LIG    1        0.089   6.079   0.385  0.00  0.00    +0.410 HD
ATOM      4  O   LIG    1        2.689   5.181  -1.017  0.00  0.00    -0.500 OA
ENDROOT
BRANCH   2   5
ATOM      5  C   LIG    1        0.496   4.088   0.025  0.00  0.00    +0.150 A 
ATOM      6  C   LIG    1       -0.800   3.619  -0.140  0.00  0.00    +0.010 A 
ATOM      7  C   LIG    1       -1.051   2.259  -0.135  0.00  0.00    +0.060 A 
ATOM      8  C   LIG    1       -0.009   1.361   0.025  0.00  0.00    +0.020 A 
ATOM      9  O   LIG    1        0.010  -0.005   0.062  0.00  0.00    -0.290 OA
ATOM     10  C   LIG    1        1.274  -0.352   0.646  0.00  0.00    +0.270 C 
ATOM     11  O   LIG    1        2.128   0.757   0.331  0.00  0.00    -0.290 OA
ATOM     12  C   LIG    1        1.813  -1.635   0.022  0.00  0.00    +0.060 C 
ATOM     13  C   LIG    1        0.867  -2.795   0.341  0.00  0.00    +0.030 C 
ATOM     14  C   LIG    1        0.751  -2.955   1.858  0.00  0.00    +0.010 C 
ATOM     15  C   LIG    1        0.191  -1.669   2.468  0.00  0.00    +0.030 C 
ATOM     16  C   LIG    1        1.136  -0.505   2.157  0.00  0.00    +0.010 C 
ATOM     17  C   LIG    1        1.294   1.829   0.190  0.00  0.00    +0.060 A 
ATOM     18  C   LIG    1        1.543   3.191   0.190  0.00  0.00    +0.040 A 
ENDBRANCH   2   5
BRANCH   1  23
ATOM     19  C   LIG    1        3.710   9.217  -0.792  0.00  0.00    -0.670 A 
ATOM     20  C   LIG    1        2.816  10.076  -0.179  0.00  0.00    +0.150 A 
ATOM     21  C   LIG    1        1.627   9.593   0.338  0.00  0.00    +0.000 A 
ATOM     22  C   LIG    1        1.322   8.252   0.239  0.00  0.00    +0.110 A 
ATOM     23  C   LIG    1        2.222   7.378  -0.374  0.00  0.00    -0.160 A 
ATOM     24  C   LIG    1        3.420   7.871  -0.893  0.00  0.00    +0.200 A 
BRANCH  19  26
ATOM     25  C   LIG    1        4.823  10.287  -3.160  0.00  0.00    -0.250 C 
ATOM     26  S   LIG    1        5.222   9.842  -1.448  0.00  0.00    +2.500 S 
ATOM     27  O   LIG    1        6.105   8.729  -1.415  0.00  0.00    -0.930 OA
ATOM     28  O   LIG    1        5.482  11.007  -0.677  0.00  0.00    -0.930 OA
ENDBRANCH  19  26
ENDBRANCH   1  23
TORSDOF 3
