REMARK  Name = ZINCpe00000FUhim.0
REMARK                            x       y       z     vdW  Elec       q    Type
REMARK                         _______ _______ _______ _____ _____    ______ ____
ROOT
ATOM      1  N   LIG    1        1.049   9.782   2.434  0.00  0.00    -0.520 NA
ATOM      2  C   LIG    1        2.271   8.966   2.428  0.00  0.00    +0.170 C 
ATOM      3  C   LIG    1        2.379   8.224   1.092  0.00  0.00    +0.300 C 
ATOM      4  N   LIG    1        1.131   7.477   0.870  0.00  0.00    -0.610 N 
ATOM      5  C   LIG    1       -0.144   8.201   0.990  0.00  0.00    +0.290 C 
ATOM      6  C   LIG    1        1.156   6.166   0.560  0.00  0.00    +0.550 C 
ATOM      7  O   LIG    1        2.219   5.604   0.373  0.00  0.00    -0.530 OA
ATOM      8  C   LIG    1       -0.152   8.943   2.336  0.00  0.00    +0.190 C 
ENDROOT
BRANCH   6   9
ATOM      9  C   LIG    1       -0.097   5.416   0.449  0.00  0.00    -0.040 C 
ATOM     10  C   LIG    1       -0.070   4.085   0.238  0.00  0.00    +0.100 C 
BRANCH  10  11
ATOM     11  C   LIG    1       -1.330   3.332   0.126  0.00  0.00    -0.010 A 
ATOM     12  C   LIG    1       -2.545   4.010  -0.004  0.00  0.00    +0.050 A 
ATOM     13  C   LIG    1       -3.721   3.297  -0.109  0.00  0.00    +0.080 A 
ATOM     14  C   LIG    1       -3.700   1.914  -0.086  0.00  0.00    +0.040 A 
ATOM     15  C   LIG    1       -2.500   1.235   0.036  0.00  0.00    +0.090 A 
ATOM     16  C   LIG    1       -1.317   1.933   0.148  0.00  0.00    -0.020 A 
BRANCH  16  17
ATOM     17  N   LIG    1       -0.035   1.205   0.284  0.00  0.00    +0.020 N 
ATOM     18  O   LIG    1        0.835   1.636   1.020  0.00  0.00    -0.140 OA
ATOM     19  O   LIG    1        0.152   0.178  -0.344  0.00  0.00    -0.150 OA
ENDBRANCH  16  17
ENDBRANCH  10  11
ENDBRANCH   6   9
BRANCH   1  20
ATOM     20  C   LIG    1        0.996  10.641   3.625  0.00  0.00    +0.220 C 
BRANCH  20  23
ATOM     21  C   LIG    1       -1.467  13.488   4.317  0.00  0.00    +0.290 C 
ATOM     22  N   LIG    1       -0.372  12.526   4.458  0.00  0.00    -0.630 N 
ATOM     23  C   LIG    1       -0.131  11.631   3.480  0.00  0.00    +0.510 C 
ATOM     24  O   LIG    1       -0.822  11.622   2.483  0.00  0.00    -0.520 OA
ATOM     25  C   LIG    1        0.462  12.537   5.663  0.00  0.00    +0.280 C 
ENDBRANCH  20  23
ENDBRANCH   1  20
TORSDOF 5
