REMARK  Name = ZINCvU0000000Jjh.0
REMARK                            x       y       z     vdW  Elec       q    Type
REMARK                         _______ _______ _______ _____ _____    ______ ____
ROOT
ATOM      1  O   LIG    1        3.128   3.941   4.678  0.00  0.00    -0.500 OA
ATOM      2  C   LIG    1        2.875   3.298   3.681  0.00  0.00    +0.520 C 
ATOM      3  N   LIG    1        3.643   3.427   2.582  0.00  0.00    -0.670 N 
ATOM      4  H   LIG    1        3.482   2.865   1.808  0.00  0.00    +0.410 HD
ENDROOT
BRANCH   3   5
ATOM      5  C   LIG    1        4.675   4.374   2.556  0.00  0.00    +0.150 A 
ATOM      6  C   LIG    1        4.981   5.036   1.374  0.00  0.00    +0.020 A 
ATOM      7  C   LIG    1        5.995   5.973   1.350  0.00  0.00    +0.030 A 
ATOM      8  C   LIG    1        6.715   6.246   2.506  0.00  0.00    +0.110 A 
ATOM      9  C   LIG    1        6.413   5.580   3.686  0.00  0.00    +0.040 A 
ATOM     10  C   LIG    1        5.396   4.647   3.712  0.00  0.00    +0.050 A 
BRANCH   8  11
ATOM     11  N   LIG    1        7.748   7.194   2.480  0.00  0.00    -0.450 N 
ATOM     12  C   LIG    1        7.917   8.228   3.350  0.00  0.00    +0.490 A 
ATOM     13  N   LIG    1        8.979   8.910   3.032  0.00  0.00    -0.490 NA
ATOM     14  C   LIG    1        9.566   8.360   1.938  0.00  0.00    +0.050 A 
ATOM     15  C   LIG    1       10.703   8.681   1.192  0.00  0.00    +0.070 A 
ATOM     16  C   LIG    1       11.046   7.910   0.104  0.00  0.00    +0.000 A 
ATOM     17  C   LIG    1       10.272   6.817  -0.258  0.00  0.00    +0.030 A 
ATOM     18  C   LIG    1        9.147   6.487   0.468  0.00  0.00    +0.010 A 
ATOM     19  C   LIG    1        8.788   7.248   1.571  0.00  0.00    +0.050 A 
ENDBRANCH   8  11
ENDBRANCH   3   5
BRANCH   2  20
ATOM     20  C   LIG    1        1.700   2.353   3.672  0.00  0.00    +0.100 C 
BRANCH  20  21
ATOM     21  C   LIG    1        1.002   2.396   5.033  0.00  0.00    +0.070 C 
ATOM     22  S   LIG    1        0.266   4.038   5.291  0.00  0.00    -0.030 S 
ATOM     23  C   LIG    1       -1.136   3.976   4.221  0.00  0.00    -0.150 A 
ATOM     24  C   LIG    1       -1.614   5.139   3.637  0.00  0.00    +0.110 A 
ATOM     25  C   LIG    1       -2.725   5.092   2.815  0.00  0.00    +0.030 A 
ATOM     26  C   LIG    1       -3.356   3.885   2.576  0.00  0.00    +0.000 A 
ATOM     27  C   LIG    1       -2.880   2.721   3.151  0.00  0.00    +0.020 A 
ATOM     28 CL   LIG    1       -4.754   3.830   1.548  0.00  0.00    -0.050 Cl
ATOM     29  C   LIG    1       -1.761   2.754   3.978  0.00  0.00    +0.170 A 
ATOM     30  N   LIG    1       -1.297   1.566   4.535  0.00  0.00    -0.650 N 
ATOM     31  H   LIG    1       -1.908   0.813   4.535  0.00  0.00    +0.420 HD
ATOM     32  C   LIG    1       -0.096   1.365   5.070  0.00  0.00    +0.530 C 
ATOM     33  O   LIG    1        0.124   0.305   5.616  0.00  0.00    -0.500 OA
ENDBRANCH  20  21
ENDBRANCH   2  20
TORSDOF 4
