REMARK  Name = ZINCpe00000yza7a.2
REMARK                            x       y       z     vdW  Elec       q    Type
REMARK                         _______ _______ _______ _____ _____    ______ ____
ROOT
ATOM      1  N   LIG    1        2.396   0.543  -0.018  0.00  0.00    -0.710 N 
ATOM      2  H   LIG    1        2.149  -0.327   0.335  0.00  0.00    +0.400 HD
ATOM      3  C   LIG    1        3.630   0.740  -0.522  0.00  0.00    +0.520 C 
ATOM      4  O   LIG    1        3.938   1.827  -0.963  0.00  0.00    -0.510 OA
ENDROOT
BRANCH   1   8
ATOM      5  C   LIG    1        0.175   2.805   3.281  0.00  0.00    +0.180 C 
ATOM      6  N   LIG    1        0.529   1.866   2.209  0.00  0.00    -0.510 NA
ATOM      7  C   LIG    1        1.554   2.451   1.306  0.00  0.00    +0.170 C 
ATOM      8  C   LIG    1        1.426   1.641  -0.003  0.00  0.00    +0.260 C 
ATOM      9  C   LIG    1       -0.013   1.086   0.008  0.00  0.00    +0.070 C 
ATOM     10  C   LIG    1       -0.634   1.606   1.322  0.00  0.00    +0.190 C 
BRANCH   9  11
ATOM     11  C   LIG    1       -0.783   1.605  -1.179  0.00  0.00    -0.030 A 
ATOM     12  C   LIG    1       -0.646   2.812  -1.759  0.00  0.00    +0.160 A 
ATOM     13  N   LIG    1       -1.512   2.881  -2.782  0.00  0.00    -0.490 NA
ATOM     14  C   LIG    1       -2.179   1.763  -2.857  0.00  0.00    +0.400 A 
ATOM     15  N   LIG    1       -1.751   0.936  -1.879  0.00  0.00    -0.460 N 
ATOM     16  C   LIG    1       -2.235  -0.421  -1.613  0.00  0.00    +0.320 C 
ENDBRANCH   9  11
ENDBRANCH   1   8
BRANCH   3  17
ATOM     17  C   LIG    1        4.627  -0.390  -0.537  0.00  0.00    +0.240 C 
BRANCH  17  18
ATOM     18  O   LIG    1        5.852   0.064  -1.116  0.00  0.00    -0.280 OA
BRANCH  18  19
ATOM     19  C   LIG    1        6.863  -0.838  -1.206  0.00  0.00    +0.160 A 
ATOM     20  C   LIG    1        6.678  -2.134  -0.739  0.00  0.00    -0.070 A 
ATOM     21  C   LIG    1        7.699  -3.054  -0.833  0.00  0.00    +0.110 A 
ATOM     22  C   LIG    1        8.926  -2.679  -1.389  0.00  0.00    -0.070 A 
ATOM     23  C   LIG    1        9.109  -1.373  -1.851  0.00  0.00    +0.110 A 
ATOM     24  C   LIG    1        8.081  -0.461  -1.759  0.00  0.00    +0.000 A 
BRANCH  22  25
ATOM     25  C   LIG    1        9.992  -3.631  -1.484  0.00  0.00    +0.250 C 
ATOM     26  N   LIG    1       10.837  -4.386  -1.559  0.00  0.00    -0.420 NA
ENDBRANCH  22  25
ENDBRANCH  18  19
ENDBRANCH  17  18
ENDBRANCH   3  17
TORSDOF 6
