REMARK  Name = ZINCvU00000004BV.0
REMARK                            x       y       z     vdW  Elec       q    Type
REMARK                         _______ _______ _______ _____ _____    ______ ____
ROOT
ATOM      1  C   LIG    1       -0.049   0.070  -0.058  0.00  0.00    +0.150 A 
ATOM      2  N   LIG    1        0.066   1.298   0.395  0.00  0.00    -0.290 NA
ATOM      3  N   LIG    1        1.288   1.688   0.310  0.00  0.00    -0.260 NA
ATOM      4  C   LIG    1        2.028   0.733  -0.202  0.00  0.00    +0.230 A 
ATOM      5  N   LIG    1        1.195  -0.333  -0.454  0.00  0.00    -0.450 N 
ENDROOT
BRANCH   4   6
ATOM      6  C   LIG    1        3.483   0.791  -0.459  0.00  0.00    -0.010 A 
ATOM      7  C   LIG    1        4.267  -0.354  -0.307  0.00  0.00    +0.040 A 
ATOM      8  C   LIG    1        5.623  -0.295  -0.553  0.00  0.00    +0.030 A 
ATOM      9  C   LIG    1        6.208   0.899  -0.941  0.00  0.00    -0.020 A 
ATOM     10  C   LIG    1        5.436   2.039  -1.088  0.00  0.00    +0.040 A 
ATOM     11 CL   LIG    1        7.916   0.968  -1.242  0.00  0.00    -0.060 Cl
ATOM     12  C   LIG    1        4.078   1.991  -0.850  0.00  0.00    +0.080 A 
ENDBRANCH   4   6
BRANCH   1  13
ATOM     13  S   LIG    1       -1.530  -0.880  -0.139  0.00  0.00    +0.080 S 
BRANCH  13  14
ATOM     14  C   LIG    1       -2.706   0.311   0.548  0.00  0.00    +0.110 C 
BRANCH  14  17
ATOM     15  C   LIG    1       -4.921   1.774   1.541  0.00  0.00    +0.300 C 
ATOM     16  N   LIG    1       -5.126   0.408   1.052  0.00  0.00    -0.600 N 
ATOM     17  C   LIG    1       -4.083  -0.301   0.577  0.00  0.00    +0.530 C 
ATOM     18  O   LIG    1       -4.252  -1.432   0.173  0.00  0.00    -0.520 OA
BRANCH  16  19
ATOM     19  C   LIG    1       -6.464  -0.187   1.081  0.00  0.00    +0.390 C 
BRANCH  19  20
ATOM     20  C   LIG    1       -6.671  -0.895   2.395  0.00  0.00    -0.210 A 
ATOM     21  C   LIG    1       -7.176  -0.338   3.497  0.00  0.00    +0.020 A 
ATOM     22  C   LIG    1       -7.273  -1.186   4.587  0.00  0.00    +0.000 A 
ATOM     23  C   LIG    1       -6.847  -2.432   4.370  0.00  0.00    -0.060 A 
ATOM     24  S   LIG    1       -6.292  -2.583   2.708  0.00  0.00    +0.130 S 
ENDBRANCH  19  20
ENDBRANCH  16  19
ENDBRANCH  14  17
ENDBRANCH  13  14
ENDBRANCH   1  13
BRANCH   5  25
ATOM     25  C   LIG    1        1.565  -1.630  -1.026  0.00  0.00    +0.360 C 
BRANCH  25  26
ATOM     26  C   LIG    1        1.558  -1.535  -2.530  0.00  0.00    -0.130 A 
ATOM     27  C   LIG    1        0.404  -1.819  -3.236  0.00  0.00    +0.040 A 
ATOM     28  C   LIG    1        0.397  -1.727  -4.615  0.00  0.00    +0.010 A 
ATOM     29  C   LIG    1        1.547  -1.362  -5.290  0.00  0.00    +0.030 A 
ATOM     30  C   LIG    1        2.703  -1.083  -4.584  0.00  0.00    +0.010 A 
ATOM     31  C   LIG    1        2.708  -1.169  -3.205  0.00  0.00    +0.030 A 
ENDBRANCH  25  26
ENDBRANCH   5  25
TORSDOF 8
