REMARK  Name = ZINCqH0000002iWe.0
REMARK                            x       y       z     vdW  Elec       q    Type
REMARK                         _______ _______ _______ _____ _____    ______ ____
ROOT
ATOM      1  C   LIG    1        3.474   2.224  -1.204  0.00  0.00    +0.540 C 
ATOM      2  N   LIG    1        3.873   3.172  -2.075  0.00  0.00    -0.670 N 
ATOM      3  H   LIG    1        3.234   3.568  -2.688  0.00  0.00    +0.410 HD
ATOM      4  O   LIG    1        4.253   1.790  -0.381  0.00  0.00    -0.500 OA
ENDROOT
BRANCH   1  11
ATOM      5  C   LIG    1        3.230  -0.369  -1.827  0.00  0.00    +0.510 C 
ATOM      6  N   LIG    1        2.076   0.261  -1.529  0.00  0.00    -0.610 N 
ATOM      7  C   LIG    1        0.810  -0.483  -1.474  0.00  0.00    +0.270 C 
ATOM      8  C   LIG    1        0.144  -0.223  -0.119  0.00  0.00    +0.010 C 
ATOM      9  C   LIG    1       -0.004   1.286   0.091  0.00  0.00    +0.020 C 
ATOM     10  C   LIG    1        1.380   1.939   0.100  0.00  0.00    +0.040 C 
ATOM     11  C   LIG    1        2.061   1.704  -1.252  0.00  0.00    +0.220 C 
ATOM     12  O   LIG    1        4.250   0.271  -1.971  0.00  0.00    -0.500 OA
BRANCH   5  13
ATOM     13  C   LIG    1        3.252  -1.868  -1.981  0.00  0.00    +0.050 C 
BRANCH  13  15
ATOM     14  C   LIG    1        4.696  -3.847  -2.472  0.00  0.00    +0.010 C 
ATOM     15  C   LIG    1        4.673  -2.325  -2.316  0.00  0.00    +0.030 C 
ENDBRANCH  13  15
ENDBRANCH   5  13
ENDBRANCH   1  11
BRANCH   2  16
ATOM     16  C   LIG    1        5.210   3.584  -2.095  0.00  0.00    +0.180 A 
ATOM     17  C   LIG    1        5.931   3.656  -0.910  0.00  0.00    +0.030 A 
ATOM     18  C   LIG    1        7.250   4.058  -0.927  0.00  0.00    +0.060 A 
ATOM     19  C   LIG    1        7.857   4.403  -2.136  0.00  0.00    -0.040 A 
ATOM     20  C   LIG    1        7.127   4.335  -3.324  0.00  0.00    +0.050 A 
ATOM     21  C   LIG    1        5.811   3.927  -3.301  0.00  0.00    -0.010 A 
BRANCH  19  22
ATOM     22  C   LIG    1        9.269   4.839  -2.157  0.00  0.00    +0.000 A 
ATOM     23  C   LIG    1       10.096   4.959  -1.087  0.00  0.00    +0.170 A 
ATOM     24  N   LIG    1       11.286   5.378  -1.541  0.00  0.00    -0.480 NA
ATOM     25  C   LIG    1       11.217   5.527  -2.834  0.00  0.00    +0.190 A 
ATOM     26  C   LIG    1       12.342   5.989  -3.723  0.00  0.00    +0.220 C 
ATOM     27  O   LIG    1        9.983   5.202  -3.246  0.00  0.00    -0.200 OA
ENDBRANCH  19  22
ENDBRANCH   2  16
TORSDOF 5
