REMARK  Name = ZINCkj00000dEaB0.0
REMARK                            x       y       z     vdW  Elec       q    Type
REMARK                         _______ _______ _______ _____ _____    ______ ____
ROOT
ATOM      1  O   LIG    1       -1.075   1.936   0.026  0.00  0.00    -0.510 OA
ATOM      2  C   LIG    1       -0.016   1.343   0.010  0.00  0.00    +0.500 C 
ATOM      3  N   LIG    1        0.002  -0.004   0.002  0.00  0.00    -0.640 N 
ATOM      4  H   LIG    1        0.845  -0.477  -0.082  0.00  0.00    +0.420 HD
ENDROOT
BRANCH   3   5
ATOM      5  C   LIG    1       -1.196  -0.722   0.115  0.00  0.00    +0.080 A 
ATOM      6  C   LIG    1       -1.224  -1.929   0.800  0.00  0.00    +0.050 A 
ATOM      7  C   LIG    1       -2.403  -2.635   0.914  0.00  0.00    +0.020 A 
ATOM      8  C   LIG    1       -3.573  -2.151   0.334  0.00  0.00    +0.120 A 
ATOM      9  O   LIG    1       -4.824  -2.690   0.312  0.00  0.00    -0.300 OA
ATOM     10  C   LIG    1       -5.777  -1.663  -0.008  0.00  0.00    +0.240 C 
ATOM     11  C   LIG    1       -4.941  -0.669  -0.848  0.00  0.00    +0.090 C 
ATOM     12  C   LIG    1       -3.535  -0.942  -0.348  0.00  0.00    -0.160 A 
ATOM     13  C   LIG    1       -2.361  -0.231  -0.462  0.00  0.00    +0.080 A 
ENDBRANCH   3   5
BRANCH   2  14
ATOM     14  C   LIG    1        1.278   2.115  -0.006  0.00  0.00    +0.290 C 
BRANCH  14  15
ATOM     15  N   LIG    1        0.991   3.555   0.007  0.00  0.00    -0.490 N 
ATOM     16  H   LIG    1        0.472   3.787   0.841  0.00  0.00    +0.440 HD
ATOM     17  H   LIG    1        0.445   3.797  -0.806  0.00  0.00    +0.430 HD
BRANCH  15  18
ATOM     18  C   LIG    1        2.253   4.307  -0.009  0.00  0.00    +0.270 C 
BRANCH  18  19
ATOM     19  C   LIG    1        1.953   5.807   0.005  0.00  0.00    +0.160 C 
ATOM     20  C   LIG    1        3.268   6.605  -0.128  0.00  0.00    +0.040 C 
ATOM     21  C   LIG    1        3.032   7.793   0.845  0.00  0.00    +0.030 C 
ATOM     22  C   LIG    1        2.189   7.106   1.949  0.00  0.00    +0.220 C 
ATOM     23  O   LIG    1        1.350   6.171   1.252  0.00  0.00    -0.380 OA
ENDBRANCH  18  19
ENDBRANCH  15  18
ENDBRANCH  14  15
ENDBRANCH   2  14
TORSDOF 5
