REMARK  Name = ZINCvU000000079z.0
REMARK                            x       y       z     vdW  Elec       q    Type
REMARK                         _______ _______ _______ _____ _____    ______ ____
ROOT
ATOM      1  N   LIG    1        3.258   2.618   0.926  0.00  0.00    -0.700 N 
ATOM      2  H   LIG    1        4.050   2.360   1.423  0.00  0.00    +0.410 HD
ENDROOT
BRANCH   1   3
ATOM      3  C   LIG    1        2.073   1.927   1.105  0.00  0.00    +0.490 A 
ATOM      4  C   LIG    1        2.003   0.839   2.014  0.00  0.00    -0.230 A 
ATOM      5  C   LIG    1        3.022   0.261   2.864  0.00  0.00    +0.070 A 
ATOM      6  C   LIG    1        2.610  -0.769   3.603  0.00  0.00    -0.140 A 
ATOM      7  S   LIG    1        0.916  -1.120   3.314  0.00  0.00    +0.190 S 
ATOM      8  C   LIG    1        0.774   0.184   2.146  0.00  0.00    +0.120 A 
ATOM      9  N   LIG    1       -0.269   0.607   1.419  0.00  0.00    -0.530 NA
ATOM     10  C   LIG    1       -0.152   1.619   0.591  0.00  0.00    +0.560 A 
ATOM     11  N   LIG    1        0.986   2.270   0.430  0.00  0.00    -0.580 NA
BRANCH   6  12
ATOM     12  C   LIG    1        3.469  -1.517   4.545  0.00  0.00    -0.020 A 
ATOM     13  C   LIG    1        4.810  -1.164   4.704  0.00  0.00    +0.020 A 
ATOM     14  C   LIG    1        5.604  -1.862   5.589  0.00  0.00    +0.020 A 
ATOM     15  C   LIG    1        5.077  -2.919   6.311  0.00  0.00    +0.020 A 
ATOM     16  C   LIG    1        3.751  -3.278   6.154  0.00  0.00    +0.020 A 
ATOM     17  C   LIG    1        2.944  -2.584   5.277  0.00  0.00    +0.010 A 
ENDBRANCH   6  12
ENDBRANCH   1   3
BRANCH   1  18
ATOM     18  C   LIG    1        3.317   3.740  -0.015  0.00  0.00    +0.330 C 
BRANCH  18  22
ATOM     19  C   LIG    1        7.268   5.375  -0.037  0.00  0.00    -0.120 A 
ATOM     20  C   LIG    1        6.930   4.347  -0.919  0.00  0.00    +0.070 A 
ATOM     21  C   LIG    1        5.653   3.824  -0.907  0.00  0.00    +0.030 A 
ATOM     22  C   LIG    1        4.709   4.316  -0.023  0.00  0.00    -0.090 A 
ATOM     23  C   LIG    1        5.037   5.338   0.850  0.00  0.00    +0.030 A 
ATOM     24  C   LIG    1        6.311   5.866   0.852  0.00  0.00    +0.050 A 
BRANCH  19  26
ATOM     25  O   LIG    1        9.224   6.088  -1.098  0.00  0.00    -0.530 OA
ATOM     26  C   LIG    1        8.634   5.941  -0.045  0.00  0.00    +0.560 C 
ATOM     27  N   LIG    1        9.225   6.292   1.114  0.00  0.00    -0.610 N 
ATOM     28  C   LIG    1        8.575   6.010   2.401  0.00  0.00    +0.260 C 
ATOM     29  C   LIG    1        9.561   5.234   3.287  0.00  0.00    +0.010 C 
ATOM     30  C   LIG    1       10.866   6.026   3.402  0.00  0.00    +0.020 C 
ATOM     31  C   LIG    1       11.490   6.189   2.014  0.00  0.00    +0.010 C 
ATOM     32  C   LIG    1       10.528   6.970   1.114  0.00  0.00    +0.270 C 
ENDBRANCH  19  26
ENDBRANCH  18  22
ENDBRANCH   1  18
TORSDOF 5
