REMARK  Name = ZINCtV00000L6job.0
REMARK                            x       y       z     vdW  Elec       q    Type
REMARK                         _______ _______ _______ _____ _____    ______ ____
ROOT
ATOM      1  C   LIG    1       -0.713   1.739   0.601  0.00  0.00    -0.160 A 
ATOM      2  C   LIG    1        0.521   2.385   0.451  0.00  0.00    +0.300 A 
ATOM      3  N   LIG    1        1.779   1.933   0.420  0.00  0.00    -0.460 NA
ATOM      4  C   LIG    1        2.795   2.754   0.265  0.00  0.00    +0.230 A 
ATOM      5  C   LIG    1        2.578   4.125   0.127  0.00  0.00    -0.060 A 
ATOM      6  C   LIG    1        1.286   4.608   0.157  0.00  0.00    +0.440 A 
ATOM      7  C   LIG    1        4.200   2.211   0.234  0.00  0.00    +0.160 C 
ATOM      8  N   LIG    1        0.253   3.722   0.321  0.00  0.00    -0.320 N 
ATOM      9  N   LIG    1       -1.133   3.893   0.390  0.00  0.00    -0.250 NA
ATOM     10  C   LIG    1       -1.705   2.725   0.549  0.00  0.00    +0.040 A 
ENDROOT
BRANCH   1  15
ATOM     11  C   LIG    1       -1.547  -3.917   1.278  0.00  0.00    +0.090 C 
ATOM     12  C   LIG    1       -1.329  -2.436   1.100  0.00  0.00    -0.080 A 
ATOM     13  C   LIG    1       -1.661  -1.563   2.121  0.00  0.00    +0.000 A 
ATOM     14  C   LIG    1       -1.464  -0.207   1.965  0.00  0.00    +0.020 A 
ATOM     15  C   LIG    1       -0.927   0.284   0.775  0.00  0.00    -0.010 A 
ATOM     16  C   LIG    1       -0.600  -0.600  -0.253  0.00  0.00    +0.040 A 
ATOM     17  C   LIG    1       -0.797  -1.955  -0.083  0.00  0.00    +0.000 A 
ENDBRANCH   1  15
BRANCH  10  18
ATOM     18  C   LIG    1       -3.188   2.483   0.662  0.00  0.00    +0.560 C 
ATOM     19  F   LIG    1       -3.494   1.215   0.156  0.00  0.00    -0.150 F 
ATOM     20  F   LIG    1       -3.877   3.456  -0.071  0.00  0.00    -0.160 F 
ATOM     21  F   LIG    1       -3.571   2.554   2.006  0.00  0.00    -0.160 F 
ENDBRANCH  10  18
BRANCH   6  22
ATOM     22  N   LIG    1        1.039   5.958   0.024  0.00  0.00    -0.670 N 
ATOM     23  H   LIG    1        1.430   6.586   0.651  0.00  0.00    +0.430 HD
BRANCH  22  24
ATOM     24  C   LIG    1        0.225   6.420  -1.014  0.00  0.00    +0.190 A 
ATOM     25  C   LIG    1       -0.202   5.547  -2.006  0.00  0.00    -0.050 A 
ATOM     26  C   LIG    1       -1.011   6.006  -3.027  0.00  0.00    +0.060 A 
ATOM     27  C   LIG    1       -1.386   7.336  -3.068  0.00  0.00    -0.020 A 
ATOM     28  C   LIG    1       -0.959   8.210  -2.085  0.00  0.00    -0.050 A 
ATOM     29  C   LIG    1       -1.370   9.659  -2.135  0.00  0.00    +0.090 C 
ATOM     30  C   LIG    1       -0.154   7.756  -1.058  0.00  0.00    -0.030 A 
ENDBRANCH  22  24
ENDBRANCH   6  22
TORSDOF 4
