REMARK  Name = ZINCpk00000KfL1p.0
REMARK                            x       y       z     vdW  Elec       q    Type
REMARK                         _______ _______ _______ _____ _____    ______ ____
ROOT
ATOM      1  C   LIG    1        2.020   5.814   0.014  0.00  0.00    +0.340 C 
ATOM      2  C   LIG    1        3.470   6.340   0.031  0.00  0.00    +0.060 C 
ATOM      3  C   LIG    1        4.269   5.139   0.603  0.00  0.00    +0.060 C 
ATOM      4  C   LIG    1        3.505   3.938  -0.004  0.00  0.00    +0.260 C 
ATOM      5  N   LIG    1        2.088   4.346   0.005  0.00  0.00    -0.610 N 
ATOM      6  C   LIG    1        1.030   3.510   0.011  0.00  0.00    +0.530 C 
ATOM      7  O   LIG    1       -0.097   3.958   0.024  0.00  0.00    -0.500 OA
ENDROOT
BRANCH   1  10
ATOM      8  C   LIG    1        0.031   7.351  -2.541  0.00  0.00    +0.190 A 
ATOM      9  N   LIG    1        0.357   7.247  -1.275  0.00  0.00    -0.470 NA
ATOM     10  C   LIG    1        1.312   6.302  -1.224  0.00  0.00    +0.170 A 
ATOM     11  N   LIG    1        1.510   5.882  -2.438  0.00  0.00    -0.370 NA
ATOM     12  O   LIG    1        0.784   6.472  -3.210  0.00  0.00    +0.080 OA
BRANCH   8  14
ATOM     13  C   LIG    1       -0.333   9.604  -3.510  0.00  0.00    +0.050 C 
ATOM     14  C   LIG    1       -0.999   8.281  -3.129  0.00  0.00    +0.180 C 
ENDBRANCH   8  14
ENDBRANCH   1  10
BRANCH   6  15
ATOM     15  C   LIG    1        1.248   2.019   0.001  0.00  0.00    +0.250 C 
BRANCH  15  16
ATOM     16  O   LIG    1       -0.016   1.353   0.009  0.00  0.00    -0.280 OA
BRANCH  16  17
ATOM     17  C   LIG    1        0.002  -0.004   0.002  0.00  0.00    +0.160 A 
ATOM     18  C   LIG    1        1.216  -0.681  -0.019  0.00  0.00    -0.090 A 
ATOM     19  C   LIG    1        1.239  -2.058  -0.022  0.00  0.00    +0.090 A 
ATOM     20  C   LIG    1        0.040  -2.774  -0.014  0.00  0.00    -0.180 A 
ATOM     21  C   LIG    1       -1.179  -2.091   0.002  0.00  0.00    +0.140 A 
ATOM     22  C   LIG    1       -1.193  -0.714   0.010  0.00  0.00    -0.010 A 
BRANCH  20  23
ATOM     23  C   LIG    1        0.060  -4.250  -0.023  0.00  0.00    +0.570 C 
ATOM     24  O   LIG    1       -0.985  -4.872  -0.017  0.00  0.00    -0.540 OA
ATOM     25  N   LIG    1        1.236  -4.908  -0.038  0.00  0.00    -0.850 N 
ATOM     26  H   LIG    1        1.249  -5.878  -0.044  0.00  0.00    +0.410 HD
ATOM     27  H   LIG    1        2.069  -4.412  -0.043  0.00  0.00    +0.400 HD
ENDBRANCH  20  23
ENDBRANCH  16  17
ENDBRANCH  15  16
ENDBRANCH   6  15
TORSDOF 6
