REMARK  Name = ZINCah0000002Bme.0
REMARK                            x       y       z     vdW  Elec       q    Type
REMARK                         _______ _______ _______ _____ _____    ______ ____
ROOT
ATOM      1  C   LIG    1       -1.227   1.770   0.021  0.00  0.00    +0.310 A 
ATOM      2  C   LIG    1       -0.019   1.076   0.009  0.00  0.00    -0.100 A 
ATOM      3  C   LIG    1        1.165   1.785  -0.003  0.00  0.00    +0.240 A 
ATOM      4  N   LIG    1        1.174   3.108   0.004  0.00  0.00    -0.530 NA
ATOM      5  C   LIG    1        0.064   3.815   0.021  0.00  0.00    +0.410 A 
ATOM      6 CL   LIG    1        2.673   0.924  -0.025  0.00  0.00    -0.020 Cl
ATOM      7  C   LIG    1       -1.183   3.182   0.034  0.00  0.00    -0.330 A 
ENDROOT
BRANCH   1   8
ATOM      8  N   LIG    1       -2.435   1.095   0.027  0.00  0.00    -0.840 N 
ATOM      9  H   LIG    1       -3.267   1.590  -0.039  0.00  0.00    +0.410 HD
ATOM     10  H   LIG    1       -2.450   0.128   0.098  0.00  0.00    +0.410 HD
ENDBRANCH   1   8
BRANCH   7  11
ATOM     11  C   LIG    1       -2.420   3.968   0.054  0.00  0.00    +0.490 C 
ATOM     12  O   LIG    1       -2.370   5.176   0.154  0.00  0.00    -0.460 OA
ENDBRANCH   7  11
TORSDOF 2
