REMARK  Name = ZINCrg000000sYHX.0
REMARK                            x       y       z     vdW  Elec       q    Type
REMARK                         _______ _______ _______ _____ _____    ______ ____
ROOT
ATOM      1  N   LIG    1       -3.710   2.939   0.036  0.00  0.00    -0.470 N 
ATOM      2  C   LIG    1       -4.412   3.460  -1.152  0.00  0.00    +0.200 C 
ATOM      3  C   LIG    1       -5.565   4.352  -0.646  0.00  0.00    +0.000 C 
ATOM      4  C   LIG    1       -5.104   4.742   0.783  0.00  0.00    +0.260 C 
ATOM      5  C   LIG    1       -4.390   3.448   1.246  0.00  0.00    +0.190 C 
ENDROOT
BRANCH   1  11
ATOM      6  C   LIG    1       -2.454   0.869   0.018  0.00  0.00    -0.120 A 
ATOM      7  C   LIG    1       -2.440  -0.527   0.005  0.00  0.00    +0.050 A 
ATOM      8  C   LIG    1       -3.627  -1.227   0.012  0.00  0.00    +0.000 A 
ATOM      9  C   LIG    1       -4.838  -0.552   0.021  0.00  0.00    +0.050 A 
ATOM     10  C   LIG    1       -4.868   0.828   0.029  0.00  0.00    -0.030 A 
ATOM     11  C   LIG    1       -3.682   1.550   0.028  0.00  0.00    +0.150 A 
BRANCH   6  15
ATOM     12  N   LIG    1       -0.011   0.966   0.007  0.00  0.00    -0.860 N 
ATOM     13  H   LIG    1        0.822   1.462   0.002  0.00  0.00    +0.400 HD
ATOM     14  H   LIG    1        0.002  -0.004   0.002  0.00  0.00    +0.400 HD
ATOM     15  C   LIG    1       -1.187   1.624   0.017  0.00  0.00    +0.560 C 
ATOM     16  O   LIG    1       -1.204   2.840   0.023  0.00  0.00    -0.500 OA
ENDBRANCH   6  15
ENDBRANCH   1  11
BRANCH   4  17
ATOM     17  N   LIG    1       -6.253   5.043   1.640  0.00  0.00    -0.720 N 
ATOM     18  H   LIG    1       -6.638   4.348   2.196  0.00  0.00    +0.400 HD
ATOM     19  C   LIG    1       -6.773   6.287   1.658  0.00  0.00    +0.610 C 
ATOM     20  O   LIG    1       -6.289   7.159   0.960  0.00  0.00    -0.550 OA
BRANCH  19  21
ATOM     21  C   LIG    1       -7.921   6.587   2.515  0.00  0.00    -0.350 A 
ATOM     22  C   LIG    1       -8.570   7.833   2.645  0.00  0.00    +0.220 A 
ATOM     23  C   LIG    1       -8.355   9.081   2.056  0.00  0.00    -0.070 A 
ATOM     24  C   LIG    1       -9.181  10.137   2.397  0.00  0.00    +0.260 A 
ATOM     25  C   LIG    1      -10.216   9.924   3.329  0.00  0.00    -0.050 A 
ATOM     26  C   LIG    1      -10.399   8.703   3.872  0.00  0.00    +0.340 A 
ATOM     27  N   LIG    1       -9.585   7.659   3.543  0.00  0.00    -0.290 N 
ATOM     28  N   LIG    1       -9.559   6.325   3.970  0.00  0.00    -0.330 NA
ATOM     29  C   LIG    1       -8.586   5.691   3.371  0.00  0.00    +0.320 A 
BRANCH  24  30
ATOM     30  N   LIG    1       -8.993  11.391   1.827  0.00  0.00    -0.850 N 
ATOM     31  H   LIG    1       -9.576  12.127   2.071  0.00  0.00    +0.410 HD
ATOM     32  H   LIG    1       -8.279  11.531   1.186  0.00  0.00    +0.410 HD
ENDBRANCH  24  30
ENDBRANCH  19  21
ENDBRANCH   4  17
TORSDOF 5
