REMARK  Name = ZINCvU0000000CJK.0
REMARK                            x       y       z     vdW  Elec       q    Type
REMARK                         _______ _______ _______ _____ _____    ______ ____
ROOT
ATOM      1  S   LIG    1        2.674   0.820  -0.068  0.00  0.00    +0.060 S 
ENDROOT
BRANCH   1   2
ATOM      2  C   LIG    1        4.018   1.960  -0.047  0.00  0.00    +0.070 A 
ATOM      3  C   LIG    1        5.343   1.504   0.145  0.00  0.00    -0.060 A 
ATOM      4  C   LIG    1        5.660   0.154   0.325  0.00  0.00    +0.050 A 
ATOM      5  C   LIG    1        6.962  -0.210   0.503  0.00  0.00    +0.050 A 
ATOM      6  C   LIG    1        7.979   0.741   0.510  0.00  0.00    +0.050 A 
ATOM      7  C   LIG    1        7.703   2.066   0.337  0.00  0.00    +0.050 A 
ATOM      8  C   LIG    1        6.379   2.473   0.151  0.00  0.00    -0.050 A 
ATOM      9  C   LIG    1        6.013   3.830  -0.036  0.00  0.00    +0.150 A 
ATOM     10  N   LIG    1        4.737   4.131  -0.205  0.00  0.00    -0.240 NA
ATOM     11  N   LIG    1        3.803   3.255  -0.216  0.00  0.00    -0.270 NA
BRANCH   9  12
ATOM     12  C   LIG    1        7.044   4.893  -0.040  0.00  0.00    -0.050 A 
ATOM     13  C   LIG    1        6.826   6.082   0.655  0.00  0.00    +0.050 A 
ATOM     14  C   LIG    1        7.793   7.067   0.652  0.00  0.00    +0.010 A 
ATOM     15  C   LIG    1        8.971   6.881  -0.049  0.00  0.00    +0.030 A 
ATOM     16  C   LIG    1        9.191   5.705  -0.744  0.00  0.00    +0.010 A 
ATOM     17  C   LIG    1        8.235   4.711  -0.744  0.00  0.00    +0.030 A 
ENDBRANCH   9  12
ENDBRANCH   1   2
BRANCH   1  18
ATOM     18  C   LIG    1        1.297   1.962  -0.340  0.00  0.00    +0.100 C 
BRANCH  18  20
ATOM     19  O   LIG    1        0.015  -0.018  -0.264  0.00  0.00    -0.520 OA
ATOM     20  C   LIG    1        0.005   1.188  -0.395  0.00  0.00    +0.530 C 
ATOM     21  N   LIG    1       -1.160   1.835  -0.596  0.00  0.00    -0.710 N 
ATOM     22  H   LIG    1       -1.168   2.799  -0.701  0.00  0.00    +0.410 HD
BRANCH  21  23
ATOM     23  C   LIG    1       -2.415   1.081  -0.655  0.00  0.00    +0.290 C 
ATOM     24  C   LIG    1       -3.441   1.865  -1.478  0.00  0.00    +0.010 C 
ATOM     25  C   LIG    1       -4.816   1.213  -1.281  0.00  0.00    +0.260 C 
ATOM     26  O   LIG    1       -5.192   1.361   0.089  0.00  0.00    -0.310 OA
ATOM     27  C   LIG    1       -4.284   1.015   1.038  0.00  0.00    +0.140 A 
ATOM     28  C   LIG    1       -4.730   0.805   2.338  0.00  0.00    -0.020 A 
ATOM     29  C   LIG    1       -3.837   0.456   3.331  0.00  0.00    +0.050 A 
ATOM     30  C   LIG    1       -2.495   0.315   3.034  0.00  0.00    -0.040 A 
ATOM     31  C   LIG    1       -2.048   0.520   1.743  0.00  0.00    +0.060 A 
ATOM     32  C   LIG    1       -2.940   0.869   0.742  0.00  0.00    -0.180 A 
ENDBRANCH  21  23
ENDBRANCH  18  20
ENDBRANCH   1  18
TORSDOF 5
