REMARK  Name = ZINCrH000004lLra.0
REMARK                            x       y       z     vdW  Elec       q    Type
REMARK                         _______ _______ _______ _____ _____    ______ ____
ROOT
ATOM      1  C   LIG    1       -2.126  -0.257  -1.298  0.00  0.00    +0.500 C 
ATOM      2  N   LIG    1       -2.910  -0.665  -0.281  0.00  0.00    -0.570 N 
ATOM      3  O   LIG    1       -2.593   0.419  -2.190  0.00  0.00    -0.500 OA
ENDROOT
BRANCH   2   4
ATOM      4  C   LIG    1       -4.284  -0.389  -0.301  0.00  0.00    +0.160 A 
ATOM      5  C   LIG    1       -5.165  -1.290  -0.882  0.00  0.00    +0.070 A 
ATOM      6  C   LIG    1       -6.523  -1.017  -0.901  0.00  0.00    +0.050 A 
ATOM      7  C   LIG    1       -7.002   0.163  -0.337  0.00  0.00    +0.050 A 
ATOM      8  O   LIG    1       -8.360   0.196  -0.482  0.00  0.00    -0.300 OA
ATOM      9  C   LIG    1       -8.661  -0.776  -1.501  0.00  0.00    +0.440 C 
ATOM     10  C   LIG    1       -6.120   1.060   0.244  0.00  0.00    +0.060 A 
ATOM     11  O   LIG    1       -7.580  -1.722  -1.401  0.00  0.00    -0.300 OA
ATOM     12  C   LIG    1       -4.765   0.784   0.267  0.00  0.00    -0.020 A 
ATOM     13 CL   LIG    1       -3.664   1.908   1.000  0.00  0.00    -0.040 Cl
ENDBRANCH   2   4
BRANCH   2  14
ATOM     14  C   LIG    1       -2.327  -1.398   0.845  0.00  0.00    +0.230 C 
ATOM     15  C   LIG    1       -3.019  -2.756   0.984  0.00  0.00    +0.010 C 
ATOM     16  C   LIG    1       -2.410  -3.522   2.160  0.00  0.00    +0.020 C 
ATOM     17  C   LIG    1       -2.603  -2.717   3.447  0.00  0.00    +0.010 C 
ATOM     18  C   LIG    1       -1.911  -1.360   3.309  0.00  0.00    +0.010 C 
ATOM     19  C   LIG    1       -2.520  -0.594   2.132  0.00  0.00    +0.000 C 
ENDBRANCH   2  14
BRANCH   1  20
ATOM     20  C   LIG    1       -0.669  -0.639  -1.326  0.00  0.00    +0.180 C 
BRANCH  20  21
ATOM     21  C   LIG    1        0.079   0.117  -0.226  0.00  0.00    -0.020 C 
ATOM     22  C   LIG    1        1.581  -0.258  -0.231  0.00  0.00    +0.020 C 
ATOM     23  C   LIG    1        2.258   1.112   0.029  0.00  0.00    +0.210 C 
ATOM     24  O   LIG    1        1.431   2.041  -0.704  0.00  0.00    -0.370 OA
ATOM     25  C   LIG    1        0.067   1.632  -0.510  0.00  0.00    +0.220 C 
ENDBRANCH  20  21
BRANCH  20  27
ATOM     26  C   LIG    1       -0.205  -1.347  -3.569  0.00  0.00    +0.220 C 
ATOM     27  O   LIG    1       -0.112  -0.302  -2.599  0.00  0.00    -0.340 OA
ENDBRANCH  20  27
ENDBRANCH   1  20
TORSDOF 5
