REMARK  Name = ZINCpe00000ccpdW.0
REMARK                            x       y       z     vdW  Elec       q    Type
REMARK                         _______ _______ _______ _____ _____    ______ ____
ROOT
ATOM      1  C   LIG    1        1.705  -1.274   1.218  0.00  0.00    +0.500 C 
ATOM      2  N   LIG    1        2.778  -2.089   1.239  0.00  0.00    -0.600 N 
ATOM      3  C   LIG    1        3.653  -2.199   0.064  0.00  0.00    +0.270 C 
ATOM      4  C   LIG    1        3.749  -3.667  -0.350  0.00  0.00    +0.050 C 
ATOM      5  C   LIG    1        4.148  -4.505   0.864  0.00  0.00    -0.080 C 
ATOM      6  C   LIG    1        4.482  -5.962   0.519  0.00  0.00    +0.030 C 
ATOM      7  C   LIG    1        5.931  -5.494   0.305  0.00  0.00    +0.250 C 
ATOM      8  C   LIG    1        3.175  -4.363   2.033  0.00  0.00    +0.030 C 
ATOM      9  C   LIG    1        5.618  -4.336   1.268  0.00  0.00    +0.030 C 
ATOM     10  C   LIG    1        3.085  -2.886   2.434  0.00  0.00    +0.280 C 
ATOM     11  O   LIG    1        0.986  -1.194   2.191  0.00  0.00    -0.510 OA
ENDROOT
BRANCH   1  16
ATOM     12  O   LIG    1       -1.043   1.985   0.018  0.00  0.00    -0.510 OA
ATOM     13  C   LIG    1       -0.016   1.336   0.009  0.00  0.00    +0.650 C 
ATOM     14  N   LIG    1        0.002  -0.004   0.002  0.00  0.00    -0.710 N 
ATOM     15  H   LIG    1       -0.779  -0.579   0.006  0.00  0.00    +0.440 HD
ATOM     16  C   LIG    1        1.400  -0.461  -0.014  0.00  0.00    +0.200 C 
ATOM     17  C   LIG    1        2.214   0.847  -0.015  0.00  0.00    +0.290 C 
ATOM     18  O   LIG    1        1.200   1.893   0.001  0.00  0.00    -0.320 OA
ENDBRANCH   1  16
BRANCH   7  19
ATOM     19  N   LIG    1        6.934  -6.430   0.820  0.00  0.00    -0.720 N 
ATOM     20  H   LIG    1        7.067  -6.520   1.777  0.00  0.00    +0.400 HD
ATOM     21  C   LIG    1        7.672  -7.165  -0.035  0.00  0.00    +0.590 C 
ATOM     22  O   LIG    1        7.505  -7.051  -1.235  0.00  0.00    -0.530 OA
BRANCH  21  23
ATOM     23  C   LIG    1        8.681  -8.106   0.483  0.00  0.00    -0.240 A 
ATOM     24  C   LIG    1        8.987  -8.350   1.790  0.00  0.00    +0.230 A 
ATOM     25  O   LIG    1        9.954  -9.271   1.832  0.00  0.00    -0.170 OA
ATOM     26  C   LIG    1       10.306  -9.652   0.594  0.00  0.00    +0.170 A 
ATOM     27  C   LIG    1        9.562  -8.984  -0.300  0.00  0.00    -0.010 A 
ENDBRANCH  21  23
ENDBRANCH   7  19
TORSDOF 3
