REMARK  Name = ZINCqH0000008rdW.1
REMARK                            x       y       z     vdW  Elec       q    Type
REMARK                         _______ _______ _______ _____ _____    ______ ____
ROOT
ATOM      1  C   LIG    1       -2.006   8.402   2.216  0.00  0.00    +0.530 C 
ATOM      2  N   LIG    1       -1.883   9.523   2.953  0.00  0.00    -0.550 N 
ATOM      3  C   LIG    1       -0.825  10.420   2.736  0.00  0.00    +0.110 A 
ATOM      4  C   LIG    1        0.396   9.981   2.256  0.00  0.00    +0.010 A 
ATOM      5  C   LIG    1        1.422  10.889   2.058  0.00  0.00    +0.020 A 
ATOM      6  C   LIG    1        1.228  12.229   2.338  0.00  0.00    +0.030 A 
ATOM      7  C   LIG    1        0.009  12.674   2.816  0.00  0.00    +0.010 A 
ATOM      8  C   LIG    1       -1.024  11.773   3.016  0.00  0.00    +0.130 A 
ATOM      9  N   LIG    1       -2.268  12.204   3.490  0.00  0.00    -0.660 N 
ATOM     10  H   LIG    1       -2.480  13.150   3.490  0.00  0.00    +0.420 HD
ATOM     11  C   LIG    1       -3.175  11.319   3.946  0.00  0.00    +0.520 C 
ATOM     12  O   LIG    1       -4.263  11.710   4.312  0.00  0.00    -0.500 OA
ATOM     13  C   LIG    1       -2.857   9.851   4.005  0.00  0.00    +0.160 C 
ATOM     14  C   LIG    1       -2.263   9.514   5.374  0.00  0.00    +0.070 C 
ATOM     15  C   LIG    1       -4.137   9.041   3.788  0.00  0.00    +0.110 C 
ATOM     16  O   LIG    1       -2.968   7.678   2.368  0.00  0.00    -0.490 OA
ENDROOT
BRANCH   1  17
ATOM     17  C   LIG    1       -0.949   8.046   1.202  0.00  0.00    +0.220 C 
BRANCH  17  18
ATOM     18  N   LIG    1       -1.477   7.034   0.278  0.00  0.00    -0.670 NA
ATOM     19  H   LIG    1       -1.805   6.222   0.779  0.00  0.00    +0.360 HD
BRANCH  18  21
ATOM     20  C   LIG    1       -0.521   7.655  -1.889  0.00  0.00    +0.050 C 
ATOM     21  C   LIG    1       -0.472   6.662  -0.727  0.00  0.00    +0.190 C 
BRANCH  21  22
ATOM     22  C   LIG    1       -0.762   5.275  -1.238  0.00  0.00    -0.090 A 
ATOM     23  C   LIG    1        0.277   4.394  -1.474  0.00  0.00    +0.030 A 
ATOM     24  C   LIG    1        0.011   3.121  -1.942  0.00  0.00    +0.020 A 
ATOM     25  C   LIG    1       -1.295   2.729  -2.177  0.00  0.00    -0.030 A 
ATOM     26  C   LIG    1       -2.334   3.613  -1.947  0.00  0.00    +0.020 A 
ATOM     27 CL   LIG    1       -1.630   1.131  -2.766  0.00  0.00    -0.070 Cl
ATOM     28  C   LIG    1       -2.067   4.884  -1.473  0.00  0.00    +0.050 A 
ENDBRANCH  21  22
ENDBRANCH  18  21
ENDBRANCH  17  18
ENDBRANCH   1  17
TORSDOF 4
