REMARK  Name = ZINCrD000006fiw5.0
REMARK                            x       y       z     vdW  Elec       q    Type
REMARK                         _______ _______ _______ _____ _____    ______ ____
ROOT
ATOM      1  C   LIG    1       -1.235   4.296  -3.422  0.00  0.00    +0.540 C 
ATOM      2  N   LIG    1       -0.948   3.457  -2.407  0.00  0.00    -0.610 N 
ATOM      3  C   LIG    1       -0.246   3.942  -1.211  0.00  0.00    +0.290 C 
ATOM      4  C   LIG    1       -1.066   3.567   0.028  0.00  0.00    +0.050 C 
ATOM      5  C   LIG    1       -1.330   2.059   0.022  0.00  0.00    -0.000 C 
ATOM      6  C   LIG    1       -2.138   1.687  -1.223  0.00  0.00    +0.070 C 
ATOM      7  C   LIG    1       -1.331   2.040  -2.476  0.00  0.00    +0.250 C 
ATOM      8  O   LIG    1       -1.000   5.484  -3.314  0.00  0.00    -0.540 OA
ENDROOT
BRANCH   5   9
ATOM      9  C   LIG    1       -2.108   1.682   1.256  0.00  0.00    -0.070 A 
ATOM     10  C   LIG    1       -2.458   2.652   2.176  0.00  0.00    +0.010 A 
ATOM     11  C   LIG    1       -3.176   2.307   3.306  0.00  0.00    +0.000 A 
ATOM     12  C   LIG    1       -3.534   0.989   3.522  0.00  0.00    +0.000 A 
ATOM     13  C   LIG    1       -3.178   0.017   2.605  0.00  0.00    -0.010 A 
ATOM     14  C   LIG    1       -2.465   0.364   1.472  0.00  0.00    +0.050 A 
ENDBRANCH   5   9
BRANCH   1  16
ATOM     15  C   LIG    1       -2.026   4.583  -5.698  0.00  0.00    +0.140 C 
ATOM     16  C   LIG    1       -1.834   3.774  -4.660  0.00  0.00    -0.090 C 
ENDBRANCH   1  16
BRANCH   5  17
ATOM     17  C   LIG    1       -0.018   1.319   0.009  0.00  0.00    +0.570 C 
ATOM     18  O   LIG    1        1.029   1.938  -0.001  0.00  0.00    -0.560 OA
BRANCH  17  19
ATOM     19  N   LIG    1       -0.004  -0.005   0.003  0.00  0.00    -1.130 NA
ATOM     20  S   LIG    1        1.297  -0.738  -0.015  0.00  0.00    +2.290 S 
ATOM     21  C   LIG    1        2.143  -0.274  -1.564  0.00  0.00    -0.290 C 
ATOM     22  C   LIG    1        3.160  -1.368  -1.965  0.00  0.00    +0.070 C 
ATOM     23  C   LIG    1        3.818  -1.878  -0.694  0.00  0.00    +0.000 C 
ATOM     24  C   LIG    1        3.209  -3.253  -0.447  0.00  0.00    +0.020 C 
ATOM     25  C   LIG    1        2.117  -3.303   0.519  0.00  0.00    +0.090 C 
ATOM     26  O   LIG    1        2.008  -0.332   1.146  0.00  0.00    -0.920 OA
ATOM     27  C   LIG    1        0.905  -2.492  -0.018  0.00  0.00    -0.200 C 
ENDBRANCH  17  19
ENDBRANCH   5  17
TORSDOF 4
