REMARK  Name = ZINCkj00000RYBCm.0
REMARK                            x       y       z     vdW  Elec       q    Type
REMARK                         _______ _______ _______ _____ _____    ______ ____
ROOT
ATOM      1  N   LIG    1       -1.446   1.119   3.523  0.00  0.00    -1.020 NA
ATOM      2  C   LIG    1       -0.936   2.389   4.056  0.00  0.00    +0.310 C 
ATOM      3  C   LIG    1       -0.936   3.432   2.934  0.00  0.00    +0.020 C 
ATOM      4  C   LIG    1       -0.140   2.893   1.742  0.00  0.00    +0.090 C 
ATOM      5  C   LIG    1       -0.796   1.614   1.225  0.00  0.00    +0.050 C 
ATOM      6  C   LIG    1       -0.013   1.086   0.008  0.00  0.00    +0.100 C 
ATOM      7  C   LIG    1       -0.825   1.631  -1.197  0.00  0.00    +0.080 C 
ATOM      8  C   LIG    1       -2.276   1.543  -0.662  0.00  0.00    +0.270 C 
ATOM      9  N   LIG    1       -2.173   1.896   0.771  0.00  0.00    -0.510 N 
ATOM     10  H   LIG    1       -2.825   1.342   1.306  0.00  0.00    +0.430 HD
ATOM     11  H   LIG    1       -2.377   2.876   0.895  0.00  0.00    +0.430 HD
ATOM     12  C   LIG    1       -0.812   0.551   2.325  0.00  0.00    +0.340 C 
ENDROOT
BRANCH   1  14
ATOM     13  O   LIG    1       -3.428   1.335   4.976  0.00  0.00    -0.960 OA
ATOM     14  S   LIG    1       -2.710   0.342   4.257  0.00  0.00    +2.770 S 
ATOM     15  O   LIG    1       -3.306  -0.482   3.265  0.00  0.00    -0.970 OA
BRANCH  14  16
ATOM     16  N   LIG    1       -2.066  -0.681   5.389  0.00  0.00    -0.990 NA
ATOM     17  C   LIG    1       -1.740  -2.034   4.996  0.00  0.00    +0.280 C 
ATOM     18  C   LIG    1       -2.963  -2.951   5.204  0.00  0.00    +0.010 C 
ATOM     19  C   LIG    1       -3.201  -3.166   6.639  0.00  0.00    +0.000 C 
ATOM     20  C   LIG    1       -3.542  -1.898   7.417  0.00  0.00    +0.010 C 
ATOM     21  C   LIG    1       -2.265  -1.206   7.828  0.00  0.00    +0.020 C 
ATOM     22  C   LIG    1       -1.854  -0.176   6.760  0.00  0.00    +0.270 C 
ENDBRANCH  14  16
ENDBRANCH   1  14
TORSDOF 2
