REMARK  Name = ZINCnE000004TpMd.0
REMARK                            x       y       z     vdW  Elec       q    Type
REMARK                         _______ _______ _______ _____ _____    ______ ____
ROOT
ATOM      1  C   LIG    1        1.058   1.903   0.002  0.00  0.00    +0.000 A 
ATOM      2  C   LIG    1       -0.013   1.076   0.008  0.00  0.00    +0.140 A 
ATOM      3  N   LIG    1       -1.105   1.874   0.017  0.00  0.00    -0.300 N 
ATOM      4  N   LIG    1       -0.710   3.099   0.024  0.00  0.00    -0.090 NA
ATOM      5  N   LIG    1        0.575   3.151   0.013  0.00  0.00    -0.260 NA
ENDROOT
BRANCH   1   9
ATOM      6  C   LIG    1        4.622  -0.447   0.566  0.00  0.00    -0.090 C 
ATOM      7  C   LIG    1        4.455   0.824   1.402  0.00  0.00    +0.030 C 
ATOM      8  C   LIG    1        2.981   1.234   1.418  0.00  0.00    +0.020 C 
ATOM      9  C   LIG    1        2.510   1.499  -0.013  0.00  0.00    +0.090 C 
ATOM     10  C   LIG    1        2.677   0.228  -0.849  0.00  0.00    +0.010 C 
ATOM     11  C   LIG    1        4.151  -0.182  -0.865  0.00  0.00    +0.020 C 
BRANCH   6  13
ATOM     12  O   LIG    1        6.379  -2.029   0.634  0.00  0.00    -0.710 OA
ATOM     13  C   LIG    1        6.073  -0.851   0.551  0.00  0.00    +0.500 C 
ATOM     14  O   LIG    1        6.942  -0.001   0.455  0.00  0.00    -0.700 OA
ENDBRANCH   6  13
ENDBRANCH   1   9
BRANCH   3  15
ATOM     15  C   LIG    1       -2.499   1.421   0.021  0.00  0.00    +0.390 C 
BRANCH  15  16
ATOM     16  C   LIG    1       -3.223   2.035   1.191  0.00  0.00    -0.140 A 
ATOM     17  C   LIG    1       -4.031   3.140   1.001  0.00  0.00    +0.100 A 
ATOM     18  C   LIG    1       -4.696   3.704   2.075  0.00  0.00    -0.050 A 
ATOM     19  C   LIG    1       -4.553   3.162   3.340  0.00  0.00    +0.080 A 
ATOM     20  C   LIG    1       -3.746   2.056   3.531  0.00  0.00    +0.010 A 
ATOM     21 CL   LIG    1       -5.710   5.093   1.836  0.00  0.00    -0.060 Cl
ATOM     22  C   LIG    1       -3.084   1.489   2.455  0.00  0.00    +0.130 A 
ATOM     23  F   LIG    1       -2.299   0.405   2.641  0.00  0.00    -0.130 F 
ENDBRANCH  15  16
ENDBRANCH   3  15
TORSDOF 4
