REMARK  Name = ZINCpk00000xI1R5.2
REMARK                            x       y       z     vdW  Elec       q    Type
REMARK                         _______ _______ _______ _____ _____    ______ ____
ROOT
ATOM      1  S   LIG    1       -0.000   1.744   0.033  0.00  0.00    +2.670 S 
ATOM      2  O   LIG    1       -0.804   2.014   1.173  0.00  0.00    -0.930 OA
ATOM      3  O   LIG    1       -0.196   2.378  -1.224  0.00  0.00    -0.990 OA
ENDROOT
BRANCH   1   4
ATOM      4  N   LIG    1       -0.111   0.115  -0.243  0.00  0.00    -1.000 NA
ATOM      5  C   LIG    1        0.045  -0.854   0.855  0.00  0.00    +0.280 C 
ATOM      6  C   LIG    1       -1.134  -1.831   0.811  0.00  0.00    +0.240 C 
ATOM      7  O   LIG    1       -1.252  -2.373  -0.507  0.00  0.00    -0.350 OA
ATOM      8  C   LIG    1       -1.539  -1.396  -1.514  0.00  0.00    +0.220 C 
ATOM      9  C   LIG    1       -2.812  -0.642  -1.120  0.00  0.00    +0.030 C 
ATOM     10  C   LIG    1       -3.059   0.497  -2.110  0.00  0.00    +0.250 C 
ATOM     11  N   LIG    1       -1.922   1.426  -2.077  0.00  0.00    -0.370 N 
ATOM     12  C   LIG    1       -0.711   0.736  -2.538  0.00  0.00    +0.290 C 
ATOM     13  C   LIG    1       -2.198   2.569  -2.957  0.00  0.00    +0.340 C 
ATOM     14  H   LIG    1       -1.782   1.754  -1.133  0.00  0.00    +0.390 HD
ATOM     15  C   LIG    1       -0.375  -0.410  -1.590  0.00  0.00    +0.230 C 
ENDBRANCH   1   4
BRANCH   1  23
ATOM     16  C   LIG    1        1.190   0.983   2.704  0.00  0.00    +0.120 C 
ATOM     17  C   LIG    1        2.116   1.693   1.751  0.00  0.00    +0.050 A 
ATOM     18  C   LIG    1        3.435   1.960   2.125  0.00  0.00    -0.120 A 
ATOM     19  C   LIG    1        4.287   2.620   1.235  0.00  0.00    +0.130 A 
ATOM     20  C   LIG    1        3.821   3.002  -0.006  0.00  0.00    -0.060 A 
ATOM     21  C   LIG    1        2.513   2.729  -0.372  0.00  0.00    +0.120 A 
ATOM     22 CL   LIG    1        4.877   3.821  -1.114  0.00  0.00    -0.060 Cl
ATOM     23  C   LIG    1        1.663   2.081   0.507  0.00  0.00    -0.680 A 
BRANCH  18  24
ATOM     24  C   LIG    1        3.927   1.548   3.454  0.00  0.00    +0.520 C 
ATOM     25  O   LIG    1        3.675   0.429   3.878  0.00  0.00    -0.670 OA
ATOM     26  O   LIG    1        4.586   2.325   4.130  0.00  0.00    -0.670 OA
ENDBRANCH  18  24
ENDBRANCH   1  23
TORSDOF 3
