REMARK  Name = ZINCpk00000xI1R5.1
REMARK                            x       y       z     vdW  Elec       q    Type
REMARK                         _______ _______ _______ _____ _____    ______ ____
ROOT
ATOM      1  S   LIG    1       -0.109   0.713   0.185  0.00  0.00    +2.700 S 
ATOM      2  O   LIG    1        0.926   1.670   0.006  0.00  0.00    -0.940 OA
ATOM      3  O   LIG    1        0.140  -0.663   0.440  0.00  0.00    -0.930 OA
ENDROOT
BRANCH   1   4
ATOM      4  N   LIG    1       -1.044   0.774  -1.180  0.00  0.00    -1.000 NA
ATOM      5  C   LIG    1       -1.952  -0.330  -1.529  0.00  0.00    +0.270 C 
ATOM      6  C   LIG    1       -1.699  -0.735  -2.980  0.00  0.00    +0.240 C 
ATOM      7  O   LIG    1       -1.757   0.425  -3.814  0.00  0.00    -0.370 OA
ATOM      8  C   LIG    1       -0.769   1.410  -3.513  0.00  0.00    +0.170 C 
ATOM      9  C   LIG    1       -0.865   2.568  -4.506  0.00  0.00    +0.100 C 
ATOM     10  C   LIG    1       -2.211   3.275  -4.340  0.00  0.00    +0.260 C 
ATOM     11  N   LIG    1       -2.325   3.791  -2.970  0.00  0.00    -0.380 N 
ATOM     12  C   LIG    1       -2.325   2.674  -2.019  0.00  0.00    +0.250 C 
ATOM     13  C   LIG    1       -3.578   4.546  -2.836  0.00  0.00    +0.330 C 
ATOM     14  H   LIG    1       -1.544   4.399  -2.775  0.00  0.00    +0.430 HD
ATOM     15  C   LIG    1       -0.988   1.933  -2.089  0.00  0.00    +0.240 C 
ENDBRANCH   1   4
BRANCH   1  23
ATOM     16  C   LIG    1        0.984   1.493   2.892  0.00  0.00    +0.130 C 
ATOM     17  C   LIG    1       -0.507   1.628   2.722  0.00  0.00    +0.060 A 
ATOM     18  C   LIG    1       -1.292   2.096   3.779  0.00  0.00    -0.130 A 
ATOM     19  C   LIG    1       -2.675   2.212   3.615  0.00  0.00    +0.130 A 
ATOM     20  C   LIG    1       -3.255   1.869   2.410  0.00  0.00    -0.070 A 
ATOM     21  C   LIG    1       -2.469   1.413   1.365  0.00  0.00    +0.080 A 
ATOM     22 CL   LIG    1       -4.972   2.012   2.204  0.00  0.00    -0.070 Cl
ATOM     23  C   LIG    1       -1.099   1.296   1.521  0.00  0.00    -0.690 A 
BRANCH  18  24
ATOM     24  C   LIG    1       -0.665   2.459   5.064  0.00  0.00    +0.520 C 
ATOM     25  O   LIG    1        0.554   2.495   5.161  0.00  0.00    -0.660 OA
ATOM     26  O   LIG    1       -1.363   2.725   6.032  0.00  0.00    -0.670 OA
ENDBRANCH  18  24
ENDBRANCH   1  23
TORSDOF 3
