REMARK  Name = ZINCvU0000000DNy.0
REMARK                            x       y       z     vdW  Elec       q    Type
REMARK                         _______ _______ _______ _____ _____    ______ ____
ROOT
ATOM      1  O   LIG    1        4.290   2.847   0.530  0.00  0.00    -0.580 OA
ATOM      2  C   LIG    1        4.035   3.220  -0.599  0.00  0.00    +0.700 C 
ATOM      3  N   LIG    1        2.756   3.438  -0.964  0.00  0.00    -0.730 N 
ATOM      4  H   LIG    1        2.553   3.735  -1.865  0.00  0.00    +0.400 HD
ATOM      5  N   LIG    1        5.032   3.414  -1.485  0.00  0.00    -0.740 N 
ATOM      6  H   LIG    1        4.829   3.712  -2.386  0.00  0.00    +0.400 HD
ENDROOT
BRANCH   5   7
ATOM      7  C   LIG    1        6.422   3.177  -1.088  0.00  0.00    +0.310 C 
ATOM      8  C   LIG    1        7.234   2.859  -2.331  0.00  0.00    +0.060 C 
ATOM      9  C   LIG    1        8.686   2.576  -1.920  0.00  0.00    +0.120 C 
ATOM     10  S   LIG    1        9.434   4.165  -1.456  0.00  0.00    -0.110 S 
ATOM     11  C   LIG    1        8.202   4.882  -0.416  0.00  0.00    -0.070 A 
ATOM     12  C   LIG    1        8.561   5.998   0.342  0.00  0.00    +0.050 A 
ATOM     13  C   LIG    1        7.644   6.611   1.168  0.00  0.00    +0.050 A 
ATOM     14  C   LIG    1        6.355   6.114   1.242  0.00  0.00    -0.040 A 
ATOM     15  C   LIG    1        5.998   5.009   0.498  0.00  0.00    +0.060 A 
ATOM     16 CL   LIG    1        5.187   6.880   2.273  0.00  0.00    -0.070 Cl
ATOM     17  C   LIG    1        6.918   4.377  -0.337  0.00  0.00    -0.090 A 
ENDBRANCH   5   7
BRANCH   3  18
ATOM     18  C   LIG    1        1.673   3.226  -0.001  0.00  0.00    +0.350 C 
ATOM     19  C   LIG    1        0.454   4.066  -0.402  0.00  0.00    +0.020 C 
ATOM     20  C   LIG    1       -0.752   3.653   0.446  0.00  0.00    +0.040 C 
ATOM     21  C   LIG    1       -1.216   2.252   0.031  0.00  0.00    +0.110 C 
ATOM     22  C   LIG    1       -0.016   1.339   0.009  0.00  0.00    +0.100 A 
ATOM     23  N   LIG    1        0.002  -0.004   0.002  0.00  0.00    -0.360 N 
ATOM     24  N   LIG    1        1.343  -0.415  -0.011  0.00  0.00    -0.300 NA
ATOM     25  C   LIG    1        2.101   0.654  -0.012  0.00  0.00    +0.260 A 
ATOM     26  C   LIG    1        1.270   1.772  -0.001  0.00  0.00    -0.250 A 
BRANCH  23  27
ATOM     27  C   LIG    1       -1.170  -0.883   0.006  0.00  0.00    +0.370 C 
BRANCH  27  28
ATOM     28  C   LIG    1       -1.582  -1.177  -1.414  0.00  0.00    -0.120 A 
ATOM     29  C   LIG    1       -2.493  -0.357  -2.053  0.00  0.00    +0.020 A 
ATOM     30  C   LIG    1       -2.867  -0.623  -3.357  0.00  0.00    +0.010 A 
ATOM     31  C   LIG    1       -2.338  -1.716  -4.018  0.00  0.00    +0.010 A 
ATOM     32  C   LIG    1       -1.431  -2.539  -3.377  0.00  0.00    +0.010 A 
ATOM     33  C   LIG    1       -1.052  -2.269  -2.075  0.00  0.00    +0.030 A 
ENDBRANCH  27  28
ENDBRANCH  23  27
ENDBRANCH   3  18
TORSDOF 4
