REMARK  Name = ZINCrD00000edjhM.0
REMARK                            x       y       z     vdW  Elec       q    Type
REMARK                         _______ _______ _______ _____ _____    ______ ____
ROOT
ATOM      1  C   LIG    1        2.173   0.029  -0.604  0.00  0.00    +0.560 C 
ATOM      2  N   LIG    1        1.178  -0.662  -0.013  0.00  0.00    -0.670 N 
ATOM      3  H   LIG    1        0.488  -0.192   0.480  0.00  0.00    +0.410 HD
ATOM      4  O   LIG    1        3.084  -0.564  -1.150  0.00  0.00    -0.520 OA
ENDROOT
BRANCH   1   7
ATOM      5  C   LIG    1        3.169   3.603  -1.184  0.00  0.00    +0.110 A 
ATOM      6  C   LIG    1        3.191   2.223  -1.196  0.00  0.00    +0.040 A 
ATOM      7  C   LIG    1        2.157   1.504  -0.589  0.00  0.00    -0.120 A 
ATOM      8  C   LIG    1        1.112   2.187   0.038  0.00  0.00    +0.060 A 
ATOM      9  C   LIG    1        1.098   3.565   0.052  0.00  0.00    -0.010 A 
ATOM     10  C   LIG    1        2.122   4.278  -0.556  0.00  0.00    +0.110 A 
BRANCH   5  12
ATOM     11  C   LIG    1        5.210   3.549  -2.403  0.00  0.00    +0.250 C 
ATOM     12  O   LIG    1        4.170   4.305  -1.779  0.00  0.00    -0.300 OA
ENDBRANCH   5  12
BRANCH  10  13
ATOM     13  O   LIG    1        2.105   5.636  -0.540  0.00  0.00    -0.300 OA
BRANCH  13  14
ATOM     14  C   LIG    1        1.003   6.262   0.120  0.00  0.00    +0.600 C 
ATOM     15  F   LIG    1        0.979   5.870   1.463  0.00  0.00    -0.200 F 
ATOM     16  F   LIG    1       -0.191   5.878  -0.499  0.00  0.00    -0.200 F 
ENDBRANCH  13  14
ENDBRANCH  10  13
ENDBRANCH   1   7
BRANCH   2  17
ATOM     17  C   LIG    1        1.141  -2.059  -0.110  0.00  0.00    +0.120 A 
ATOM     18  C   LIG    1       -0.079  -2.717  -0.192  0.00  0.00    +0.020 A 
ATOM     19  C   LIG    1       -0.115  -4.094  -0.293  0.00  0.00    -0.020 A 
ATOM     20  C   LIG    1        1.069  -4.821  -0.303  0.00  0.00    +0.100 A 
ATOM     21  C   LIG    1        2.289  -4.162  -0.216  0.00  0.00    +0.010 A 
ATOM     22  C   LIG    1        2.325  -2.786  -0.119  0.00  0.00    +0.050 A 
BRANCH  20  23
ATOM     23  N   LIG    1        1.032  -6.216  -0.401  0.00  0.00    -0.490 N 
ATOM     24  C   LIG    1        1.817  -6.684  -1.552  0.00  0.00    +0.160 C 
ATOM     25  C   LIG    1        1.799  -8.214  -1.587  0.00  0.00    +0.220 C 
ATOM     26  O   LIG    1        0.444  -8.669  -1.634  0.00  0.00    -0.380 OA
ATOM     27  C   LIG    1       -0.349  -8.232  -0.527  0.00  0.00    +0.220 C 
ATOM     28  C   LIG    1       -0.353  -6.702  -0.481  0.00  0.00    +0.160 C 
ENDBRANCH  20  23
ENDBRANCH   2  17
TORSDOF 6
