REMARK  Name = ZINCpe000000YV0P.0
REMARK                            x       y       z     vdW  Elec       q    Type
REMARK                         _______ _______ _______ _____ _____    ______ ____
ROOT
ATOM      1  N   LIG    1       -0.682   1.410   6.086  0.00  0.00    -0.720 N 
ATOM      2  H   LIG    1       -1.472   1.961   5.972  0.00  0.00    +0.410 HD
ATOM      3  C   LIG    1       -0.251   1.097   7.324  0.00  0.00    +0.570 C 
ATOM      4  O   LIG    1        0.739   0.407   7.467  0.00  0.00    -0.540 OA
ENDROOT
BRANCH   3   5
ATOM      5  C   LIG    1       -0.983   1.592   8.507  0.00  0.00    -0.170 A 
ATOM      6  C   LIG    1       -2.118   2.390   8.345  0.00  0.00    +0.080 A 
ATOM      7  C   LIG    1       -2.801   2.846   9.450  0.00  0.00    -0.010 A 
ATOM      8  C   LIG    1       -2.355   2.522  10.727  0.00  0.00    +0.200 A 
ATOM      9  C   LIG    1       -1.222   1.732  10.893  0.00  0.00    -0.040 A 
ATOM     10  C   LIG    1       -0.537   1.269   9.792  0.00  0.00    +0.110 A 
BRANCH   8  11
ATOM     11  N   LIG    1       -3.046   2.989  11.845  0.00  0.00    -0.560 N 
ATOM     12  C   LIG    1       -2.738   2.609  13.228  0.00  0.00    +0.270 C 
ATOM     13  C   LIG    1       -3.986   2.997  14.051  0.00  0.00    +0.060 C 
ATOM     14  C   LIG    1       -4.593   4.127  13.188  0.00  0.00    +0.070 C 
ATOM     15  C   LIG    1       -4.077   3.850  11.794  0.00  0.00    +0.520 C 
ATOM     16  O   LIG    1       -4.530   4.332  10.777  0.00  0.00    -0.500 OA
ENDBRANCH   8  11
ENDBRANCH   3   5
BRANCH   1  17
ATOM     17  C   LIG    1        0.044   0.919   4.912  0.00  0.00    +0.300 C 
BRANCH  17  19
ATOM     18  O   LIG    1       -1.632   2.096   3.740  0.00  0.00    -0.540 OA
ATOM     19  C   LIG    1       -0.638   1.406   3.660  0.00  0.00    +0.510 C 
ATOM     20  N   LIG    1       -0.143   1.076   2.451  0.00  0.00    -0.720 N 
ATOM     21  H   LIG    1        0.652   0.524   2.387  0.00  0.00    +0.410 HD
BRANCH  20  22
ATOM     22  C   LIG    1       -0.805   1.550   1.233  0.00  0.00    +0.280 C 
BRANCH  22  23
ATOM     23  C   LIG    1       -0.047   1.036   0.007  0.00  0.00    +0.150 C 
ATOM     24  C   LIG    1       -0.710   1.556  -1.294  0.00  0.00    +0.020 C 
ATOM     25  C   LIG    1        0.490   1.499  -2.278  0.00  0.00    +0.010 C 
ATOM     26  C   LIG    1        1.683   1.845  -1.361  0.00  0.00    +0.190 C 
ATOM     27  O   LIG    1        1.287   1.569  -0.013  0.00  0.00    -0.380 OA
ENDBRANCH  22  23
ENDBRANCH  20  22
ENDBRANCH  17  19
ENDBRANCH   1  17
TORSDOF 6
