REMARK  Name = ZINCrD000000fK78.0
REMARK                            x       y       z     vdW  Elec       q    Type
REMARK                         _______ _______ _______ _____ _____    ______ ____
ROOT
ATOM      1  N   LIG    1       -7.829  -5.010   3.188  0.00  0.00    -0.680 N 
ATOM      2  H   LIG    1       -8.379  -5.360   2.470  0.00  0.00    +0.410 HD
ATOM      3  C   LIG    1       -6.894  -4.075   2.926  0.00  0.00    +0.510 C 
ATOM      4  O   LIG    1       -6.270  -3.570   3.835  0.00  0.00    -0.490 OA
ENDROOT
BRANCH   1   8
ATOM      5  C   LIG    1       -8.360  -6.393   7.086  0.00  0.00    +0.130 A 
ATOM      6  C   LIG    1       -9.448  -6.298   6.229  0.00  0.00    +0.010 A 
ATOM      7  C   LIG    1       -9.273  -5.839   4.939  0.00  0.00    +0.000 A 
ATOM      8  C   LIG    1       -8.008  -5.474   4.498  0.00  0.00    +0.130 A 
ATOM      9  C   LIG    1       -6.918  -5.574   5.353  0.00  0.00    +0.040 A 
ATOM     10  C   LIG    1       -7.095  -6.027   6.645  0.00  0.00    +0.040 A 
BRANCH   5  13
ATOM     11  C   LIG    1       -8.067  -6.766  10.822  0.00  0.00    +0.110 C 
ATOM     12  C   LIG    1       -7.804  -6.341   9.400  0.00  0.00    +0.510 C 
ATOM     13  N   LIG    1       -8.538  -6.858   8.395  0.00  0.00    -0.680 N 
ATOM     14  H   LIG    1       -9.190  -7.553   8.579  0.00  0.00    +0.410 HD
ATOM     15  O   LIG    1       -6.931  -5.533   9.160  0.00  0.00    -0.520 OA
ENDBRANCH   5  13
ENDBRANCH   1   8
BRANCH   3  16
ATOM     16  C   LIG    1       -6.623  -3.659   1.503  0.00  0.00    +0.220 C 
BRANCH  16  17
ATOM     17  N   LIG    1       -5.569  -2.636   1.485  0.00  0.00    -0.520 NA
ATOM     18  C   LIG    1       -6.025  -1.398   2.131  0.00  0.00    +0.190 C 
BRANCH  17  19
ATOM     19  C   LIG    1       -5.111  -2.377   0.114  0.00  0.00    +0.240 C 
BRANCH  19  20
ATOM     20  C   LIG    1       -3.875  -1.515   0.151  0.00  0.00    -0.100 A 
ATOM     21  C   LIG    1       -2.625  -2.103   0.211  0.00  0.00    +0.070 A 
ATOM     22  C   LIG    1       -1.491  -1.316   0.245  0.00  0.00    +0.010 A 
ATOM     23  C   LIG    1       -1.606   0.067   0.220  0.00  0.00    +0.110 A 
ATOM     24  C   LIG    1       -2.862   0.654   0.166  0.00  0.00    -0.060 A 
ATOM     25  C   LIG    1       -3.993  -0.138   0.125  0.00  0.00    +0.060 A 
BRANCH  23  26
ATOM     26  O   LIG    1       -0.492   0.844   0.254  0.00  0.00    -0.320 OA
BRANCH  26  27
ATOM     27  C   LIG    1       -0.686   2.259   0.225  0.00  0.00    +0.590 C 
ATOM     28  F   LIG    1       -1.449   2.647   1.331  0.00  0.00    -0.200 F 
ATOM     29  F   LIG    1       -1.356   2.613  -0.951  0.00  0.00    -0.200 F 
ENDBRANCH  26  27
ENDBRANCH  23  26
ENDBRANCH  19  20
ENDBRANCH  17  19
ENDBRANCH  16  17
ENDBRANCH   3  16
TORSDOF 8
