REMARK  Name = ZINCqH0000031IUh.0
REMARK                            x       y       z     vdW  Elec       q    Type
REMARK                         _______ _______ _______ _____ _____    ______ ____
ROOT
ATOM      1  N   LIG    1        5.200   0.746   3.005  0.00  0.00    -0.680 N 
ATOM      2  H   LIG    1        6.046   0.420   2.661  0.00  0.00    +0.410 HD
ATOM      3  C   LIG    1        4.264   1.216   2.156  0.00  0.00    +0.720 C 
ATOM      4  N   LIG    1        4.544   1.334   0.843  0.00  0.00    -0.620 N 
ATOM      5  O   LIG    1        3.168   1.534   2.575  0.00  0.00    -0.550 OA
ENDROOT
BRANCH   4   6
ATOM      6  C   LIG    1        3.527   1.846  -0.079  0.00  0.00    +0.310 C 
ATOM      7  C   LIG    1        3.147   3.268   0.328  0.00  0.00    +0.010 C 
ATOM      8  C   LIG    1        1.937   3.704  -0.507  0.00  0.00    +0.020 C 
ATOM      9  C   LIG    1        0.721   2.901  -0.050  0.00  0.00    +0.070 C 
ATOM     10  C   LIG    1        1.033   1.427  -0.038  0.00  0.00    -0.050 A 
ATOM     11  C   LIG    1       -0.035   0.540  -0.017  0.00  0.00    +0.000 A 
ATOM     12  C   LIG    1        0.185  -0.822   0.006  0.00  0.00    +0.000 A 
ATOM     13  C   LIG    1        1.479  -1.308   0.010  0.00  0.00    -0.010 A 
ATOM     14  C   LIG    1        2.541  -0.428  -0.013  0.00  0.00    +0.000 A 
ATOM     15  C   LIG    1        2.322   0.943  -0.040  0.00  0.00    -0.080 A 
ENDBRANCH   4   6
BRANCH   1  20
ATOM     16  C   LIG    1        3.927   1.696   6.334  0.00  0.00    -0.150 A 
ATOM     17  C   LIG    1        4.465   0.669   7.117  0.00  0.00    +0.030 A 
ATOM     18  C   LIG    1        5.236  -0.313   6.531  0.00  0.00    +0.020 A 
ATOM     19  C   LIG    1        5.475  -0.291   5.170  0.00  0.00    +0.010 A 
ATOM     20  C   LIG    1        4.950   0.727   4.382  0.00  0.00    +0.160 A 
ATOM     21  C   LIG    1        4.174   1.719   4.958  0.00  0.00    +0.090 A 
BRANCH  16  23
ATOM     22  C   LIG    1        2.840   2.717   8.439  0.00  0.00    +0.060 C 
ATOM     23  C   LIG    1        3.105   2.746   6.955  0.00  0.00    +0.390 C 
ATOM     24  O   LIG    1        2.640   3.635   6.274  0.00  0.00    -0.450 OA
ENDBRANCH  16  23
ENDBRANCH   1  20
BRANCH   4  25
ATOM     25  C   LIG    1        5.865   0.952   0.338  0.00  0.00    +0.290 C 
BRANCH  25  26
ATOM     26  C   LIG    1        6.799   2.162   0.385  0.00  0.00    +0.160 C 
BRANCH  26  27
ATOM     27  O   LIG    1        7.011   2.549   1.744  0.00  0.00    -0.570 OA
ATOM     28  H   LIG    1        7.596   3.312   1.849  0.00  0.00    +0.380 HD
ENDBRANCH  26  27
ENDBRANCH  25  26
ENDBRANCH   4  25
TORSDOF 6
