REMARK  Name = ZINCrH00000No4U9.0
REMARK                            x       y       z     vdW  Elec       q    Type
REMARK                         _______ _______ _______ _____ _____    ______ ____
ROOT
ATOM      1  C   LIG    1        2.406   3.935  -0.031  0.00  0.00    +0.240 C 
ATOM      2  C   LIG    1        2.382   5.310  -0.112  0.00  0.00    -0.100 C 
ATOM      3  N   LIG    1        1.283   6.118  -0.125  0.00  0.00    -0.480 NA
ATOM      4  C   LIG    1        1.669   7.362  -0.207  0.00  0.00    +0.350 C 
ATOM      5  O   LIG    1        3.012   7.461  -0.262  0.00  0.00    -0.290 OA
ATOM      6  C   LIG    1        3.540   6.220  -0.208  0.00  0.00    +0.480 C 
ATOM      7  O   LIG    1        4.718   5.917  -0.234  0.00  0.00    -0.420 OA
ENDROOT
BRANCH   1  13
ATOM      8  C   LIG    1       -2.577   3.850  -0.030  0.00  0.00    +0.100 C 
ATOM      9  C   LIG    1       -1.254   3.129  -0.053  0.00  0.00    -0.110 A 
ATOM     10  C   LIG    1       -1.222   1.746  -0.102  0.00  0.00    +0.040 A 
ATOM     11  C   LIG    1       -0.012   1.073  -0.118  0.00  0.00    +0.000 A 
ATOM     12  C   LIG    1        1.173   1.777  -0.097  0.00  0.00    -0.050 A 
ATOM     13  C   LIG    1        1.150   3.177  -0.053  0.00  0.00    -0.100 A 
ATOM     14  C   LIG    1        2.489   1.043  -0.121  0.00  0.00    +0.090 C 
ATOM     15  C   LIG    1       -0.079   3.849  -0.032  0.00  0.00    +0.090 A 
ENDBRANCH   1  13
BRANCH   4  16
ATOM     16  C   LIG    1        0.750   8.515  -0.242  0.00  0.00    -0.080 A 
ATOM     17  C   LIG    1       -0.632   8.312  -0.185  0.00  0.00    +0.110 A 
ATOM     18  C   LIG    1       -1.486   9.391  -0.213  0.00  0.00    -0.030 A 
ATOM     19  C   LIG    1       -0.977  10.682  -0.308  0.00  0.00    +0.200 A 
ATOM     20  C   LIG    1        0.398  10.888  -0.370  0.00  0.00    +0.000 A 
ATOM     21  C   LIG    1        1.259   9.814  -0.337  0.00  0.00    +0.100 A 
BRANCH  19  22
ATOM     22  N   LIG    1       -1.847  11.773  -0.341  0.00  0.00    -0.560 N 
ATOM     23  C   LIG    1       -3.300  11.680  -0.160  0.00  0.00    +0.270 C 
ATOM     24  C   LIG    1       -3.767  13.118   0.163  0.00  0.00    +0.060 C 
ATOM     25  C   LIG    1       -2.661  13.964  -0.510  0.00  0.00    +0.070 C 
ATOM     26  C   LIG    1       -1.461  13.044  -0.549  0.00  0.00    +0.520 C 
ATOM     27  O   LIG    1       -0.318  13.401  -0.740  0.00  0.00    -0.500 OA
ENDBRANCH  19  22
ENDBRANCH   4  16
TORSDOF 3
