REMARK  Name = ZINCrH000004rs5P.0
REMARK                            x       y       z     vdW  Elec       q    Type
REMARK                         _______ _______ _______ _____ _____    ______ ____
ROOT
ATOM      1  C   LIG    1        3.197   5.403  -3.022  0.00  0.00    +0.160 C 
ATOM      2  C   LIG    1        4.446   4.533  -2.850  0.00  0.00    +0.050 C 
ATOM      3  C   LIG    1        4.435   3.905  -1.454  0.00  0.00    +0.200 C 
ATOM      4  N   LIG    1        3.223   3.092  -1.291  0.00  0.00    -0.520 NA
ATOM      5  C   LIG    1        2.012   3.915  -1.406  0.00  0.00    +0.180 C 
ATOM      6  C   LIG    1        1.950   4.543  -2.800  0.00  0.00    +0.020 C 
ENDROOT
BRANCH   1   7
ATOM      7  O   LIG    1        3.173   5.947  -4.344  0.00  0.00    -0.310 OA
BRANCH   7  12
ATOM      8  C   LIG    1        0.297  10.732  -5.088  0.00  0.00    +0.090 C 
ATOM      9  C   LIG    1        1.067   9.452  -4.889  0.00  0.00    -0.130 A 
ATOM     10  C   LIG    1        1.797   8.916  -5.933  0.00  0.00    +0.050 A 
ATOM     11  C   LIG    1        2.507   7.745  -5.752  0.00  0.00    -0.020 A 
ATOM     12  C   LIG    1        2.479   7.101  -4.524  0.00  0.00    +0.130 A 
ATOM     13  C   LIG    1        1.746   7.641  -3.477  0.00  0.00    -0.080 A 
ATOM     14  C   LIG    1        1.041   8.815  -3.662  0.00  0.00    -0.050 A 
ATOM     15  C   LIG    1        0.244   9.402  -2.525  0.00  0.00    +0.080 C 
ENDBRANCH   7  12
ENDBRANCH   1   7
BRANCH   4  16
ATOM     16  C   LIG    1        3.246   2.364  -0.016  0.00  0.00    +0.320 C 
BRANCH  16  17
ATOM     17  C   LIG    1        3.001   3.326   1.117  0.00  0.00    +0.180 A 
ATOM     18  C   LIG    1        1.854   3.233   1.877  0.00  0.00    -0.130 A 
ATOM     19  C   LIG    1        1.650   4.137   2.921  0.00  0.00    +0.530 A 
ATOM     20  N   LIG    1        2.584   5.099   3.177  0.00  0.00    -0.460 N 
ATOM     21  C   LIG    1        2.536   6.057   4.159  0.00  0.00    +0.090 A 
ATOM     22  C   LIG    1        3.535   6.915   4.265  0.00  0.00    -0.010 A 
ATOM     23  S   LIG    1        4.680   6.471   2.987  0.00  0.00    +0.180 S 
ATOM     24  C   LIG    1        1.363   6.128   5.101  0.00  0.00    +0.170 C 
ATOM     25  C   LIG    1        3.691   5.129   2.384  0.00  0.00    +0.320 A 
ATOM     26  O   LIG    1        0.640   4.067   3.603  0.00  0.00    -0.520 OA
ATOM     27  N   LIG    1        3.885   4.276   1.397  0.00  0.00    -0.500 NA
ENDBRANCH  16  17
ENDBRANCH   4  16
TORSDOF 4
