REMARK  Name = ZINCkj000005f6FO.1
REMARK                            x       y       z     vdW  Elec       q    Type
REMARK                         _______ _______ _______ _____ _____    ______ ____
ROOT
ATOM      1  N   LIG    1        1.625   3.275   0.004  0.00  0.00    -0.730 N 
ATOM      2  H   LIG    1        0.879   3.895   0.015  0.00  0.00    +0.410 HD
ATOM      3  C   LIG    1        1.397   1.946  -0.001  0.00  0.00    +0.520 C 
ATOM      4  O   LIG    1        2.329   1.171  -0.014  0.00  0.00    -0.500 OA
ENDROOT
BRANCH   1   5
ATOM      5  C   LIG    1        2.999   3.782  -0.006  0.00  0.00    +0.280 C 
BRANCH   5   6
ATOM      6  C   LIG    1        2.978   5.312   0.002  0.00  0.00    +0.250 C 
BRANCH   6   7
ATOM      7  N   LIG    1        4.357   5.820  -0.008  0.00  0.00    -0.380 N 
ATOM      8  C   LIG    1        5.030   5.434   1.238  0.00  0.00    +0.330 C 
ATOM      9  H   LIG    1        4.854   5.429  -0.794  0.00  0.00    +0.430 HD
BRANCH   7  11
ATOM     10  C   LIG    1        5.773   7.814  -0.132  0.00  0.00    +0.080 C 
ATOM     11  C   LIG    1        4.337   7.285  -0.121  0.00  0.00    +0.160 C 
ATOM     12  C   LIG    1        3.635   7.687  -1.419  0.00  0.00    +0.080 C 
ENDBRANCH   7  11
ENDBRANCH   6   7
ENDBRANCH   5   6
ENDBRANCH   1   5
BRANCH   3  13
ATOM     13  C   LIG    1       -0.017   1.425   0.010  0.00  0.00    +0.240 C 
BRANCH  13  14
ATOM     14  O   LIG    1        0.002  -0.004   0.002  0.00  0.00    -0.290 OA
BRANCH  14  15
ATOM     15  C   LIG    1       -1.199  -0.637   0.010  0.00  0.00    +0.150 A 
ATOM     16  C   LIG    1       -2.373   0.106   0.031  0.00  0.00    -0.070 A 
ATOM     17  C   LIG    1       -3.594  -0.532   0.034  0.00  0.00    +0.110 A 
ATOM     18  C   LIG    1       -3.651  -1.928   0.027  0.00  0.00    -0.060 A 
ATOM     19  C   LIG    1       -2.467  -2.671   0.011  0.00  0.00    +0.120 A 
ATOM     20  C   LIG    1       -1.251  -2.026   0.003  0.00  0.00    +0.010 A 
BRANCH  18  21
ATOM     21  C   LIG    1       -4.917  -2.596   0.035  0.00  0.00    +0.250 C 
ATOM     22  N   LIG    1       -5.923  -3.125   0.043  0.00  0.00    -0.410 NA
ENDBRANCH  18  21
ENDBRANCH  14  15
ENDBRANCH  13  14
ENDBRANCH   3  13
TORSDOF 8
