REMARK  Name = ZINCkj000005f6FO.0
REMARK                            x       y       z     vdW  Elec       q    Type
REMARK                         _______ _______ _______ _____ _____    ______ ____
ROOT
ATOM      1  N   LIG    1       -0.016   1.344   0.009  0.00  0.00    -0.730 N 
ATOM      2  H   LIG    1        0.817   1.840   0.004  0.00  0.00    +0.410 HD
ATOM      3  C   LIG    1        0.002  -0.004   0.002  0.00  0.00    +0.520 C 
ATOM      4  O   LIG    1       -1.040  -0.625   0.009  0.00  0.00    -0.500 OA
ENDROOT
BRANCH   1   5
ATOM      5  C   LIG    1       -1.295   2.059   0.019  0.00  0.00    +0.280 C 
BRANCH   5   6
ATOM      6  C   LIG    1       -1.036   3.567   0.026  0.00  0.00    +0.250 C 
BRANCH   6   7
ATOM      7  N   LIG    1       -2.318   4.284   0.036  0.00  0.00    -0.380 N 
ATOM      8  C   LIG    1       -3.025   4.005   1.293  0.00  0.00    +0.330 C 
ATOM      9  H   LIG    1       -2.881   3.976  -0.742  0.00  0.00    +0.430 HD
BRANCH   7  11
ATOM     10  C   LIG    1       -1.335   6.018  -1.387  0.00  0.00    +0.080 C 
ATOM     11  C   LIG    1       -2.072   5.728  -0.078  0.00  0.00    +0.160 C 
ATOM     12  C   LIG    1       -3.407   6.474  -0.067  0.00  0.00    +0.080 C 
ENDBRANCH   7  11
ENDBRANCH   6   7
ENDBRANCH   5   6
ENDBRANCH   1   5
BRANCH   3  13
ATOM     13  C   LIG    1        1.317  -0.740  -0.015  0.00  0.00    +0.240 C 
BRANCH  13  14
ATOM     14  O   LIG    1        1.075  -2.148  -0.020  0.00  0.00    -0.290 OA
BRANCH  14  15
ATOM     15  C   LIG    1        2.163  -2.960  -0.035  0.00  0.00    +0.150 A 
ATOM     16  C   LIG    1        3.439  -2.410  -0.049  0.00  0.00    -0.070 A 
ATOM     17  C   LIG    1        4.545  -3.230  -0.059  0.00  0.00    +0.110 A 
ATOM     18  C   LIG    1        4.383  -4.618  -0.065  0.00  0.00    -0.060 A 
ATOM     19  C   LIG    1        3.098  -5.168  -0.055  0.00  0.00    +0.120 A 
ATOM     20  C   LIG    1        1.997  -4.340  -0.040  0.00  0.00    +0.010 A 
BRANCH  18  21
ATOM     21  C   LIG    1        5.530  -5.475  -0.081  0.00  0.00    +0.250 C 
ATOM     22  N   LIG    1        6.440  -6.155  -0.093  0.00  0.00    -0.410 NA
ENDBRANCH  18  21
ENDBRANCH  14  15
ENDBRANCH  13  14
ENDBRANCH   3  13
TORSDOF 8
