REMARK  Name = ZINCvU0000000ISs.0
REMARK                            x       y       z     vdW  Elec       q    Type
REMARK                         _______ _______ _______ _____ _____    ______ ____
ROOT
ATOM      1  C   LIG    1       -6.865  10.016  -1.159  0.00  0.00    +0.240 C 
ATOM      2  C   LIG    1       -5.468  10.637  -1.226  0.00  0.00    +0.000 C 
ATOM      3  C   LIG    1       -4.609  10.077  -0.087  0.00  0.00    +0.280 C 
ATOM      4  N   LIG    1       -4.622   8.610  -0.163  0.00  0.00    -0.610 N 
ATOM      5  C   LIG    1       -5.916   7.915  -0.203  0.00  0.00    +0.280 C 
ATOM      6  C   LIG    1       -3.468   7.915  -0.201  0.00  0.00    +0.560 C 
ATOM      7  O   LIG    1       -2.406   8.502  -0.270  0.00  0.00    -0.530 OA
ATOM      8  C   LIG    1       -6.759   8.499  -1.335  0.00  0.00    +0.000 C 
ENDROOT
BRANCH   6   9
ATOM      9  C   LIG    1       -3.493   6.437  -0.159  0.00  0.00    -0.110 A 
ATOM     10  C   LIG    1       -4.480   5.774   0.572  0.00  0.00    +0.030 A 
ATOM     11  C   LIG    1       -4.502   4.394   0.610  0.00  0.00    +0.040 A 
ATOM     12  C   LIG    1       -3.551   3.665  -0.078  0.00  0.00    +0.050 A 
ATOM     13  C   LIG    1       -2.560   4.315  -0.805  0.00  0.00    +0.140 A 
ATOM     14  C   LIG    1       -2.530   5.700  -0.849  0.00  0.00    +0.050 A 
BRANCH  13  15
ATOM     15  N   LIG    1       -1.598   3.572  -1.496  0.00  0.00    -0.660 N 
ATOM     16  H   LIG    1       -1.171   3.944  -2.284  0.00  0.00    +0.420 HD
ATOM     17  C   LIG    1       -1.262   2.339  -1.066  0.00  0.00    +0.610 C 
ATOM     18  O   LIG    1       -1.726   1.910  -0.026  0.00  0.00    -0.490 OA
BRANCH  17  19
ATOM     19  C   LIG    1       -0.339   1.516  -1.852  0.00  0.00    -0.060 A 
ATOM     20  C   LIG    1        0.082   0.256  -1.533  0.00  0.00    +0.070 A 
ATOM     21  C   LIG    1        0.947  -0.152  -2.560  0.00  0.00    +0.010 A 
ATOM     22  C   LIG    1        1.016   0.865  -3.450  0.00  0.00    +0.000 A 
ATOM     23 BR   LIG    1        2.041   0.869  -5.040  0.00  0.00    +0.070 Br
ATOM     24  O   LIG    1        0.239   1.868  -3.019  0.00  0.00    -0.150 OA
ENDBRANCH  17  19
ENDBRANCH  13  15
ENDBRANCH   6   9
BRANCH   1  26
ATOM     25  C   LIG    1       -7.369  10.306  -3.629  0.00  0.00    +0.280 C 
ATOM     26  N   LIG    1       -7.698  10.574  -2.227  0.00  0.00    -0.630 N 
BRANCH  26  27
ATOM     27  C   LIG    1       -8.807  11.361  -1.908  0.00  0.00    +0.220 A 
ATOM     28  C   LIG    1       -9.664  11.795  -2.912  0.00  0.00    -0.080 A 
ATOM     29  C   LIG    1      -10.762  12.569  -2.593  0.00  0.00    +0.050 A 
ATOM     30  C   LIG    1      -11.003  12.921  -1.277  0.00  0.00    -0.060 A 
ATOM     31  C   LIG    1      -10.149  12.495  -0.277  0.00  0.00    +0.050 A 
ATOM     32  C   LIG    1       -9.052  11.716  -0.588  0.00  0.00    -0.080 A 
ENDBRANCH  26  27
ENDBRANCH   1  26
TORSDOF 5
