REMARK  Name = ZINCtV000002IF0L.0
REMARK                            x       y       z     vdW  Elec       q    Type
REMARK                         _______ _______ _______ _____ _____    ______ ____
ROOT
ATOM      1  C   LIG    1       -6.857   4.791  -1.077  0.00  0.00    +0.540 C 
ATOM      2  N   LIG    1       -7.291   5.854  -0.370  0.00  0.00    -0.660 N 
ATOM      3  H   LIG    1       -6.652   6.443   0.061  0.00  0.00    +0.420 HD
ATOM      4  O   LIG    1       -7.654   3.984  -1.508  0.00  0.00    -0.500 OA
ENDROOT
BRANCH   2   5
ATOM      5  C   LIG    1       -8.664   6.109  -0.260  0.00  0.00    +0.160 A 
ATOM      6  C   LIG    1       -9.570   5.060  -0.287  0.00  0.00    +0.040 A 
ATOM      7  C   LIG    1      -10.925   5.314  -0.171  0.00  0.00    +0.030 A 
ATOM      8  C   LIG    1      -11.381   6.612  -0.040  0.00  0.00    +0.020 A 
ATOM      9  C   LIG    1      -10.485   7.665  -0.018  0.00  0.00    +0.030 A 
ATOM     10  C   LIG    1       -9.124   7.420  -0.127  0.00  0.00    -0.130 A 
BRANCH  10  11
ATOM     11  S   LIG    1       -7.980   8.759  -0.099  0.00  0.00    -0.010 S 
BRANCH  11  12
ATOM     12  C   LIG    1       -9.028  10.176  -0.087  0.00  0.00    -0.140 A 
ATOM     13  C   LIG    1       -9.367  10.801  -1.280  0.00  0.00    +0.090 A 
ATOM     14  C   LIG    1      -10.193  11.908  -1.268  0.00  0.00    +0.020 A 
ATOM     15  C   LIG    1      -10.674  12.400  -0.067  0.00  0.00    -0.000 A 
ATOM     16  C   LIG    1      -10.333  11.783   1.124  0.00  0.00    +0.020 A 
ATOM     17 CL   LIG    1      -11.706  13.796  -0.055  0.00  0.00    -0.060 Cl
ATOM     18  C   LIG    1       -9.512  10.673   1.117  0.00  0.00    +0.090 A 
ENDBRANCH  11  12
ENDBRANCH  10  11
ENDBRANCH   2   5
BRANCH   1  19
ATOM     19  C   LIG    1       -5.384   4.605  -1.331  0.00  0.00    +0.110 C 
BRANCH  19  20
ATOM     20  S   LIG    1       -5.124   3.098  -2.300  0.00  0.00    +0.080 S 
BRANCH  20  28
ATOM     21  C   LIG    1        2.409   4.532  -2.105  0.00  0.00    +0.100 C 
ATOM     22  C   LIG    1        1.101   3.849  -2.411  0.00  0.00    -0.090 A 
ATOM     23  C   LIG    1        1.094   2.674  -3.146  0.00  0.00    +0.030 A 
ATOM     24  C   LIG    1       -0.096   2.036  -3.434  0.00  0.00    +0.020 A 
ATOM     25  C   LIG    1       -1.293   2.576  -2.991  0.00  0.00    +0.050 A 
ATOM     26  N   LIG    1       -2.619   2.192  -3.102  0.00  0.00    -0.580 N 
ATOM     27  H   LIG    1       -2.954   1.407  -3.563  0.00  0.00    +0.430 HD
ATOM     28  C   LIG    1       -3.368   3.128  -2.446  0.00  0.00    +0.250 A 
ATOM     29  N   LIG    1       -2.586   4.050  -1.941  0.00  0.00    -0.490 NA
ATOM     30  C   LIG    1       -1.292   3.764  -2.241  0.00  0.00    +0.060 A 
ATOM     31  C   LIG    1       -0.079   4.397  -1.958  0.00  0.00    +0.060 A 
ENDBRANCH  20  28
ENDBRANCH  19  20
ENDBRANCH   1  19
TORSDOF 6
