REMARK  Name = ZINCqH0000007P0b.0
REMARK                            x       y       z     vdW  Elec       q    Type
REMARK                         _______ _______ _______ _____ _____    ______ ____
ROOT
ATOM      1  N   LIG    1       -0.694  -0.454  -1.222  0.00  0.00    -0.520 NA
ENDROOT
BRANCH   1   2
ATOM      2  C   LIG    1       -0.074   0.010   0.026  0.00  0.00    +0.250 C 
BRANCH   2   8
ATOM      3  C   LIG    1       -0.677   2.437   0.216  0.00  0.00    +0.130 A 
ATOM      4  C   LIG    1       -0.355   3.782   0.108  0.00  0.00    -0.100 A 
ATOM      5  C   LIG    1        0.903   4.157  -0.322  0.00  0.00    +0.040 A 
ATOM      6  C   LIG    1        1.843   3.194  -0.638  0.00  0.00    -0.040 A 
ATOM      7  C   LIG    1        1.526   1.853  -0.526  0.00  0.00    +0.060 A 
ATOM      8  C   LIG    1        0.270   1.472  -0.096  0.00  0.00    -0.110 A 
BRANCH   3  10
ATOM      9  C   LIG    1       -2.871   3.107   0.840  0.00  0.00    +0.210 C 
ATOM     10  O   LIG    1       -1.916   2.065   0.633  0.00  0.00    -0.270 OA
ENDBRANCH   3  10
ENDBRANCH   2   8
ENDBRANCH   1   2
BRANCH   1  11
ATOM     11  C   LIG    1       -2.054   0.084  -1.366  0.00  0.00    +0.230 C 
BRANCH  11  12
ATOM     12  C   LIG    1       -2.958  -0.518  -0.289  0.00  0.00    +0.110 C 
ATOM     13  C   LIG    1       -4.425  -0.093  -0.518  0.00  0.00    -0.010 C 
ATOM     14  C   LIG    1       -4.981   0.118   0.908  0.00  0.00    -0.010 C 
ATOM     15  C   LIG    1       -3.785  -0.205   1.830  0.00  0.00    +0.180 C 
ATOM     16  O   LIG    1       -2.617   0.015   1.009  0.00  0.00    -0.330 OA
ENDBRANCH  11  12
ENDBRANCH   1  11
BRANCH   1  17
ATOM     17  C   LIG    1       -0.698  -1.921  -1.295  0.00  0.00    +0.220 C 
BRANCH  17  18
ATOM     18  C   LIG    1       -0.998  -2.353  -2.707  0.00  0.00    -0.020 A 
ATOM     19  C   LIG    1       -2.309  -2.488  -3.125  0.00  0.00    +0.020 A 
ATOM     20  C   LIG    1       -2.584  -2.880  -4.422  0.00  0.00    +0.100 A 
ATOM     21  C   LIG    1       -1.548  -3.146  -5.298  0.00  0.00    -0.050 A 
ATOM     22  C   LIG    1       -0.237  -3.016  -4.879  0.00  0.00    +0.100 A 
ATOM     23  C   LIG    1        0.038  -2.619  -3.583  0.00  0.00    +0.050 A 
BRANCH  21  24
ATOM     24  N   LIG    1       -1.843  -3.571  -6.685  0.00  0.00    +0.030 N 
ATOM     25  O   LIG    1       -2.997  -3.686  -7.055  0.00  0.00    -0.160 OA
ATOM     26  O   LIG    1       -0.930  -3.807  -7.457  0.00  0.00    -0.160 OA
ENDBRANCH  21  24
ENDBRANCH  17  18
ENDBRANCH   1  17
TORSDOF 8
