REMARK  Name = ZINCpe000000WBgt.1
REMARK                            x       y       z     vdW  Elec       q    Type
REMARK                         _______ _______ _______ _____ _____    ______ ____
ROOT
ATOM      1  N   LIG    1        4.080   0.415   2.587  0.00  0.00    -0.470 N 
ATOM      2  C   LIG    1        4.508   1.164   1.399  0.00  0.00    +0.220 C 
ATOM      3  C   LIG    1        3.569   2.356   1.184  0.00  0.00    +0.290 C 
ATOM      4  N   LIG    1        2.186   1.858   1.140  0.00  0.00    -0.610 N 
ATOM      5  C   LIG    1        1.723   0.991   2.234  0.00  0.00    +0.290 C 
ATOM      6  C   LIG    1        1.362   2.193   0.127  0.00  0.00    +0.520 C 
ATOM      7  O   LIG    1        1.728   2.984  -0.716  0.00  0.00    -0.530 OA
ATOM      8  C   LIG    1        2.737  -0.152   2.404  0.00  0.00    +0.200 C 
ENDROOT
BRANCH   1  13
ATOM      9  C   LIG    1        5.699  -2.382   4.318  0.00  0.00    +0.190 A 
ATOM     10  C   LIG    1        6.827  -2.509   3.508  0.00  0.00    -0.150 A 
ATOM     11  C   LIG    1        6.986  -1.659   2.435  0.00  0.00    +0.330 A 
ATOM     12  N   LIG    1        6.085  -0.731   2.167  0.00  0.00    -0.540 NA
ATOM     13  C   LIG    1        4.999  -0.577   2.910  0.00  0.00    +0.340 A 
ATOM     14  C   LIG    1        4.773  -1.392   4.011  0.00  0.00    -0.080 A 
BRANCH   9  16
ATOM     15  C   LIG    1        6.517  -4.188   5.627  0.00  0.00    +0.250 C 
ATOM     16  O   LIG    1        5.511  -3.203   5.383  0.00  0.00    -0.310 OA
ENDBRANCH   9  16
ENDBRANCH   1  13
BRANCH   6  17
ATOM     17  C   LIG    1       -0.014   1.584   0.043  0.00  0.00    +0.260 C 
BRANCH  17  18
ATOM     18  N   LIG    1       -0.939   2.549  -0.559  0.00  0.00    -0.730 N 
ATOM     19  H   LIG    1       -0.601   3.244  -1.145  0.00  0.00    +0.410 HD
ATOM     20  C   LIG    1       -2.258   2.471  -0.297  0.00  0.00    +0.710 C 
ATOM     21  O   LIG    1       -2.682   1.600   0.438  0.00  0.00    -0.590 OA
ATOM     22  N   LIG    1       -3.109   3.358  -0.850  0.00  0.00    -0.870 N 
ATOM     23  H   LIG    1       -4.059   3.302  -0.662  0.00  0.00    +0.420 HD
ATOM     24  H   LIG    1       -2.771   4.053  -1.437  0.00  0.00    +0.400 HD
ENDBRANCH  17  18
BRANCH  17  25
ATOM     25  C   LIG    1        0.039   0.322  -0.821  0.00  0.00    -0.070 C 
ATOM     26  C   LIG    1        0.372   0.705  -2.264  0.00  0.00    +0.040 C 
ATOM     27  C   LIG    1       -1.320  -0.381  -0.780  0.00  0.00    +0.040 C 
ATOM     28  C   LIG    1        1.117  -0.620  -0.281  0.00  0.00    +0.040 C 
ENDBRANCH  17  25
ENDBRANCH   6  17
TORSDOF 5
