REMARK  Name = ZINCqH0000038WjV.0
REMARK                            x       y       z     vdW  Elec       q    Type
REMARK                         _______ _______ _______ _____ _____    ______ ____
ROOT
ATOM      1  C   LIG    1       -0.014   1.209   0.009  0.00  0.00    +0.520 C 
ATOM      2  N   LIG    1        1.143   1.898   0.001  0.00  0.00    -0.620 N 
ATOM      3  H   LIG    1        1.130   2.868   0.007  0.00  0.00    +0.430 HD
ATOM      4  O   LIG    1        0.002  -0.004   0.002  0.00  0.00    -0.470 OA
ENDROOT
BRANCH   1  10
ATOM      5  C   LIG    1       -3.163   4.219  -4.044  0.00  0.00    +0.330 C 
ATOM      6  N   LIG    1       -2.256   3.797  -2.973  0.00  0.00    -0.450 N 
ATOM      7  C   LIG    1       -0.976   4.197  -2.798  0.00  0.00    +0.390 A 
ATOM      8  N   LIG    1       -0.492   3.605  -1.737  0.00  0.00    -0.490 NA
ATOM      9  C   LIG    1       -1.432   2.819  -1.206  0.00  0.00    -0.010 A 
ATOM     10  C   LIG    1       -1.330   1.944   0.019  0.00  0.00    +0.100 C 
ATOM     11  C   LIG    1       -2.485   0.936  -0.007  0.00  0.00    +0.060 C 
ATOM     12  C   LIG    1       -3.803   1.676  -0.255  0.00  0.00    +0.040 C 
ATOM     13  C   LIG    1       -3.833   2.197  -1.697  0.00  0.00    +0.110 C 
ATOM     14  C   LIG    1       -2.543   2.927  -1.966  0.00  0.00    -0.010 A 
ENDBRANCH   1  10
BRANCH   2  15
ATOM     15  C   LIG    1        2.357   1.220  -0.014  0.00  0.00    +0.280 A 
ATOM     16  N   LIG    1        2.486  -0.070  -0.022  0.00  0.00    -0.480 NA
ATOM     17  C   LIG    1        3.716  -0.547  -0.037  0.00  0.00    +0.250 A 
ATOM     18  C   LIG    1        4.672   0.384  -0.042  0.00  0.00    -0.240 A 
ATOM     19  S   LIG    1        3.895   1.965  -0.031  0.00  0.00    +0.120 S 
BRANCH  18  20
ATOM     20  C   LIG    1        6.157   0.128  -0.058  0.00  0.00    +0.140 C 
BRANCH  20  21
ATOM     21  C   LIG    1        6.645   0.049  -1.506  0.00  0.00    +0.070 C 
BRANCH  21  22
ATOM     22  C   LIG    1        8.130  -0.207  -1.523  0.00  0.00    -0.080 A 
ATOM     23  C   LIG    1        9.015   0.855  -1.532  0.00  0.00    +0.000 A 
ATOM     24  C   LIG    1       10.377   0.620  -1.542  0.00  0.00    +0.000 A 
ATOM     25  C   LIG    1       10.854  -0.677  -1.554  0.00  0.00    +0.000 A 
ATOM     26  C   LIG    1        9.970  -1.739  -1.551  0.00  0.00    +0.000 A 
ATOM     27  C   LIG    1        8.607  -1.504  -1.536  0.00  0.00    +0.000 A 
ENDBRANCH  21  22
ENDBRANCH  20  21
ENDBRANCH  18  20
ENDBRANCH   2  15
TORSDOF 5
