REMARK  Name = ZINCrH000004sY2Q.0
REMARK                            x       y       z     vdW  Elec       q    Type
REMARK                         _______ _______ _______ _____ _____    ______ ____
ROOT
ATOM      1  N   LIG    1       -4.063   0.746   1.429  0.00  0.00    -0.720 N 
ATOM      2  H   LIG    1       -3.425   0.732   2.159  0.00  0.00    +0.400 HD
ATOM      3  C   LIG    1       -5.386   0.764   1.688  0.00  0.00    +0.560 C 
ATOM      4  O   LIG    1       -6.185   0.780   0.772  0.00  0.00    -0.500 OA
ENDROOT
BRANCH   3   5
ATOM      5  C   LIG    1       -5.863   0.764   3.083  0.00  0.00    -0.130 A 
ATOM      6  C   LIG    1       -4.948   0.739   4.139  0.00  0.00    +0.070 A 
ATOM      7  C   LIG    1       -5.401   0.745   5.440  0.00  0.00    -0.010 A 
ATOM      8  C   LIG    1       -6.760   0.763   5.710  0.00  0.00    +0.060 A 
ATOM      9  C   LIG    1       -7.676   0.782   4.678  0.00  0.00    -0.020 A 
ATOM     10  C   LIG    1       -7.240   0.783   3.359  0.00  0.00    -0.040 A 
BRANCH  10  11
ATOM     11  S   LIG    1       -8.407   0.806   2.039  0.00  0.00    +0.030 S 
BRANCH  11  12
ATOM     12  C   LIG    1      -10.001   0.825   2.905  0.00  0.00    +0.000 C 
BRANCH  12  13
ATOM     13  C   LIG    1      -11.138   0.847   1.881  0.00  0.00    +0.190 C 
ATOM     14  C   LIG    1      -12.494   0.986   2.606  0.00  0.00    +0.020 C 
ATOM     15  C   LIG    1      -13.407   0.039   1.778  0.00  0.00    +0.010 C 
ATOM     16  C   LIG    1      -12.400  -1.071   1.382  0.00  0.00    +0.200 C 
ATOM     17  O   LIG    1      -11.159  -0.386   1.152  0.00  0.00    -0.370 OA
ENDBRANCH  12  13
ENDBRANCH  11  12
ENDBRANCH  10  11
ENDBRANCH   3   5
BRANCH   1  18
ATOM     18  C   LIG    1       -3.589   0.746   0.042  0.00  0.00    +0.400 C 
BRANCH  18  28
ATOM     19  C   LIG    1       -1.810  -1.784   0.011  0.00  0.00    +0.330 C 
ATOM     20  N   LIG    1       -1.320  -0.403   0.013  0.00  0.00    -0.480 N 
ATOM     21  C   LIG    1        0.002  -0.004   0.002  0.00  0.00    +0.050 A 
ATOM     22  C   LIG    1        1.215  -0.678  -0.014  0.00  0.00    +0.010 A 
ATOM     23  C   LIG    1        2.394   0.037  -0.022  0.00  0.00    +0.030 A 
ATOM     24  C   LIG    1        2.375   1.425  -0.014  0.00  0.00    +0.000 A 
ATOM     25  C   LIG    1        1.190   2.105   0.002  0.00  0.00    +0.070 A 
ATOM     26  C   LIG    1       -0.017   1.401   0.010  0.00  0.00    +0.040 A 
ATOM     27  N   LIG    1       -1.321   1.779   0.030  0.00  0.00    -0.470 NA
ATOM     28  C   LIG    1       -2.082   0.724   0.027  0.00  0.00    +0.260 A 
ENDBRANCH  18  28
ENDBRANCH   1  18
TORSDOF 6
