REMARK  Name = ZINCrH000004ljD4.0
REMARK                            x       y       z     vdW  Elec       q    Type
REMARK                         _______ _______ _______ _____ _____    ______ ____
ROOT
ATOM      1  N   LIG    1        4.180  -3.111   1.345  0.00  0.00    -0.620 N 
ATOM      2  C   LIG    1        3.907  -2.104   0.491  0.00  0.00    +0.710 C 
ATOM      3  N   LIG    1        4.027  -0.825   0.898  0.00  0.00    -0.740 N 
ATOM      4  H   LIG    1        4.310  -0.628   1.805  0.00  0.00    +0.390 HD
ATOM      5  O   LIG    1        3.553  -2.350  -0.645  0.00  0.00    -0.580 OA
ENDROOT
BRANCH   3   6
ATOM      6  C   LIG    1        3.731   0.270  -0.030  0.00  0.00    +0.330 C 
ATOM      7  C   LIG    1        4.482   1.529   0.406  0.00  0.00    +0.020 C 
ATOM      8  C   LIG    1        3.998   2.720  -0.427  0.00  0.00    +0.040 C 
ATOM      9  C   LIG    1        2.569   3.074  -0.006  0.00  0.00    +0.110 C 
ATOM     10  C   LIG    1        1.736   1.810  -0.005  0.00  0.00    -0.170 A 
ATOM     11  S   LIG    1       -0.022   1.753   0.012  0.00  0.00    +0.090 S 
ATOM     12  C   LIG    1        0.002  -0.004   0.002  0.00  0.00    -0.060 A 
ATOM     13  C   LIG    1        1.260  -0.432  -0.012  0.00  0.00    +0.030 A 
ATOM     14  C   LIG    1        2.236   0.560  -0.016  0.00  0.00    -0.120 A 
ENDBRANCH   3   6
BRANCH   1  15
ATOM     15  C   LIG    1        4.606  -2.814   2.715  0.00  0.00    +0.290 C 
BRANCH  15  16
ATOM     16  C   LIG    1        3.378  -2.718   3.623  0.00  0.00    +0.150 C 
BRANCH  16  18
ATOM     17  C   LIG    1        1.573  -4.014   4.521  0.00  0.00    +0.200 C 
ATOM     18  O   LIG    1        2.738  -3.994   3.694  0.00  0.00    -0.380 OA
ENDBRANCH  16  18
ENDBRANCH  15  16
ENDBRANCH   1  15
BRANCH   1  19
ATOM     19  C   LIG    1        4.049  -4.501   0.904  0.00  0.00    +0.380 C 
BRANCH  19  20
ATOM     20  C   LIG    1        5.360  -4.971   0.328  0.00  0.00    -0.100 A 
ATOM     21  C   LIG    1        5.616  -4.814  -1.021  0.00  0.00    +0.070 A 
ATOM     22  C   LIG    1        6.820  -5.239  -1.553  0.00  0.00    +0.040 A 
ATOM     23  C   LIG    1        7.768  -5.832  -0.736  0.00  0.00    +0.030 A 
ATOM     24  O   LIG    1        9.009  -6.333  -1.006  0.00  0.00    -0.310 OA
ATOM     25  C   LIG    1        9.338  -7.171   0.118  0.00  0.00    +0.420 C 
ATOM     26  O   LIG    1        8.586  -6.597   1.204  0.00  0.00    -0.310 OA
ATOM     27  C   LIG    1        7.508  -5.995   0.623  0.00  0.00    +0.030 A 
ATOM     28  C   LIG    1        6.302  -5.562   1.149  0.00  0.00    +0.040 A 
ENDBRANCH  19  20
ENDBRANCH   1  19
TORSDOF 6
