REMARK  Name = ZINCqH0000037C9F.0
REMARK                            x       y       z     vdW  Elec       q    Type
REMARK                         _______ _______ _______ _____ _____    ______ ____
ROOT
ATOM      1  N   LIG    1        2.331   4.565  -0.121  0.00  0.00    -1.050 N 
ATOM      2  H   LIG    1        3.075   4.462  -0.736  0.00  0.00    +0.440 HD
ENDROOT
BRANCH   1   3
ATOM      3  C   LIG    1        1.339   3.582  -0.052  0.00  0.00    +0.160 A 
ATOM      4  C   LIG    1        0.020   3.944   0.164  0.00  0.00    +0.050 A 
ATOM      5  C   LIG    1       -0.967   2.959   0.233  0.00  0.00    -0.100 A 
ATOM      6  C   LIG    1       -0.619   1.615   0.076  0.00  0.00    +0.010 A 
ATOM      7  C   LIG    1        0.701   1.264  -0.134  0.00  0.00    +0.080 A 
ATOM      8 CL   LIG    1       -1.842   0.386   0.153  0.00  0.00    -0.000 Cl
ATOM      9  C   LIG    1        1.678   2.240  -0.201  0.00  0.00    -0.020 A 
ATOM     10 CL   LIG    1        3.333   1.791  -0.472  0.00  0.00    -0.030 Cl
BRANCH   5  11
ATOM     11  C   LIG    1       -2.376   3.337   0.464  0.00  0.00    +0.560 C 
ATOM     12  O   LIG    1       -3.235   2.478   0.522  0.00  0.00    -0.500 OA
ATOM     13  N   LIG    1       -2.711   4.635   0.609  0.00  0.00    -0.850 N 
ATOM     14  H   LIG    1       -3.636   4.883   0.760  0.00  0.00    +0.410 HD
ATOM     15  H   LIG    1       -2.026   5.320   0.562  0.00  0.00    +0.400 HD
ENDBRANCH   5  11
ENDBRANCH   1   3
BRANCH   1  16
ATOM     16  S   LIG    1        2.237   5.906   0.846  0.00  0.00    +2.700 S 
ATOM     17  O   LIG    1        0.953   6.472   0.623  0.00  0.00    -0.930 OA
ATOM     18  O   LIG    1        3.447   6.625   0.654  0.00  0.00    -0.920 OA
BRANCH  16  23
ATOM     19  C   LIG    1        2.287   3.989   6.568  0.00  0.00    +0.160 C 
ATOM     20  C   LIG    1        2.274   4.467   5.139  0.00  0.00    +0.050 A 
ATOM     21  C   LIG    1        1.073   4.614   4.469  0.00  0.00    -0.070 A 
ATOM     22  C   LIG    1        1.062   5.059   3.159  0.00  0.00    +0.210 A 
ATOM     23  C   LIG    1        2.251   5.346   2.517  0.00  0.00    -0.680 A 
ATOM     24  C   LIG    1        3.451   5.200   3.187  0.00  0.00    +0.240 A 
ATOM     25 CL   LIG    1       -0.420   4.246   5.274  0.00  0.00    -0.010 Cl
ATOM     26  C   LIG    1        3.463   4.760   4.497  0.00  0.00    -0.060 A 
BRANCH  26  27
ATOM     27  N   LIG    1        4.749   4.603   5.213  0.00  0.00    +0.030 N 
ATOM     28  O   LIG    1        4.755   4.335   6.401  0.00  0.00    -0.140 OA
ATOM     29  O   LIG    1        5.801   4.742   4.615  0.00  0.00    -0.140 OA
ENDBRANCH  26  27
ENDBRANCH  16  23
ENDBRANCH   1  16
TORSDOF 5
