REMARK  Name = ZINCvU0000000HaS.0
REMARK                            x       y       z     vdW  Elec       q    Type
REMARK                         _______ _______ _______ _____ _____    ______ ____
ROOT
ATOM      1  N   LIG    1        1.298   2.394   2.073  0.00  0.00    -0.670 N 
ATOM      2  H   LIG    1        1.772   2.051   1.300  0.00  0.00    +0.410 HD
ATOM      3  C   LIG    1       -0.043   2.285   2.144  0.00  0.00    +0.710 C 
ATOM      4  N   LIG    1       -0.715   1.599   1.199  0.00  0.00    -0.630 N 
ATOM      5  C   LIG    1       -0.015   1.063   0.023  0.00  0.00    +0.270 C 
ATOM      6  C   LIG    1       -0.725   1.554  -1.242  0.00  0.00    +0.040 C 
ATOM      7  C   LIG    1       -2.206   1.176  -1.171  0.00  0.00    +0.130 C 
ATOM      8  C   LIG    1       -2.850   1.858   0.039  0.00  0.00    +0.040 C 
ATOM      9  C   LIG    1       -2.164   1.370   1.319  0.00  0.00    +0.320 C 
ATOM     10  O   LIG    1       -0.647   2.807   3.062  0.00  0.00    -0.560 OA
ENDROOT
BRANCH   1  13
ATOM     11  C   LIG    1        2.284   3.953   5.192  0.00  0.00    -0.260 A 
ATOM     12  C   LIG    1        1.415   3.374   4.307  0.00  0.00    +0.140 A 
ATOM     13  C   LIG    1        2.012   3.007   3.121  0.00  0.00    +0.140 A 
ATOM     14  C   LIG    1        3.325   3.272   3.041  0.00  0.00    -0.250 A 
ATOM     15  C   LIG    1        4.190   2.955   1.848  0.00  0.00    +0.150 C 
ATOM     16  S   LIG    1        3.885   4.018   4.470  0.00  0.00    +0.270 S 
BRANCH  11  17
ATOM     17  C   LIG    1        1.935   4.442   6.526  0.00  0.00    +0.540 C 
ATOM     18  O   LIG    1        0.790   4.348   6.928  0.00  0.00    -0.490 OA
BRANCH  17  20
ATOM     19  C   LIG    1        2.471   5.452   8.601  0.00  0.00    +0.270 C 
ATOM     20  O   LIG    1        2.882   4.996   7.311  0.00  0.00    -0.350 OA
ENDBRANCH  17  20
ENDBRANCH  11  17
ENDBRANCH   1  13
BRANCH   7  21
ATOM     21  C   LIG    1       -2.901   1.628  -2.429  0.00  0.00    +0.190 A 
ATOM     22  N   LIG    1       -3.524   0.863  -3.291  0.00  0.00    -0.470 NA
ATOM     23  C   LIG    1       -3.988   1.698  -4.248  0.00  0.00    +0.200 A 
ATOM     24  N   LIG    1       -3.616   2.908  -3.919  0.00  0.00    -0.340 NA
ATOM     25  O   LIG    1       -2.992   2.883  -2.879  0.00  0.00    +0.090 OA
BRANCH  23  26
ATOM     26  C   LIG    1       -4.768   1.313  -5.450  0.00  0.00    +0.000 A 
ATOM     27  C   LIG    1       -5.089  -0.024  -5.677  0.00  0.00    +0.070 A 
ATOM     28  C   LIG    1       -5.819  -0.376  -6.794  0.00  0.00    +0.030 A 
ATOM     29  C   LIG    1       -6.223   0.593  -7.694  0.00  0.00    +0.050 A 
ATOM     30  C   LIG    1       -5.903   1.921  -7.478  0.00  0.00    +0.050 A 
ATOM     31  C   LIG    1       -5.177   2.286  -6.361  0.00  0.00    -0.070 A 
ATOM     32 BR   LIG    1       -4.740   4.102  -6.067  0.00  0.00    -0.010 Br
ENDBRANCH  23  26
ENDBRANCH   7  21
TORSDOF 5
