REMARK  Name = ZINCtV00001bB3E6.1
REMARK                            x       y       z     vdW  Elec       q    Type
REMARK                         _______ _______ _______ _____ _____    ______ ____
ROOT
ATOM      1  O   LIG    1       -3.888   3.214  -4.750  0.00  0.00    -0.410 OA
ATOM      2  C   LIG    1       -3.749   2.958  -3.568  0.00  0.00    +0.480 C 
ATOM      3  O   LIG    1       -2.890   3.533  -2.698  0.00  0.00    -0.290 OA
ATOM      4  C   LIG    1       -3.050   2.962  -1.493  0.00  0.00    +0.320 C 
ATOM      5  N   LIG    1       -3.969   2.052  -1.510  0.00  0.00    -0.480 NA
ATOM      6  C   LIG    1       -4.484   1.959  -2.775  0.00  0.00    -0.090 C 
ATOM      7  C   LIG    1       -5.480   1.112  -3.212  0.00  0.00    +0.240 C 
ENDROOT
BRANCH   7   8
ATOM      8  C   LIG    1       -5.985   0.059  -2.329  0.00  0.00    -0.110 A 
ATOM      9  C   LIG    1       -5.256  -0.321  -1.194  0.00  0.00    +0.150 A 
ATOM     10  C   LIG    1       -5.741  -1.309  -0.366  0.00  0.00    -0.110 A 
ATOM     11  C   LIG    1       -6.943  -1.938  -0.654  0.00  0.00    +0.130 A 
ATOM     12  C   LIG    1       -7.671  -1.578  -1.773  0.00  0.00    -0.130 A 
ATOM     13 BR   LIG    1       -9.307  -2.446  -2.153  0.00  0.00    -0.010 Br
ATOM     14 BR   LIG    1       -4.759  -1.816   1.169  0.00  0.00    -0.020 Br
ATOM     15  C   LIG    1       -7.203  -0.582  -2.617  0.00  0.00    +0.190 A 
BRANCH  15  16
ATOM     16  O   LIG    1       -7.918  -0.228  -3.715  0.00  0.00    -0.480 OA
ATOM     17  H   LIG    1       -7.693  -0.731  -4.509  0.00  0.00    +0.410 HD
ENDBRANCH  15  16
ENDBRANCH   7   8
BRANCH   4  18
ATOM     18  C   LIG    1       -2.260   3.342  -0.267  0.00  0.00    +0.200 C 
BRANCH  18  19
ATOM     19  C   LIG    1       -3.083   3.070   0.966  0.00  0.00    -0.090 A 
ATOM     20  C   LIG    1       -3.614   1.812   1.178  0.00  0.00    +0.050 A 
ATOM     21  C   LIG    1       -4.365   1.561   2.311  0.00  0.00    +0.000 A 
ATOM     22  C   LIG    1       -4.594   2.571   3.227  0.00  0.00    +0.010 A 
ATOM     23  C   LIG    1       -4.067   3.831   3.011  0.00  0.00    +0.000 A 
ATOM     24  C   LIG    1       -3.311   4.080   1.881  0.00  0.00    +0.020 A 
ENDBRANCH  18  19
BRANCH  18  25
ATOM     25  C   LIG    1       -0.993   2.528  -0.214  0.00  0.00    -0.090 A 
ATOM     26  C   LIG    1       -1.049   1.153  -0.342  0.00  0.00    +0.010 A 
ATOM     27  C   LIG    1        0.113   0.406  -0.289  0.00  0.00    +0.010 A 
ATOM     28  C   LIG    1        1.332   1.035  -0.119  0.00  0.00    +0.020 A 
ATOM     29  C   LIG    1        1.389   2.410   0.003  0.00  0.00    +0.010 A 
ATOM     30  C   LIG    1        0.227   3.157  -0.044  0.00  0.00    +0.030 A 
ENDBRANCH  18  25
ENDBRANCH   4  18
TORSDOF 5
