REMARK  Name = ZINCrH00000No4JR.0
REMARK                            x       y       z     vdW  Elec       q    Type
REMARK                         _______ _______ _______ _____ _____    ______ ____
ROOT
ATOM      1  N   LIG    1        0.459   6.580   0.181  0.00  0.00    -0.570 N 
ENDROOT
BRANCH   1   6
ATOM      2  C   LIG    1        1.958   8.930  -2.036  0.00  0.00    +0.400 A 
ATOM      3  C   LIG    1        0.847   9.675  -2.425  0.00  0.00    -0.160 A 
ATOM      4  C   LIG    1       -0.389   9.338  -1.905  0.00  0.00    +0.380 A 
ATOM      5  N   LIG    1       -0.481   8.321  -1.062  0.00  0.00    -0.590 NA
ATOM      6  C   LIG    1        0.594   7.633  -0.706  0.00  0.00    +0.600 A 
ATOM      7  N   LIG    1        1.795   7.926  -1.183  0.00  0.00    -0.600 NA
BRANCH   2   9
ATOM      8  C   LIG    1        4.256   8.346  -2.164  0.00  0.00    +0.270 C 
ATOM      9  O   LIG    1        3.188   9.226  -2.522  0.00  0.00    -0.300 OA
ENDBRANCH   2   9
ENDBRANCH   1   6
BRANCH   1  10
ATOM     10  C   LIG    1       -0.873   6.171   0.635  0.00  0.00    +0.320 C 
BRANCH  10  11
ATOM     11  C   LIG    1       -1.463   5.167  -0.357  0.00  0.00    +0.150 C 
ATOM     12  C   LIG    1       -2.891   4.754   0.081  0.00  0.00    +0.020 C 
ATOM     13  C   LIG    1       -3.017   3.358  -0.591  0.00  0.00    +0.020 C 
ATOM     14  C   LIG    1       -1.573   2.833  -0.511  0.00  0.00    +0.090 C 
ATOM     15  C   LIG    1       -1.187   1.854  -1.625  0.00  0.00    +0.010 C 
ATOM     16  C   LIG    1       -0.409   1.071  -0.554  0.00  0.00    +0.010 C 
ATOM     17  C   LIG    1       -1.365   1.685   0.484  0.00  0.00    +0.020 C 
ATOM     18  O   LIG    1       -0.699   3.948  -0.347  0.00  0.00    -0.350 OA
ENDBRANCH  10  11
ENDBRANCH   1  10
BRANCH   1  19
ATOM     19  C   LIG    1        1.647   5.875   0.668  0.00  0.00    +0.420 C 
BRANCH  19  20
ATOM     20  C   LIG    1        2.215   6.607   1.856  0.00  0.00    -0.030 A 
ATOM     21  C   LIG    1        1.982   6.323   3.148  0.00  0.00    -0.020 A 
ATOM     22  O   LIG    1        2.678   7.214   3.882  0.00  0.00    -0.200 OA
ATOM     23  C   LIG    1        3.323   8.026   3.034  0.00  0.00    +0.410 A 
ATOM     24  N   LIG    1        3.051   7.660   1.814  0.00  0.00    -0.460 NA
BRANCH  21  25
ATOM     25  C   LIG    1        1.107   5.216   3.678  0.00  0.00    +0.090 C 
ATOM     26  C   LIG    1       -0.044   5.819   4.486  0.00  0.00    +0.040 C 
ATOM     27  C   LIG    1        1.935   4.297   4.577  0.00  0.00    +0.040 C 
ENDBRANCH  21  25
ENDBRANCH  19  20
ENDBRANCH   1  19
TORSDOF 7
