REMARK  Name = ZINCqH0000006nVK.0
REMARK                            x       y       z     vdW  Elec       q    Type
REMARK                         _______ _______ _______ _____ _____    ______ ____
ROOT
ATOM      1  C   LIG    1       -4.976   2.075   0.059  0.00  0.00    +0.590 C 
ATOM      2  N   LIG    1       -5.896   3.060   0.072  0.00  0.00    -0.710 N 
ATOM      3  H   LIG    1       -5.613   3.988   0.073  0.00  0.00    +0.400 HD
ATOM      4  O   LIG    1       -5.331   0.911   0.057  0.00  0.00    -0.510 OA
ENDROOT
BRANCH   1   6
ATOM      5  C   LIG    1       -2.555   1.507   0.034  0.00  0.00    -0.000 A 
ATOM      6  C   LIG    1       -3.544   2.406   0.047  0.00  0.00    -0.210 A 
ATOM      7  S   LIG    1       -2.898   4.038   0.049  0.00  0.00    +0.150 S 
ATOM      8  C   LIG    1       -1.244   3.436   0.030  0.00  0.00    -0.100 A 
ATOM      9  C   LIG    1       -0.026   4.124   0.023  0.00  0.00    +0.040 A 
ATOM     10  C   LIG    1        1.162   3.434   0.009  0.00  0.00    +0.090 A 
ATOM     11  C   LIG    1        1.165   2.046   0.002  0.00  0.00    -0.010 A 
ATOM     12  C   LIG    1       -0.016   1.347   0.009  0.00  0.00    +0.150 A 
ATOM     13  F   LIG    1        0.002  -0.004   0.002  0.00  0.00    -0.120 F 
ATOM     14  C   LIG    1       -1.255   2.035   0.019  0.00  0.00    -0.110 A 
BRANCH   5  15
ATOM     15  C   LIG    1       -2.819   0.023   0.031  0.00  0.00    +0.250 C 
BRANCH  15  17
ATOM     16  C   LIG    1       -3.166  -1.843  -1.434  0.00  0.00    +0.220 C 
ATOM     17  O   LIG    1       -2.915  -0.441  -1.318  0.00  0.00    -0.380 OA
ENDBRANCH  15  17
ENDBRANCH   5  15
ENDBRANCH   1   6
BRANCH   2  18
ATOM     18  C   LIG    1       -7.323   2.729   0.083  0.00  0.00    +0.330 C 
ATOM     19  C   LIG    1       -8.116   3.885   0.706  0.00  0.00    +0.020 C 
ATOM     20  C   LIG    1       -9.613   3.655   0.485  0.00  0.00    +0.040 C 
ATOM     21  C   LIG    1       -9.947   3.842  -1.000  0.00  0.00    +0.110 C 
ATOM     22  C   LIG    1       -8.976   3.023  -1.813  0.00  0.00    +0.090 A 
ATOM     23  N   LIG    1       -9.082   2.651  -3.099  0.00  0.00    -0.370 N 
ATOM     24  C   LIG    1      -10.188   2.975  -4.003  0.00  0.00    +0.360 C 
ATOM     25  N   LIG    1       -7.943   1.898  -3.423  0.00  0.00    -0.300 NA
ATOM     26  C   LIG    1       -7.182   1.826  -2.358  0.00  0.00    +0.260 A 
ATOM     27  C   LIG    1       -7.809   2.526  -1.330  0.00  0.00    -0.260 A 
ENDBRANCH   2  18
TORSDOF 4
