REMARK  Name = ZINCpk00000xI9xK.0
REMARK                            x       y       z     vdW  Elec       q    Type
REMARK                         _______ _______ _______ _____ _____    ______ ____
ROOT
ATOM      1  C   LIG    1       -1.351  -2.893   1.106  0.00  0.00    -0.270 C 
ATOM      2  C   LIG    1       -1.048  -2.170   0.006  0.00  0.00    +0.260 C 
ATOM      3  N   LIG    1       -0.560  -2.770  -1.119  0.00  0.00    -0.640 N 
ATOM      4  H   LIG    1       -0.352  -2.209  -1.883  0.00  0.00    +0.440 HD
ATOM      5  C   LIG    1       -0.350  -4.088  -1.226  0.00  0.00    +0.710 C 
ATOM      6  N   LIG    1       -0.610  -4.940  -0.215  0.00  0.00    -0.710 N 
ATOM      7  H   LIG    1       -0.452  -5.892  -0.315  0.00  0.00    +0.430 HD
ATOM      8  O   LIG    1        0.088  -4.530  -2.270  0.00  0.00    -0.560 OA
ATOM      9  C   LIG    1       -1.141  -4.392   1.044  0.00  0.00    +0.280 C 
ATOM     10  C   LIG    1       -2.483  -5.072   1.326  0.00  0.00    +0.040 C 
ENDROOT
BRANCH   1  11
ATOM     11  C   LIG    1       -1.852  -2.272   2.274  0.00  0.00    +0.530 C 
ATOM     12  O   LIG    1       -2.118  -1.084   2.266  0.00  0.00    -0.510 OA
BRANCH  11  13
ATOM     13  O   LIG    1       -2.035  -2.996   3.398  0.00  0.00    -0.350 OA
BRANCH  13  15
ATOM     14  C   LIG    1       -2.683  -3.283   5.708  0.00  0.00    +0.070 C 
ATOM     15  C   LIG    1       -2.544  -2.304   4.540  0.00  0.00    +0.200 C 
ENDBRANCH  13  15
ENDBRANCH  11  13
ENDBRANCH   1  11
BRANCH   2  16
ATOM     16  C   LIG    1       -1.248  -0.676   0.023  0.00  0.00    +0.340 C 
BRANCH  16  17
ATOM     17  O   LIG    1       -0.751  -0.108  -1.218  0.00  0.00    -0.370 OA
BRANCH  17  18
ATOM     18  C   LIG    1       -0.856   1.228  -1.363  0.00  0.00    +0.520 C 
ATOM     19  O   LIG    1       -1.352   1.899  -0.480  0.00  0.00    -0.460 OA
BRANCH  18  20
ATOM     20  C   LIG    1       -0.373   1.874  -2.595  0.00  0.00    -0.180 A 
ATOM     21  C   LIG    1        0.201   1.114  -3.621  0.00  0.00    +0.150 A 
ATOM     22  C   LIG    1        0.633   1.768  -4.761  0.00  0.00    -0.050 A 
ATOM     23  C   LIG    1        0.499   3.142  -4.851  0.00  0.00    +0.330 A 
ATOM     24  N   LIG    1       -0.040   3.842  -3.873  0.00  0.00    -0.490 NA
ATOM     25  C   LIG    1       -0.475   3.267  -2.762  0.00  0.00    +0.160 A 
BRANCH  25  26
ATOM     26  S   LIG    1       -1.186   4.253  -1.485  0.00  0.00    +0.040 S 
ATOM     27  C   LIG    1       -1.050   5.892  -2.241  0.00  0.00    +0.100 C 
ENDBRANCH  25  26
ENDBRANCH  18  20
ENDBRANCH  17  18
ENDBRANCH  16  17
ENDBRANCH   2  16
TORSDOF 8
