REMARK  Name = ZINCqH0000006GAM.0
REMARK                            x       y       z     vdW  Elec       q    Type
REMARK                         _______ _______ _______ _____ _____    ______ ____
ROOT
ATOM      1  C   LIG    1       -1.230   3.094  -0.236  0.00  0.00    +0.100 A 
ATOM      2  C   LIG    1       -0.050   3.811  -0.260  0.00  0.00    +0.030 A 
ATOM      3  C   LIG    1        1.159   3.170   0.023  0.00  0.00    -0.130 A 
ATOM      4  C   LIG    1        1.169   1.807   0.329  0.00  0.00    +0.060 A 
ATOM      5  C   LIG    1       -0.012   1.097   0.351  0.00  0.00    -0.040 A 
ATOM      6  C   LIG    1       -1.213   1.733   0.065  0.00  0.00    +0.130 A 
ENDROOT
BRANCH   3   7
ATOM      7  C   LIG    1        2.424   3.931  -0.001  0.00  0.00    +0.570 C 
ATOM      8  N   LIG    1        3.539   3.369  -0.507  0.00  0.00    -0.610 N 
ATOM      9  C   LIG    1        3.497   2.046  -1.150  0.00  0.00    +0.250 C 
ATOM     10  C   LIG    1        4.190   2.156  -2.518  0.00  0.00    +0.220 C 
ATOM     11  O   LIG    1        5.485   2.734  -2.342  0.00  0.00    -0.380 OA
ATOM     12  C   LIG    1        5.466   4.067  -1.826  0.00  0.00    +0.130 C 
ATOM     13  C   LIG    1        6.897   4.602  -1.739  0.00  0.00    +0.080 C 
ATOM     14  C   LIG    1        4.837   4.058  -0.428  0.00  0.00    +0.260 C 
ATOM     15  O   LIG    1        2.458   5.065   0.436  0.00  0.00    -0.530 OA
ENDBRANCH   3   7
BRANCH   1  17
ATOM     16  C   LIG    1       -2.351   5.110  -0.815  0.00  0.00    +0.240 C 
ATOM     17  O   LIG    1       -2.409   3.715  -0.510  0.00  0.00    -0.300 OA
ENDBRANCH   1  17
BRANCH   6  18
ATOM     18  O   LIG    1       -2.373   1.028   0.082  0.00  0.00    -0.290 OA
BRANCH  18  19
ATOM     19  C   LIG    1       -2.284  -0.362   0.402  0.00  0.00    +0.260 C 
BRANCH  19  20
ATOM     20  C   LIG    1       -3.660  -0.974   0.373  0.00  0.00    -0.090 A 
ATOM     21  C   LIG    1       -4.758  -0.192   0.067  0.00  0.00    +0.060 A 
ATOM     22  C   LIG    1       -6.021  -0.754   0.040  0.00  0.00    +0.020 A 
ATOM     23  C   LIG    1       -6.187  -2.097   0.320  0.00  0.00    +0.030 A 
ATOM     24  C   LIG    1       -5.090  -2.880   0.627  0.00  0.00    +0.030 A 
ATOM     25  C   LIG    1       -3.825  -2.320   0.647  0.00  0.00    -0.030 A 
ATOM     26 CL   LIG    1       -2.446  -3.305   1.024  0.00  0.00    -0.070 Cl
ENDBRANCH  19  20
ENDBRANCH  18  19
ENDBRANCH   6  18
TORSDOF 5
