REMARK  Name = ZINCb80000002HIh.0
REMARK                            x       y       z     vdW  Elec       q    Type
REMARK                         _______ _______ _______ _____ _____    ______ ____
ROOT
ATOM      1  O   LIG    1        1.128  -1.888  -0.019  0.00  0.00    -0.540 OA
ATOM      2  C   LIG    1        1.163  -0.673  -0.013  0.00  0.00    +0.720 A 
ATOM      3  N   LIG    1        2.360  -0.072  -0.021  0.00  0.00    -0.660 N 
ATOM      4  H   LIG    1        3.160  -0.621  -0.032  0.00  0.00    +0.440 HD
ATOM      5  C   LIG    1        2.490   1.267  -0.016  0.00  0.00    +0.590 A 
ATOM      6  C   LIG    1        1.267   2.104   0.001  0.00  0.00    -0.200 A 
ATOM      7  C   LIG    1        1.129   3.462   0.009  0.00  0.00    +0.030 A 
ATOM      8  S   LIG    1       -0.510   3.919   0.027  0.00  0.00    +0.290 S 
ATOM      9  C   LIG    1       -1.055   2.253   0.019  0.00  0.00    -0.110 A 
ATOM     10  C   LIG    1       -0.017   1.409   0.010  0.00  0.00    +0.150 A 
ATOM     11  O   LIG    1        3.591   1.782  -0.024  0.00  0.00    -0.490 OA
ATOM     12  N   LIG    1        0.002  -0.004   0.002  0.00  0.00    -0.640 N 
ATOM     13  H   LIG    1       -0.834  -0.495   0.008  0.00  0.00    +0.440 HD
ENDROOT
TORSDOF 0
