REMARK  Name = ZINCtV000002GNV6.0
REMARK                            x       y       z     vdW  Elec       q    Type
REMARK                         _______ _______ _______ _____ _____    ______ ____
ROOT
ATOM      1  N   LIG    1        1.029  -0.492   1.182  0.00  0.00    -0.490 N 
ATOM      2  C   LIG    1        0.098   0.002   0.157  0.00  0.00    +0.220 C 
ATOM      3  C   LIG    1        0.092   1.532   0.172  0.00  0.00    +0.210 C 
ATOM      4  N   LIG    1        1.453   2.027  -0.075  0.00  0.00    -0.490 N 
ATOM      5  C   LIG    1        2.384   1.534   0.950  0.00  0.00    +0.210 C 
ATOM      6  C   LIG    1        2.390   0.004   0.935  0.00  0.00    +0.220 C 
ENDROOT
BRANCH   1  11
ATOM      7  C   LIG    1       -3.627  -1.846   2.945  0.00  0.00    +0.110 C 
ATOM      8  C   LIG    1       -2.384  -2.584   2.520  0.00  0.00    -0.080 A 
ATOM      9  C   LIG    1       -1.298  -1.883   2.093  0.00  0.00    +0.060 A 
ATOM     10  C   LIG    1       -0.139  -2.569   1.702  0.00  0.00    -0.100 A 
ATOM     11  C   LIG    1        1.008  -1.876   1.246  0.00  0.00    +0.170 A 
ATOM     12  C   LIG    1        2.112  -2.626   0.872  0.00  0.00    -0.090 A 
ATOM     13  C   LIG    1        2.061  -4.011   0.948  0.00  0.00    +0.320 A 
ATOM     14  N   LIG    1        0.989  -4.643   1.368  0.00  0.00    -0.490 NA
ATOM     15  C   LIG    1       -0.113  -3.983   1.745  0.00  0.00    +0.150 A 
ATOM     16  C   LIG    1       -1.252  -4.674   2.191  0.00  0.00    +0.060 A 
ATOM     17  C   LIG    1       -2.361  -3.977   2.569  0.00  0.00    -0.010 A 
ATOM     18 CL   LIG    1       -3.764  -4.837   3.120  0.00  0.00    -0.060 Cl
ENDBRANCH   1  11
BRANCH   4  19
ATOM     19  C   LIG    1        1.474   3.423  -0.140  0.00  0.00    +0.150 A 
ATOM     20  C   LIG    1        2.130   4.156   0.840  0.00  0.00    -0.010 A 
ATOM     21  C   LIG    1        2.149   5.536   0.772  0.00  0.00    +0.110 A 
ATOM     22  C   LIG    1        1.516   6.188  -0.270  0.00  0.00    -0.190 A 
ATOM     23  C   LIG    1        0.862   5.462  -1.248  0.00  0.00    +0.110 A 
ATOM     24  C   LIG    1        0.844   4.081  -1.190  0.00  0.00    -0.050 A 
ATOM     25 CL   LIG    1        0.029   3.170  -2.423  0.00  0.00    -0.040 Cl
BRANCH  22  26
ATOM     26  C   LIG    1        1.539   7.693  -0.339  0.00  0.00    +0.510 C 
ATOM     27  F   LIG    1        1.603   8.219   0.956  0.00  0.00    -0.170 F 
ATOM     28  F   LIG    1        0.377   8.148  -0.971  0.00  0.00    -0.170 F 
ATOM     29  F   LIG    1        2.659   8.109  -1.068  0.00  0.00    -0.170 F 
ENDBRANCH  22  26
ENDBRANCH   4  19
TORSDOF 3
