REMARK  Name = ZINCrH000004ka5h.0
REMARK                            x       y       z     vdW  Elec       q    Type
REMARK                         _______ _______ _______ _____ _____    ______ ____
ROOT
ATOM      1  N   LIG    1        4.331   1.706  -0.344  0.00  0.00    -0.680 N 
ATOM      2  H   LIG    1        3.933   2.488   0.069  0.00  0.00    +0.410 HD
ATOM      3  C   LIG    1        3.543   0.740  -0.856  0.00  0.00    +0.720 C 
ATOM      4  N   LIG    1        2.206   0.809  -0.701  0.00  0.00    -0.630 N 
ATOM      5  C   LIG    1        1.478   1.876   0.001  0.00  0.00    +0.240 C 
ATOM      6  C   LIG    1       -0.023   1.520  -0.054  0.00  0.00    +0.050 C 
ATOM      7  C   LIG    1       -0.008  -0.013  -0.291  0.00  0.00    +0.000 C 
ATOM      8  C   LIG    1        1.230  -0.174  -1.208  0.00  0.00    +0.290 C 
ATOM      9  O   LIG    1        4.038  -0.193  -1.458  0.00  0.00    -0.560 OA
ENDROOT
BRANCH   1  17
ATOM     10  C   LIG    1        8.596  -1.434   1.075  0.00  0.00    +0.210 C 
ATOM     11  N   LIG    1        8.491  -0.953  -0.309  0.00  0.00    -0.500 N 
ATOM     12  C   LIG    1        9.824  -0.617  -0.856  0.00  0.00    +0.230 C 
ATOM     13  C   LIG    1        9.927   0.902  -0.584  0.00  0.00    +0.060 C 
ATOM     14  C   LIG    1        8.475   1.335  -0.536  0.00  0.00    -0.160 A 
ATOM     15  C   LIG    1        7.891   2.582  -0.619  0.00  0.00    +0.060 A 
ATOM     16  C   LIG    1        6.516   2.710  -0.555  0.00  0.00    -0.030 A 
ATOM     17  C   LIG    1        5.723   1.579  -0.407  0.00  0.00    +0.180 A 
ATOM     18  C   LIG    1        6.309   0.327  -0.315  0.00  0.00    +0.030 A 
ATOM     19  C   LIG    1        7.693   0.195  -0.383  0.00  0.00    +0.110 A 
ENDBRANCH   1  17
BRANCH   7  20
ATOM     20  C   LIG    1       -1.282  -0.470  -1.004  0.00  0.00    +0.190 C 
BRANCH  20  21
ATOM     21  O   LIG    1       -1.288  -1.896  -1.101  0.00  0.00    -0.380 OA
BRANCH  21  22
ATOM     22  C   LIG    1       -2.442  -2.429  -1.755  0.00  0.00    +0.220 C 
BRANCH  22  23
ATOM     23  C   LIG    1       -2.343  -3.932  -1.801  0.00  0.00    -0.090 A 
ATOM     24  C   LIG    1       -1.739  -4.552  -2.879  0.00  0.00    +0.020 A 
ATOM     25  C   LIG    1       -1.644  -5.930  -2.920  0.00  0.00    +0.000 A 
ATOM     26  C   LIG    1       -2.163  -6.689  -1.887  0.00  0.00    +0.010 A 
ATOM     27  C   LIG    1       -2.772  -6.070  -0.812  0.00  0.00    +0.000 A 
ATOM     28  C   LIG    1       -2.862  -4.691  -0.769  0.00  0.00    +0.020 A 
ENDBRANCH  22  23
ENDBRANCH  21  22
ENDBRANCH  20  21
ENDBRANCH   7  20
TORSDOF 5
