REMARK  Name = ZINCvU0000000JJb.0
REMARK                            x       y       z     vdW  Elec       q    Type
REMARK                         _______ _______ _______ _____ _____    ______ ____
ROOT
ATOM      1  C   LIG    1        6.380   2.224  -0.057  0.00  0.00    +0.160 A 
ATOM      2  N   LIG    1        6.194   3.505   0.178  0.00  0.00    -0.290 NA
ATOM      3  N   LIG    1        7.316   4.130   0.130  0.00  0.00    -0.250 NA
ATOM      4  C   LIG    1        8.286   3.288  -0.139  0.00  0.00    +0.220 A 
ATOM      5  N   LIG    1        7.717   2.041  -0.261  0.00  0.00    -0.450 N 
ENDROOT
BRANCH   4   6
ATOM      6  C   LIG    1        9.720   3.616  -0.278  0.00  0.00    +0.040 A 
ATOM      7  C   LIG    1       10.529   2.935  -1.196  0.00  0.00    -0.030 A 
ATOM      8  C   LIG    1       11.861   3.278  -1.295  0.00  0.00    +0.270 A 
ATOM      9  N   LIG    1       12.377   4.224  -0.534  0.00  0.00    -0.470 NA
ATOM     10  C   LIG    1       11.652   4.887   0.348  0.00  0.00    +0.280 A 
ATOM     11  C   LIG    1       10.310   4.613   0.510  0.00  0.00    +0.020 A 
ENDBRANCH   4   6
BRANCH   1  12
ATOM     12  S   LIG    1        5.137   0.976  -0.095  0.00  0.00    +0.060 S 
BRANCH  12  13
ATOM     13  C   LIG    1        3.674   1.979   0.266  0.00  0.00    +0.000 C 
ATOM     14  C   LIG    1        3.784   2.550   1.681  0.00  0.00    +0.100 C 
BRANCH  13  15
ATOM     15  C   LIG    1        2.439   1.122   0.165  0.00  0.00    +0.420 C 
ATOM     16  O   LIG    1        2.518  -0.077   0.330  0.00  0.00    -0.430 OA
BRANCH  15  22
ATOM     17  C   LIG    1       -0.263   5.156  -0.968  0.00  0.00    +0.090 C 
ATOM     18  C   LIG    1       -0.170   3.680  -0.681  0.00  0.00    -0.100 A 
ATOM     19  C   LIG    1       -1.314   2.900  -0.698  0.00  0.00    +0.050 A 
ATOM     20  C   LIG    1       -1.238   1.542  -0.441  0.00  0.00    +0.000 A 
ATOM     21  C   LIG    1       -0.023   0.958  -0.155  0.00  0.00    -0.020 A 
ATOM     22  C   LIG    1        1.137   1.739  -0.135  0.00  0.00    -0.170 A 
ATOM     23  C   LIG    1        0.056  -0.520   0.130  0.00  0.00    +0.110 C 
ATOM     24  C   LIG    1        1.054   3.109  -0.401  0.00  0.00    +0.060 A 
ENDBRANCH  15  22
ENDBRANCH  13  15
ENDBRANCH  12  13
ENDBRANCH   1  12
BRANCH   5  25
ATOM     25  C   LIG    1        8.403   0.780  -0.552  0.00  0.00    +0.360 C 
BRANCH  25  26
ATOM     26  C   LIG    1        8.970   0.210   0.723  0.00  0.00    -0.130 A 
ATOM     27  C   LIG    1       10.218   0.610   1.163  0.00  0.00    +0.020 A 
ATOM     28  C   LIG    1       10.736   0.091   2.336  0.00  0.00    +0.010 A 
ATOM     29  C   LIG    1       10.010  -0.835   3.061  0.00  0.00    +0.030 A 
ATOM     30  C   LIG    1        8.764  -1.238   2.618  0.00  0.00    +0.010 A 
ATOM     31  C   LIG    1        8.244  -0.716   1.448  0.00  0.00    +0.040 A 
ENDBRANCH  25  26
ENDBRANCH   5  25
TORSDOF 7
