REMARK  Name = ZINCpe00000MJLEZ.1
REMARK                            x       y       z     vdW  Elec       q    Type
REMARK                         _______ _______ _______ _____ _____    ______ ____
ROOT
ATOM      1  O   LIG    1       -2.654   4.353   0.050  0.00  0.00    -0.530 OA
ATOM      2  C   LIG    1       -1.440   4.426   0.038  0.00  0.00    +0.620 C 
ATOM      3  N   LIG    1       -0.838   5.631   0.038  0.00  0.00    -0.600 N 
ATOM      4  C   LIG    1        0.618   5.865   0.025  0.00  0.00    +0.290 C 
ATOM      5  C   LIG    1        0.799   7.274   0.641  0.00  0.00    +0.090 C 
ATOM      6  C   LIG    1       -0.434   8.024   0.072  0.00  0.00    +0.210 C 
ATOM      7  C   LIG    1       -1.524   6.932   0.045  0.00  0.00    +0.270 C 
ENDROOT
BRANCH   6   8
ATOM      8  C   LIG    1       -0.831   9.162   0.978  0.00  0.00    -0.050 A 
ATOM      9  C   LIG    1       -0.876  10.475   0.655  0.00  0.00    +0.180 A 
ATOM     10  N   LIG    1       -1.287  11.123   1.770  0.00  0.00    -0.390 N 
ATOM     11  H   LIG    1       -1.419  12.080   1.856  0.00  0.00    +0.450 HD
ATOM     12  N   LIG    1       -1.466  10.251   2.700  0.00  0.00    -0.070 NA
ATOM     13  N   LIG    1       -1.203   9.072   2.259  0.00  0.00    -0.250 NA
ENDBRANCH   6   8
BRANCH   2  14
ATOM     14  C   LIG    1       -0.626   3.194   0.024  0.00  0.00    +0.000 A 
ATOM     15  N   LIG    1        0.691   3.125   0.012  0.00  0.00    -0.260 NA
ATOM     16  N   LIG    1        1.069   1.897   0.002  0.00  0.00    -0.230 N 
ATOM     17  C   LIG    1       -0.013   1.076   0.008  0.00  0.00    +0.180 A 
ATOM     18  C   LIG    1       -1.112   1.865   0.017  0.00  0.00    +0.010 A 
BRANCH  16  19
ATOM     19  C   LIG    1        2.404   1.468  -0.013  0.00  0.00    +0.120 A 
ATOM     20  C   LIG    1        2.697   0.111  -0.017  0.00  0.00    +0.050 A 
ATOM     21  C   LIG    1        4.012  -0.309  -0.037  0.00  0.00    +0.020 A 
ATOM     22  C   LIG    1        5.038   0.621  -0.043  0.00  0.00    +0.100 A 
ATOM     23  C   LIG    1        4.747   1.975  -0.033  0.00  0.00    +0.020 A 
ATOM     24  F   LIG    1        6.324   0.208  -0.057  0.00  0.00    -0.130 F 
ATOM     25  C   LIG    1        3.433   2.400  -0.018  0.00  0.00    +0.070 A 
ENDBRANCH  16  19
ENDBRANCH   2  14
BRANCH   6  26
ATOM     26  O   LIG    1       -0.170   8.501  -1.249  0.00  0.00    -0.540 OA
ATOM     27  H   LIG    1       -0.910   8.977  -1.651  0.00  0.00    +0.380 HD
ENDBRANCH   6  26
TORSDOF 4
