REMARK  Name = ZINCpe00000MJLEZ.0
REMARK                            x       y       z     vdW  Elec       q    Type
REMARK                         _______ _______ _______ _____ _____    ______ ____
ROOT
ATOM      1  O   LIG    1        4.526   5.434  -2.702  0.00  0.00    -0.530 OA
ATOM      2  C   LIG    1        4.607   5.559  -1.496  0.00  0.00    +0.620 C 
ATOM      3  N   LIG    1        3.710   4.952  -0.693  0.00  0.00    -0.600 N 
ATOM      4  C   LIG    1        3.692   5.018   0.775  0.00  0.00    +0.270 C 
ATOM      5  C   LIG    1        2.476   4.198   1.256  0.00  0.00    +0.090 C 
ATOM      6  C   LIG    1        1.552   4.184   0.010  0.00  0.00    +0.210 C 
ATOM      7  C   LIG    1        2.584   4.113  -1.143  0.00  0.00    +0.270 C 
ENDROOT
BRANCH   6   8
ATOM      8  C   LIG    1        0.660   2.969   0.012  0.00  0.00    -0.020 A 
ATOM      9  N   LIG    1        1.037   1.711   0.001  0.00  0.00    -0.270 NA
ATOM     10  N   LIG    1       -0.011   0.966   0.007  0.00  0.00    -0.240 N 
ATOM     11  H   LIG    1        0.002  -0.004   0.002  0.00  0.00    +0.470 HD
ATOM     12  N   LIG    1       -1.079   1.682   0.016  0.00  0.00    -0.280 NA
ATOM     13  C   LIG    1       -0.736   2.950   0.025  0.00  0.00    +0.200 A 
ENDBRANCH   6   8
BRANCH   2  14
ATOM     14  C   LIG    1        5.690   6.374  -0.909  0.00  0.00    +0.000 A 
ATOM     15  N   LIG    1        5.894   6.598   0.374  0.00  0.00    -0.250 NA
ATOM     16  N   LIG    1        6.926   7.347   0.533  0.00  0.00    -0.230 N 
ATOM     17  C   LIG    1        7.460   7.668  -0.674  0.00  0.00    +0.180 A 
ATOM     18  C   LIG    1        6.700   7.066  -1.619  0.00  0.00    +0.010 A 
BRANCH  16  19
ATOM     19  C   LIG    1        7.424   7.777   1.771  0.00  0.00    +0.120 A 
ATOM     20  C   LIG    1        8.549   8.588   1.824  0.00  0.00    +0.050 A 
ATOM     21  C   LIG    1        9.035   9.014   3.044  0.00  0.00    +0.020 A 
ATOM     22  C   LIG    1        8.407   8.623   4.215  0.00  0.00    +0.100 A 
ATOM     23  C   LIG    1        7.288   7.810   4.165  0.00  0.00    +0.020 A 
ATOM     24  F   LIG    1        8.888   9.036   5.409  0.00  0.00    -0.130 F 
ATOM     25  C   LIG    1        6.796   7.386   2.946  0.00  0.00    +0.070 A 
ENDBRANCH  16  19
ENDBRANCH   2  14
BRANCH   6  26
ATOM     26  O   LIG    1        0.778   5.383  -0.067  0.00  0.00    -0.530 OA
ATOM     27  H   LIG    1        0.221   5.442  -0.856  0.00  0.00    +0.390 HD
ENDBRANCH   6  26
TORSDOF 4
