REMARK  Name = ZINCtV00000tRQOh.0
REMARK                            x       y       z     vdW  Elec       q    Type
REMARK                         _______ _______ _______ _____ _____    ______ ____
ROOT
ATOM      1  C   LIG    1       -1.569   3.532   1.958  0.00  0.00    +0.130 A 
ATOM      2  C   LIG    1       -1.331   4.679   1.196  0.00  0.00    -0.040 A 
ATOM      3  C   LIG    1       -0.088   4.923   0.648  0.00  0.00    +0.040 A 
ATOM      4  C   LIG    1        0.949   4.024   0.864  0.00  0.00    +0.100 A 
ATOM      5  C   LIG    1        0.716   2.882   1.668  0.00  0.00    -0.020 A 
ATOM      6  C   LIG    1        1.853   1.956   1.919  0.00  0.00    -0.090 A 
ATOM      7  C   LIG    1        3.136   2.382   1.578  0.00  0.00    -0.090 A 
ATOM      8  C   LIG    1        3.402   3.762   0.988  0.00  0.00    +0.250 C 
ATOM      9  C   LIG    1        3.750   4.742   2.110  0.00  0.00    +0.080 C 
ATOM     10  C   LIG    1        4.564   3.680  -0.004  0.00  0.00    +0.100 C 
ATOM     11  S   LIG    1        4.361   1.227   1.878  0.00  0.00    +0.130 S 
ATOM     12  S   LIG    1        3.148  -0.255   2.651  0.00  0.00    +0.070 S 
ATOM     13  C   LIG    1        1.637   0.636   2.498  0.00  0.00    +0.080 A 
ATOM     14  S   LIG    1        0.107   0.028   2.970  0.00  0.00    -0.300 S 
ATOM     15  N   LIG    1        2.194   4.220   0.292  0.00  0.00    -0.530 N 
ATOM     16  C   LIG    1        2.298   4.831  -0.904  0.00  0.00    +0.570 C 
ATOM     17  O   LIG    1        3.392   5.124  -1.345  0.00  0.00    -0.480 OA
ATOM     18  C   LIG    1       -0.550   2.631   2.198  0.00  0.00    +0.070 A 
ENDROOT
BRANCH  16  19
ATOM     19  C   LIG    1        1.080   5.144  -1.682  0.00  0.00    -0.100 A 
ATOM     20  C   LIG    1       -0.061   4.352  -1.546  0.00  0.00    +0.090 A 
ATOM     21  C   LIG    1       -1.196   4.652  -2.271  0.00  0.00    +0.090 A 
ATOM     22  C   LIG    1       -1.200   5.729  -3.139  0.00  0.00    +0.030 A 
ATOM     23  C   LIG    1       -0.071   6.515  -3.283  0.00  0.00    +0.110 A 
ATOM     24  C   LIG    1        1.069   6.229  -2.560  0.00  0.00    +0.100 A 
BRANCH  22  25
ATOM     25  N   LIG    1       -2.419   6.042  -3.919  0.00  0.00    -0.030 N 
ATOM     26  O   LIG    1       -3.496   5.296  -3.785  0.00  0.00    -0.160 OA
ATOM     27  O   LIG    1       -2.427   7.066  -4.747  0.00  0.00    -0.150 OA
ENDBRANCH  22  25
ENDBRANCH  16  19
BRANCH   1  29
ATOM     28  C   LIG    1       -3.816   4.276   2.185  0.00  0.00    +0.250 C 
ATOM     29  O   LIG    1       -2.807   3.305   2.471  0.00  0.00    -0.300 OA
ENDBRANCH   1  29
TORSDOF 3
