REMARK  Name = ZINCpk00000y6uHp.0
REMARK                            x       y       z     vdW  Elec       q    Type
REMARK                         _______ _______ _______ _____ _____    ______ ____
ROOT
ATOM      1  C   LIG    1       -1.710   7.572   0.413  0.00  0.00    +0.150 C 
ATOM      2  C   LIG    1       -2.355   6.409   1.213  0.00  0.00    +0.060 C 
ATOM      3  C   LIG    1       -1.271   5.311   1.162  0.00  0.00    +0.230 C 
ATOM      4  N   LIG    1        0.013   5.978   0.897  0.00  0.00    -0.620 N 
ATOM      5  C   LIG    1        1.203   5.362   0.760  0.00  0.00    +0.530 C 
ATOM      6  O   LIG    1        1.264   4.150   0.765  0.00  0.00    -0.520 OA
ATOM      7  C   LIG    1       -0.219   7.431   0.808  0.00  0.00    +0.240 C 
ENDROOT
BRANCH   1   9
ATOM      8  C   LIG    1       -2.256   9.824  -0.199  0.00  0.00    +0.200 C 
ATOM      9  O   LIG    1       -2.234   8.834   0.831  0.00  0.00    -0.370 OA
ENDBRANCH   1   9
BRANCH   5  10
ATOM     10  C   LIG    1        2.460   6.178   0.601  0.00  0.00    +0.050 C 
BRANCH  10  11
ATOM     11  C   LIG    1        3.663   5.242   0.466  0.00  0.00    +0.050 C 
BRANCH  11  12
ATOM     12  C   LIG    1        4.939   6.071   0.304  0.00  0.00    +0.090 C 
BRANCH  12  13
ATOM     13  C   LIG    1        6.123   5.149   0.171  0.00  0.00    +0.130 A 
ATOM     14  C   LIG    1        6.960   5.266  -0.922  0.00  0.00    -0.040 A 
ATOM     15  C   LIG    1        8.047   4.413  -1.035  0.00  0.00    +0.060 A 
ATOM     16  C   LIG    1        8.252   3.470  -0.040  0.00  0.00    -0.050 A 
ATOM     17  C   LIG    1        7.372   3.411   1.024  0.00  0.00    +0.260 A 
ATOM     18  N   LIG    1        6.352   4.243   1.101  0.00  0.00    -0.480 NA
ENDBRANCH  12  13
ENDBRANCH  11  12
ENDBRANCH  10  11
ENDBRANCH   5  10
BRANCH   3  19
ATOM     19  C   LIG    1       -1.585   4.322   0.038  0.00  0.00    +0.320 C 
BRANCH  19  20
ATOM     20  N   LIG    1       -2.833   3.617   0.343  0.00  0.00    -0.370 N 
ATOM     21  C   LIG    1       -3.918   3.544  -0.457  0.00  0.00    +0.250 A 
ATOM     22  C   LIG    1       -4.856   2.810   0.183  0.00  0.00    -0.170 A 
ATOM     23  C   LIG    1       -4.321   2.410   1.418  0.00  0.00    +0.340 A 
ATOM     24  N   LIG    1       -3.106   2.896   1.512  0.00  0.00    -0.350 NA
BRANCH  23  25
ATOM     25  N   LIG    1       -4.971   1.629   2.382  0.00  0.00    -0.850 N 
ATOM     26  H   LIG    1       -4.518   1.403   3.209  0.00  0.00    +0.400 HD
ATOM     27  H   LIG    1       -5.875   1.314   2.222  0.00  0.00    +0.410 HD
ENDBRANCH  23  25
ENDBRANCH  19  20
ENDBRANCH   3  19
TORSDOF 8
