REMARK  Name = ZINCvU0000000DGf.0
REMARK                            x       y       z     vdW  Elec       q    Type
REMARK                         _______ _______ _______ _____ _____    ______ ____
ROOT
ATOM      1  C   LIG    1        2.464   5.708   0.227  0.00  0.00    +0.270 C 
ATOM      2  C   LIG    1        3.987   5.934   0.296  0.00  0.00    +0.090 C 
ATOM      3  C   LIG    1        4.567   4.541   0.203  0.00  0.00    +0.150 C 
ATOM      4  N   LIG    1        3.611   3.683   0.107  0.00  0.00    -0.240 NA
ATOM      5  N   LIG    1        2.337   4.247   0.104  0.00  0.00    -0.460 N 
ATOM      6  C   LIG    1        1.178   3.566   0.009  0.00  0.00    +0.600 C 
ATOM      7  O   LIG    1        0.125   4.167  -0.079  0.00  0.00    -0.490 OA
ENDROOT
BRANCH   3   8
ATOM      8  C   LIG    1        6.005   4.215   0.225  0.00  0.00    -0.050 A 
ATOM      9  C   LIG    1        6.954   5.234   0.334  0.00  0.00    +0.050 A 
ATOM     10  C   LIG    1        8.297   4.920   0.360  0.00  0.00    +0.010 A 
ATOM     11  C   LIG    1        8.705   3.602   0.266  0.00  0.00    -0.060 A 
ATOM     12  C   LIG    1        7.771   2.587   0.153  0.00  0.00    +0.010 A 
ATOM     13  C   LIG    1       10.175   3.268   0.288  0.00  0.00    +0.100 C 
ATOM     14  C   LIG    1        6.424   2.885   0.132  0.00  0.00    +0.060 A 
ENDBRANCH   3   8
BRANCH   6  15
ATOM     15  C   LIG    1        1.187   2.090   0.013  0.00  0.00    -0.180 A 
ATOM     16  C   LIG    1        2.375   1.396   0.252  0.00  0.00    +0.120 A 
ATOM     17  C   LIG    1        2.377   0.017   0.254  0.00  0.00    -0.010 A 
ATOM     18  C   LIG    1        1.205  -0.682   0.020  0.00  0.00    +0.080 A 
ATOM     19  C   LIG    1        0.023  -0.004  -0.217  0.00  0.00    -0.030 A 
ATOM     20  C   LIG    1        0.005   1.379  -0.222  0.00  0.00    +0.160 A 
ATOM     21  F   LIG    1       -1.148   2.041  -0.459  0.00  0.00    -0.120 F 
ENDBRANCH   6  15
BRANCH   1  26
ATOM     22  C   LIG    1        1.003   8.367  -2.038  0.00  0.00    +0.110 A 
ATOM     23  C   LIG    1        0.807   7.650  -3.207  0.00  0.00    -0.050 A 
ATOM     24  C   LIG    1        1.147   6.311  -3.261  0.00  0.00    +0.050 A 
ATOM     25  C   LIG    1        1.682   5.685  -2.152  0.00  0.00    +0.000 A 
ATOM     26  C   LIG    1        1.880   6.394  -0.982  0.00  0.00    -0.070 A 
ATOM     27  C   LIG    1        1.537   7.735  -0.918  0.00  0.00    +0.080 A 
BRANCH  22  29
ATOM     28  C   LIG    1        0.120  10.265  -3.167  0.00  0.00    +0.240 C 
ATOM     29  O   LIG    1        0.669   9.684  -1.982  0.00  0.00    -0.310 OA
ENDBRANCH  22  29
BRANCH  27  30
ATOM     30  O   LIG    1        1.726   8.433   0.233  0.00  0.00    -0.320 OA
ATOM     31  C   LIG    1        2.988   9.085   0.397  0.00  0.00    +0.220 C 
ENDBRANCH  27  30
ENDBRANCH   1  26
TORSDOF 5
