REMARK  Name = ZINCkj000005lDQv.0
REMARK                            x       y       z     vdW  Elec       q    Type
REMARK                         _______ _______ _______ _____ _____    ______ ____
ROOT
ATOM      1  O   LIG    1        3.402  -0.056  -2.037  0.00  0.00    -0.490 OA
ATOM      2  C   LIG    1        4.274  -0.174  -1.202  0.00  0.00    +0.520 C 
ATOM      3  N   LIG    1        5.529  -0.489  -1.579  0.00  0.00    -0.640 N 
ATOM      4  C   LIG    1        6.604  -0.630  -0.584  0.00  0.00    +0.320 C 
ATOM      5  C   LIG    1        7.315  -1.970  -0.832  0.00  0.00    +0.240 C 
ATOM      6  N   LIG    1        7.770  -2.028  -2.227  0.00  0.00    -0.370 N 
ATOM      7  C   LIG    1        6.612  -2.025  -3.131  0.00  0.00    +0.260 C 
ATOM      8  H   LIG    1        8.351  -1.227  -2.423  0.00  0.00    +0.430 HD
ATOM      9  C   LIG    1        5.865  -0.694  -2.996  0.00  0.00    +0.310 C 
ENDROOT
BRANCH   6  10
ATOM     10  C   LIG    1        8.548  -3.257  -2.435  0.00  0.00    +0.170 C 
ATOM     11  C   LIG    1        9.701  -3.332  -1.414  0.00  0.00    +0.050 C 
ATOM     12  C   LIG    1       10.874  -3.955  -2.211  0.00  0.00    +0.060 C 
ATOM     13  C   LIG    1       10.721  -3.305  -3.608  0.00  0.00    +0.020 C 
ATOM     14  C   LIG    1        9.196  -3.240  -3.830  0.00  0.00    +0.190 C 
BRANCH  14  15
ATOM     15  O   LIG    1        8.851  -2.035  -4.516  0.00  0.00    -0.580 OA
ATOM     16  H   LIG    1        9.230  -1.964  -5.403  0.00  0.00    +0.410 HD
ENDBRANCH  14  15
ENDBRANCH   6  10
BRANCH   2  17
ATOM     17  C   LIG    1        3.953   0.032   0.256  0.00  0.00    +0.160 C 
BRANCH  17  18
ATOM     18  C   LIG    1        2.493   0.371   0.406  0.00  0.00    -0.190 A 
ATOM     19  C   LIG    1        1.511  -0.515   0.580  0.00  0.00    +0.030 A 
ATOM     20  C   LIG    1        0.245   0.032   0.695  0.00  0.00    +0.000 A 
ATOM     21  C   LIG    1        0.198   1.363   0.614  0.00  0.00    -0.030 A 
ATOM     22  S   LIG    1        1.822   1.997   0.380  0.00  0.00    +0.120 S 
ENDBRANCH  17  18
ENDBRANCH   2  17
TORSDOF 4
