REMARK  Name = ZINCtV00000qWhOe.0
REMARK                            x       y       z     vdW  Elec       q    Type
REMARK                         _______ _______ _______ _____ _____    ______ ____
ROOT
ATOM      1  C   LIG    1        5.784   2.583  -0.040  0.00  0.00    +0.300 A 
ATOM      2  N   LIG    1        4.886   1.633  -0.036  0.00  0.00    -0.520 NA
ATOM      3  C   LIG    1        3.659   2.170  -0.021  0.00  0.00    +0.280 A 
ATOM      4  N   LIG    1        3.772   3.480  -0.020  0.00  0.00    -0.300 NA
ATOM      5  N   LIG    1        5.146   3.767  -0.028  0.00  0.00    -0.390 N 
ENDROOT
BRANCH   3   6
ATOM      6  C   LIG    1        2.384   1.412  -0.013  0.00  0.00    -0.050 A 
ATOM      7  C   LIG    1        1.167   2.092   0.002  0.00  0.00    +0.080 A 
ATOM      8  C   LIG    1       -0.017   1.386   0.010  0.00  0.00    -0.020 A 
ATOM      9  C   LIG    1        0.002  -0.004   0.002  0.00  0.00    +0.130 A 
ATOM     10  C   LIG    1        1.214  -0.685  -0.013  0.00  0.00    -0.050 A 
ATOM     11  C   LIG    1        2.400   0.018  -0.020  0.00  0.00    +0.100 A 
BRANCH   9  12
ATOM     12  N   LIG    1       -1.198  -0.717   0.010  0.00  0.00    -0.490 N 
ATOM     13  C   LIG    1       -2.032  -0.330   1.154  0.00  0.00    +0.190 C 
ATOM     14  C   LIG    1       -3.394  -1.021   1.051  0.00  0.00    +0.020 C 
ATOM     15  C   LIG    1       -3.191  -2.538   1.035  0.00  0.00    +0.010 C 
ATOM     16  C   LIG    1       -2.279  -2.910  -0.138  0.00  0.00    +0.020 C 
ATOM     17  C   LIG    1       -0.949  -2.165  -0.000  0.00  0.00    +0.180 C 
ENDBRANCH   9  12
ENDBRANCH   3   6
BRANCH   5  18
ATOM     18  C   LIG    1        5.764   5.096  -0.026  0.00  0.00    +0.270 C 
ATOM     19  C   LIG    1        5.337   5.856   1.231  0.00  0.00    +0.100 C 
BRANCH  18  20
ATOM     20  C   LIG    1        5.314   5.869  -1.267  0.00  0.00    +0.450 C 
ATOM     21  F   LIG    1        5.704   5.174  -2.417  0.00  0.00    -0.180 F 
ATOM     22  F   LIG    1        5.904   7.138  -1.266  0.00  0.00    -0.170 F 
ATOM     23  F   LIG    1        3.921   6.003  -1.253  0.00  0.00    -0.160 F 
ENDBRANCH  18  20
ENDBRANCH   5  18
BRANCH   1  24
ATOM     24  C   LIG    1        7.278   2.386  -0.057  0.00  0.00    +0.150 C 
BRANCH  24  25
ATOM     25  C   LIG    1        7.768   2.326  -1.505  0.00  0.00    -0.020 C 
ATOM     26  C   LIG    1        7.188   1.087  -2.189  0.00  0.00    +0.030 C 
BRANCH  25  27
ATOM     27  C   LIG    1        9.296   2.251  -1.523  0.00  0.00    +0.020 C 
BRANCH  27  29
ATOM     28  C   LIG    1       11.321   2.242  -2.987  0.00  0.00    +0.000 C 
ATOM     29  C   LIG    1        9.793   2.317  -2.969  0.00  0.00    +0.000 C 
ENDBRANCH  27  29
ENDBRANCH  25  27
ENDBRANCH  24  25
ENDBRANCH   1  24
TORSDOF 8
