REMARK  Name = ZINCtV00000L6jCh.0
REMARK                            x       y       z     vdW  Elec       q    Type
REMARK                         _______ _______ _______ _____ _____    ______ ____
ROOT
ATOM      1  C   LIG    1       -0.013   1.086   0.008  0.00  0.00    +0.060 C 
ENDROOT
BRANCH   1   2
ATOM      2  C   LIG    1       -0.753   1.593  -1.232  0.00  0.00    +0.200 C 
BRANCH   2   3
ATOM      3  O   LIG    1       -0.084   1.132  -2.407  0.00  0.00    -0.300 OA
BRANCH   3   9
ATOM      4  C   LIG    1       -0.014   1.081  -4.795  0.00  0.00    -0.080 A 
ATOM      5  C   LIG    1       -0.568   1.460  -6.015  0.00  0.00    +0.060 A 
ATOM      6  C   LIG    1       -1.705   2.241  -6.043  0.00  0.00    -0.020 A 
ATOM      7  C   LIG    1       -2.298   2.651  -4.862  0.00  0.00    +0.050 A 
ATOM      8  C   LIG    1       -1.761   2.276  -3.645  0.00  0.00    -0.080 A 
ATOM      9  C   LIG    1       -0.616   1.496  -3.603  0.00  0.00    +0.140 A 
BRANCH   4  13
ATOM     10  C   LIG    1        3.489  -1.326  -4.694  0.00  0.00    +0.000 A 
ATOM     11  C   LIG    1        2.415  -1.704  -5.480  0.00  0.00    +0.000 A 
ATOM     12  C   LIG    1        1.276  -0.927  -5.516  0.00  0.00    +0.010 A 
ATOM     13  C   LIG    1        1.208   0.241  -4.759  0.00  0.00    -0.040 A 
ATOM     14  C   LIG    1        2.294   0.620  -3.973  0.00  0.00    +0.030 A 
ATOM     15  C   LIG    1        3.427  -0.168  -3.941  0.00  0.00    +0.000 A 
ENDBRANCH   4  13
ENDBRANCH   3   9
ENDBRANCH   2   3
ENDBRANCH   1   2
BRANCH   1  16
ATOM     16  C   LIG    1       -0.729   1.579   1.267  0.00  0.00    +0.200 C 
BRANCH  16  17
ATOM     17  O   LIG    1       -0.038   1.106   2.425  0.00  0.00    -0.300 OA
BRANCH  17  18
ATOM     18  C   LIG    1       -0.547   1.457   3.634  0.00  0.00    +0.140 A 
ATOM     19  C   LIG    1       -1.684   2.245   3.706  0.00  0.00    -0.080 A 
ATOM     20  C   LIG    1       -2.205   2.597   4.937  0.00  0.00    +0.050 A 
ATOM     21  C   LIG    1       -1.589   2.176   6.102  0.00  0.00    -0.020 A 
ATOM     22  C   LIG    1       -0.453   1.395   6.045  0.00  0.00    +0.060 A 
ATOM     23  C   LIG    1        0.077   1.030   4.809  0.00  0.00    -0.080 A 
BRANCH  23  24
ATOM     24  C   LIG    1        1.299   0.191   4.742  0.00  0.00    -0.040 A 
ATOM     25  C   LIG    1        1.321  -0.949   3.941  0.00  0.00    +0.030 A 
ATOM     26  C   LIG    1        2.462  -1.723   3.878  0.00  0.00    +0.000 A 
ATOM     27  C   LIG    1        3.579  -1.375   4.616  0.00  0.00    +0.000 A 
ATOM     28  C   LIG    1        3.561  -0.247   5.416  0.00  0.00    +0.000 A 
ATOM     29  C   LIG    1        2.427   0.537   5.483  0.00  0.00    +0.010 A 
ENDBRANCH  23  24
ENDBRANCH  17  18
ENDBRANCH  16  17
ENDBRANCH   1  16
TORSDOF 8
