REMARK  Name = ZINCrH000004rsRQ.0
REMARK                            x       y       z     vdW  Elec       q    Type
REMARK                         _______ _______ _______ _____ _____    ______ ____
ROOT
ATOM      1  N   LIG    1        4.222   0.223  -1.458  0.00  0.00    -0.620 N 
ATOM      2  C   LIG    1        4.099  -1.109  -1.296  0.00  0.00    +0.600 C 
ATOM      3  O   LIG    1        3.567  -1.554  -0.297  0.00  0.00    -0.520 OA
ATOM      4  C   LIG    1        4.750   0.763  -2.713  0.00  0.00    +0.270 C 
ENDROOT
BRANCH   2   5
ATOM      5  C   LIG    1        4.609  -2.027  -2.331  0.00  0.00    -0.290 A 
ATOM      6  C   LIG    1        4.438  -3.397  -2.368  0.00  0.00    +0.170 A 
ATOM      7  N   LIG    1        5.054  -3.849  -3.474  0.00  0.00    -0.320 N 
ATOM      8  N   LIG    1        5.629  -2.760  -4.138  0.00  0.00    -0.280 NA
ATOM      9  C   LIG    1        3.693  -4.231  -1.357  0.00  0.00    +0.170 C 
ATOM     10  C   LIG    1        5.370  -1.671  -3.467  0.00  0.00    +0.280 A 
BRANCH   7  11
ATOM     11  C   LIG    1        5.115  -5.187  -3.890  0.00  0.00    +0.100 A 
ATOM     12  C   LIG    1        3.963  -5.960  -3.916  0.00  0.00    +0.050 A 
ATOM     13  C   LIG    1        4.025  -7.277  -4.330  0.00  0.00    +0.030 A 
ATOM     14  C   LIG    1        5.235  -7.829  -4.709  0.00  0.00    +0.060 A 
ATOM     15  C   LIG    1        6.387  -7.064  -4.679  0.00  0.00    +0.010 A 
ATOM     16  C   LIG    1        6.331  -5.744  -4.271  0.00  0.00    +0.120 A 
ATOM     17  F   LIG    1        7.456  -4.997  -4.241  0.00  0.00    -0.120 F 
ENDBRANCH   7  11
ENDBRANCH   2   5
BRANCH   1  18
ATOM     18  C   LIG    1        3.829   1.131  -0.378  0.00  0.00    +0.320 C 
BRANCH  18  19
ATOM     19  C   LIG    1        2.354   1.506  -0.539  0.00  0.00    +0.170 C 
BRANCH  19  20
ATOM     20  O   LIG    1        1.545   0.341  -0.366  0.00  0.00    -0.290 OA
BRANCH  20  25
ATOM     21  C   LIG    1       -4.029   1.006  -0.835  0.00  0.00    +0.080 C 
ATOM     22  C   LIG    1       -2.537   0.828  -0.709  0.00  0.00    -0.130 A 
ATOM     23  C   LIG    1       -2.011  -0.423  -0.444  0.00  0.00    +0.050 A 
ATOM     24  C   LIG    1       -0.645  -0.587  -0.324  0.00  0.00    -0.020 A 
ATOM     25  C   LIG    1        0.200   0.502  -0.479  0.00  0.00    +0.130 A 
ATOM     26  C   LIG    1       -0.330   1.755  -0.750  0.00  0.00    -0.090 A 
ATOM     27  C   LIG    1       -1.697   1.915  -0.864  0.00  0.00    +0.040 A 
ENDBRANCH  20  25
ENDBRANCH  19  20
ENDBRANCH  18  19
ENDBRANCH   1  18
TORSDOF 6
