REMARK  Name = ZINCrH00000tj19b.0
REMARK                            x       y       z     vdW  Elec       q    Type
REMARK                         _______ _______ _______ _____ _____    ______ ____
ROOT
ATOM      1  S   LIG    1       -1.607   6.388  -0.067  0.00  0.00    +0.070 S 
ENDROOT
BRANCH   1   2
ATOM      2  C   LIG    1       -0.060   5.587  -0.334  0.00  0.00    +0.360 A 
ATOM      3  N   LIG    1       -0.031   4.281  -0.502  0.00  0.00    -0.540 NA
ATOM      4  C   LIG    1        1.124   3.633  -0.702  0.00  0.00    +0.240 A 
ATOM      5  C   LIG    1        2.314   4.345  -0.745  0.00  0.00    -0.130 A 
ATOM      6  C   LIG    1        2.273   5.737  -0.570  0.00  0.00    +0.530 A 
ATOM      7  O   LIG    1        3.299   6.396  -0.602  0.00  0.00    -0.530 OA
ATOM      8  N   LIG    1        1.079   6.332  -0.367  0.00  0.00    -0.620 N 
ATOM      9  H   LIG    1        1.033   7.293  -0.244  0.00  0.00    +0.420 HD
BRANCH   4  10
ATOM     10  C   LIG    1        1.130   2.162  -0.882  0.00  0.00    -0.060 A 
ATOM     11  C   LIG    1       -0.066   1.447  -0.839  0.00  0.00    +0.060 A 
ATOM     12  C   LIG    1       -0.054   0.077  -1.008  0.00  0.00    +0.000 A 
ATOM     13  C   LIG    1        1.142  -0.586  -1.220  0.00  0.00    +0.030 A 
ATOM     14  C   LIG    1        2.331   0.119  -1.264  0.00  0.00    +0.010 A 
ATOM     15  C   LIG    1        2.332   1.488  -1.096  0.00  0.00    +0.040 A 
ENDBRANCH   4  10
ENDBRANCH   1   2
BRANCH   1  16
ATOM     16  C   LIG    1       -2.715   4.958  -0.121  0.00  0.00    +0.110 C 
BRANCH  16  17
ATOM     17  C   LIG    1       -4.135   5.415   0.090  0.00  0.00    +0.420 C 
ATOM     18  O   LIG    1       -4.375   6.591   0.260  0.00  0.00    -0.440 OA
BRANCH  17  22
ATOM     19  C   LIG    1       -7.291   2.589   0.089  0.00  0.00    +0.190 A 
ATOM     20  C   LIG    1       -7.569   3.939   0.285  0.00  0.00    +0.000 A 
ATOM     21  C   LIG    1       -6.550   4.857   0.286  0.00  0.00    +0.110 A 
ATOM     22  C   LIG    1       -5.229   4.435   0.090  0.00  0.00    -0.190 A 
ATOM     23  C   LIG    1       -4.956   3.076  -0.112  0.00  0.00    +0.090 A 
ATOM     24  C   LIG    1       -5.979   2.165  -0.107  0.00  0.00    -0.020 A 
BRANCH  19  27
ATOM     25  C   LIG    1      -10.694   1.040  -0.285  0.00  0.00    +0.110 C 
ATOM     26  C   LIG    1       -9.540   2.003  -0.392  0.00  0.00    +0.510 C 
ATOM     27  N   LIG    1       -8.329   1.660   0.088  0.00  0.00    -0.680 N 
ATOM     28  H   LIG    1       -8.180   0.766   0.433  0.00  0.00    +0.420 HD
ATOM     29  O   LIG    1       -9.702   3.087  -0.911  0.00  0.00    -0.520 OA
ENDBRANCH  19  27
ENDBRANCH  17  22
ENDBRANCH  16  17
ENDBRANCH   1  16
TORSDOF 6
