REMARK  Name = ZINCkj000005g1Ac.1
REMARK                            x       y       z     vdW  Elec       q    Type
REMARK                         _______ _______ _______ _____ _____    ______ ____
ROOT
ATOM      1  N   LIG    1       -0.561  -2.461   5.708  0.00  0.00    -0.390 N 
ATOM      2  C   LIG    1       -0.725  -3.799   5.125  0.00  0.00    +0.260 C 
ATOM      3  C   LIG    1        0.306  -3.999   4.009  0.00  0.00    +0.330 C 
ATOM      4  N   LIG    1        0.171  -2.896   3.046  0.00  0.00    -0.630 N 
ATOM      5  C   LIG    1        0.166  -1.519   3.564  0.00  0.00    +0.330 C 
ATOM      6  C   LIG    1        0.060  -3.139   1.725  0.00  0.00    +0.620 C 
ATOM      7  O   LIG    1       -0.050  -4.282   1.324  0.00  0.00    -0.500 OA
ATOM      8  C   LIG    1       -0.865  -1.436   4.701  0.00  0.00    +0.250 C 
ATOM      9  H   LIG    1        0.390  -2.348   6.025  0.00  0.00    +0.420 HD
ENDROOT
BRANCH   6  10
ATOM     10  C   LIG    1        0.071  -2.020   0.765  0.00  0.00    -0.020 A 
ATOM     11  N   LIG    1        0.296  -0.752   1.036  0.00  0.00    -0.220 NA
ATOM     12  N   LIG    1        0.238  -0.019  -0.017  0.00  0.00    -0.310 N 
ATOM     13  C   LIG    1       -0.048  -0.767  -1.128  0.00  0.00    +0.070 A 
ATOM     14  C   LIG    1       -0.212  -0.487  -2.481  0.00  0.00    +0.010 A 
ATOM     15  C   LIG    1       -0.497  -1.509  -3.359  0.00  0.00    +0.070 A 
ATOM     16  C   LIG    1       -0.616  -2.818  -2.911  0.00  0.00    +0.010 A 
ATOM     17  C   LIG    1       -0.453  -3.116  -1.587  0.00  0.00    +0.090 A 
ATOM     18  C   LIG    1        0.445   1.431  -0.027  0.00  0.00    +0.380 C 
ATOM     19  C   LIG    1       -0.165  -2.099  -0.682  0.00  0.00    -0.110 A 
ENDBRANCH   6  10
BRANCH   1  21
ATOM     20  C   LIG    1       -1.397  -0.878   7.379  0.00  0.00    +0.080 C 
ATOM     21  C   LIG    1       -1.475  -2.311   6.848  0.00  0.00    +0.250 C 
ENDBRANCH   1  21
TORSDOF 2
