REMARK  Name = ZINCrD00000F5LAv.0
REMARK                            x       y       z     vdW  Elec       q    Type
REMARK                         _______ _______ _______ _____ _____    ______ ____
ROOT
ATOM      1  C   LIG    1       -1.227  -2.061   0.509  0.00  0.00    +0.520 C 
ATOM      2  O   LIG    1       -0.116  -2.552   0.487  0.00  0.00    -0.500 OA
ENDROOT
BRANCH   1   4
ATOM      3  C   LIG    1       -0.313   0.167   0.026  0.00  0.00    +0.180 C 
ATOM      4  C   LIG    1       -1.400  -0.619   0.271  0.00  0.00    -0.100 C 
BRANCH   3  10
ATOM      5  C   LIG    1        1.153   4.928   0.173  0.00  0.00    +0.090 C 
ATOM      6  C   LIG    1        0.207   3.862  -0.318  0.00  0.00    -0.090 A 
ATOM      7  C   LIG    1       -0.837   4.202  -1.160  0.00  0.00    +0.020 A 
ATOM      8  C   LIG    1       -1.711   3.231  -1.618  0.00  0.00    +0.010 A 
ATOM      9  C   LIG    1       -1.546   1.916  -1.240  0.00  0.00    +0.040 A 
ATOM     10  C   LIG    1       -0.495   1.564  -0.384  0.00  0.00    -0.090 A 
ATOM     11  C   LIG    1        0.385   2.553   0.073  0.00  0.00    +0.040 A 
ENDBRANCH   3  10
BRANCH   4  12
ATOM     12  C   LIG    1       -2.749  -0.024   0.297  0.00  0.00    -0.140 A 
ATOM     13  C   LIG    1       -3.725  -0.265  -0.605  0.00  0.00    +0.030 A 
ATOM     14  C   LIG    1       -4.905   0.410  -0.370  0.00  0.00    +0.010 A 
ATOM     15  C   LIG    1       -4.902   1.197   0.711  0.00  0.00    -0.050 A 
ATOM     16  S   LIG    1       -3.338   1.105   1.510  0.00  0.00    +0.130 S 
ENDBRANCH   4  12
ENDBRANCH   1   4
BRANCH   1  17
ATOM     17  O   LIG    1       -2.302  -2.838   0.750  0.00  0.00    -0.310 OA
BRANCH  17  18
ATOM     18  C   LIG    1       -2.057  -4.251   0.976  0.00  0.00    +0.200 C 
BRANCH  18  19
ATOM     19  C   LIG    1       -3.112  -4.803   1.900  0.00  0.00    +0.520 C 
ATOM     20  N   LIG    1       -3.013  -6.067   2.357  0.00  0.00    -0.690 N 
ATOM     21  H   LIG    1       -2.228  -6.597   2.151  0.00  0.00    +0.410 HD
ATOM     22  C   LIG    1       -4.006  -6.594   3.101  0.00  0.00    +0.700 C 
ATOM     23  O   LIG    1       -4.990  -5.929   3.360  0.00  0.00    -0.530 OA
ATOM     24  N   LIG    1       -3.907  -7.858   3.558  0.00  0.00    -0.860 N 
ATOM     25  H   LIG    1       -4.622  -8.237   4.093  0.00  0.00    +0.420 HD
ATOM     26  H   LIG    1       -3.122  -8.388   3.352  0.00  0.00    +0.400 HD
ATOM     27  O   LIG    1       -4.049  -4.109   2.233  0.00  0.00    -0.430 OA
ENDBRANCH  18  19
BRANCH  18  28
ATOM     28  C   LIG    1       -2.108  -4.997  -0.359  0.00  0.00    -0.020 C 
ATOM     29  C   LIG    1       -0.989  -4.489  -1.270  0.00  0.00    +0.030 C 
ATOM     30  C   LIG    1       -3.462  -4.753  -1.028  0.00  0.00    +0.040 C 
ENDBRANCH  18  28
ENDBRANCH  17  18
ENDBRANCH   1  17
TORSDOF 7
