REMARK  Name = ZINCpe000000UtYR.0
REMARK                            x       y       z     vdW  Elec       q    Type
REMARK                         _______ _______ _______ _____ _____    ______ ____
ROOT
ATOM      1  C   LIG    1        0.533   0.632  -0.026  0.00  0.00    +0.490 C 
ATOM      2  N   LIG    1        0.985  -0.565  -0.451  0.00  0.00    -0.520 N 
ATOM      3  O   LIG    1        0.219   0.784   1.136  0.00  0.00    -0.490 OA
ENDROOT
BRANCH   2   4
ATOM      4  C   LIG    1        1.444  -0.714  -1.774  0.00  0.00    +0.000 A 
ATOM      5  C   LIG    1        1.525   0.267  -2.708  0.00  0.00    +0.190 A 
ATOM      6  N   LIG    1        2.015  -0.289  -3.845  0.00  0.00    -0.460 N 
ATOM      7  H   LIG    1        2.181   0.173  -4.682  0.00  0.00    +0.450 HD
ATOM      8  N   LIG    1        2.238  -1.650  -3.598  0.00  0.00    -0.260 NA
ATOM      9  C   LIG    1        1.903  -1.903  -2.359  0.00  0.00    +0.230 A 
ENDBRANCH   2   4
BRANCH   1  10
ATOM     10  C   LIG    1        0.419   1.781  -0.994  0.00  0.00    +0.330 C 
BRANCH  10  11
ATOM     11  N   LIG    1       -0.262   2.903  -0.342  0.00  0.00    -0.990 NA
ATOM     12  C   LIG    1        0.405   3.640   0.734  0.00  0.00    +0.310 C 
BRANCH  11  13
ATOM     13  S   LIG    1       -1.787   3.337  -0.822  0.00  0.00    +2.780 S 
ATOM     14  O   LIG    1       -1.978   2.771  -2.111  0.00  0.00    -0.970 OA
ATOM     15  O   LIG    1       -1.909   4.728  -0.557  0.00  0.00    -0.960 OA
BRANCH  13  17
ATOM     16  C   LIG    1       -3.290   3.228   1.424  0.00  0.00    +0.300 C 
ATOM     17  N   LIG    1       -2.854   2.574   0.188  0.00  0.00    -1.010 NA
ATOM     18  C   LIG    1       -3.364   1.244  -0.155  0.00  0.00    +0.290 C 
ENDBRANCH  13  17
ENDBRANCH  11  13
ENDBRANCH  10  11
ENDBRANCH   1  10
BRANCH   2  19
ATOM     19  C   LIG    1        0.999  -1.709   0.463  0.00  0.00    +0.360 C 
BRANCH  19  20
ATOM     20  C   LIG    1       -0.257  -2.520   0.271  0.00  0.00    -0.150 A 
ATOM     21  C   LIG    1       -0.239  -3.643  -0.535  0.00  0.00    +0.060 A 
ATOM     22  C   LIG    1       -1.391  -4.386  -0.711  0.00  0.00    +0.000 A 
ATOM     23  C   LIG    1       -2.562  -4.009  -0.082  0.00  0.00    +0.050 A 
ATOM     24  C   LIG    1       -2.583  -2.887   0.725  0.00  0.00    -0.020 A 
ATOM     25  C   LIG    1       -1.428  -2.144   0.907  0.00  0.00    +0.120 A 
ATOM     26  F   LIG    1       -1.446  -1.051   1.700  0.00  0.00    -0.120 F 
ENDBRANCH  19  20
ENDBRANCH   2  19
TORSDOF 7
