REMARK  Name = ZINCpk00000e9abQ.0
REMARK                            x       y       z     vdW  Elec       q    Type
REMARK                         _______ _______ _______ _____ _____    ______ ____
ROOT
ATOM      1  C   LIG    1        2.547  -3.767   0.798  0.00  0.00    +0.080 C 
ATOM      2  C   LIG    1        1.343  -3.010   0.208  0.00  0.00    +0.110 C 
ATOM      3  C   LIG    1        1.306  -3.279  -1.302  0.00  0.00    +0.280 C 
ATOM      4  N   LIG    1        0.318  -2.368  -1.902  0.00  0.00    -0.610 N 
ATOM      5  C   LIG    1        0.493  -0.929  -1.664  0.00  0.00    +0.270 C 
ATOM      6  C   LIG    1        0.697  -0.665  -0.176  0.00  0.00    +0.090 C 
ATOM      7  C   LIG    1        1.369   0.729  -0.028  0.00  0.00    +0.040 C 
ATOM      8  C   LIG    1        0.496   1.417   1.049  0.00  0.00    +0.220 C 
ATOM      9  O   LIG    1       -0.830   0.906   0.782  0.00  0.00    -0.370 OA
ATOM     10  C   LIG    1       -0.658  -0.502   0.527  0.00  0.00    +0.190 C 
ATOM     11  C   LIG    1       -0.701  -2.836  -2.650  0.00  0.00    +0.570 C 
ATOM     12  O   LIG    1       -0.777  -4.024  -2.898  0.00  0.00    -0.520 OA
ATOM     13  C   LIG    1        0.071  -3.552   0.860  0.00  0.00    +0.030 C 
ATOM     14  O   LIG    1        1.511  -1.625   0.458  0.00  0.00    -0.360 OA
ENDROOT
BRANCH  11  15
ATOM     15  C   LIG    1       -1.724  -1.907  -3.168  0.00  0.00    -0.120 A 
ATOM     16  C   LIG    1       -3.080  -2.205  -3.017  0.00  0.00    +0.090 A 
ATOM     17  C   LIG    1       -4.037  -1.336  -3.497  0.00  0.00    +0.040 A 
ATOM     18  C   LIG    1       -3.655  -0.168  -4.139  0.00  0.00    +0.100 A 
ATOM     19  O   LIG    1       -4.591   0.693  -4.618  0.00  0.00    -0.300 OA
ATOM     20  C   LIG    1       -4.259   2.083  -4.590  0.00  0.00    +0.310 C 
ATOM     21  C   LIG    1       -2.865   2.284  -5.127  0.00  0.00    +0.490 C 
ATOM     22  N   LIG    1       -1.935   1.320  -4.950  0.00  0.00    -0.660 N 
ATOM     23  H   LIG    1       -1.028   1.447  -5.270  0.00  0.00    +0.420 HD
ATOM     24  O   LIG    1       -2.580   3.305  -5.715  0.00  0.00    -0.500 OA
ATOM     25  C   LIG    1       -2.300   0.134  -4.297  0.00  0.00    +0.090 A 
ATOM     26  C   LIG    1       -1.337  -0.730  -3.815  0.00  0.00    +0.040 A 
ENDBRANCH  11  15
TORSDOF 1
