REMARK  Name = ZINCpe000000SGNW.2
REMARK                            x       y       z     vdW  Elec       q    Type
REMARK                         _______ _______ _______ _____ _____    ______ ____
ROOT
ATOM      1  N   LIG    1       -0.133   1.601  -1.266  0.00  0.00    -0.510 NA
ATOM      2  C   LIG    1        1.195   2.162  -1.590  0.00  0.00    +0.190 C 
ATOM      3  C   LIG    1        2.191   1.009  -1.311  0.00  0.00    +0.050 C 
ATOM      4  C   LIG    1        1.382  -0.226  -1.788  0.00  0.00    +0.030 C 
ATOM      5  C   LIG    1       -0.066   0.133  -1.391  0.00  0.00    +0.220 C 
ENDROOT
BRANCH   4   6
ATOM      6  C   LIG    1        1.837  -1.471  -1.071  0.00  0.00    +0.220 A 
ATOM      7  C   LIG    1        2.212  -2.560  -1.775  0.00  0.00    -0.120 A 
ATOM      8  C   LIG    1        2.636  -3.718  -1.079  0.00  0.00    +0.550 A 
ATOM      9  N   LIG    1        2.658  -3.708   0.269  0.00  0.00    -0.660 N 
ATOM     10  H   LIG    1        2.947  -4.498   0.753  0.00  0.00    +0.430 HD
ATOM     11  C   LIG    1        2.279  -2.609   0.946  0.00  0.00    +0.700 A 
ATOM     12  O   LIG    1        2.303  -2.615   2.162  0.00  0.00    -0.540 OA
ATOM     13  O   LIG    1        2.979  -4.712  -1.692  0.00  0.00    -0.510 OA
ATOM     14  N   LIG    1        1.879  -1.500   0.296  0.00  0.00    -0.630 N 
ATOM     15  H   LIG    1        1.614  -0.716   0.802  0.00  0.00    +0.440 HD
ENDBRANCH   4   6
BRANCH   1  20
ATOM     16  N   LIG    1       -3.624   2.299  -1.705  0.00  0.00    -0.590 N 
ATOM     17  C   LIG    1       -3.687   3.737  -1.934  0.00  0.00    +0.260 C 
ATOM     18  C   LIG    1       -2.453   4.211  -2.703  0.00  0.00    +0.020 C 
ATOM     19  C   LIG    1       -1.200   3.680  -1.997  0.00  0.00    +0.040 C 
ATOM     20  C   LIG    1       -1.169   2.157  -2.147  0.00  0.00    +0.150 C 
ATOM     21  C   LIG    1       -2.504   1.579  -1.775  0.00  0.00    +0.530 C 
ATOM     22  O   LIG    1       -2.567   0.394  -1.524  0.00  0.00    -0.540 OA
BRANCH  16  23
ATOM     23  C   LIG    1       -4.870   1.601  -1.378  0.00  0.00    +0.290 C 
BRANCH  23  25
ATOM     24  C   LIG    1       -5.307   3.067   0.597  0.00  0.00    +0.030 C 
ATOM     25  C   LIG    1       -5.086   1.625   0.137  0.00  0.00    -0.080 C 
ATOM     26  C   LIG    1       -3.853   1.050   0.837  0.00  0.00    +0.030 C 
ATOM     27  C   LIG    1       -6.312   0.783   0.491  0.00  0.00    +0.030 C 
ENDBRANCH  23  25
ENDBRANCH  16  23
ENDBRANCH   1  20
TORSDOF 4
