REMARK  Name = ZINCtV000002vMkB.0
REMARK                            x       y       z     vdW  Elec       q    Type
REMARK                         _______ _______ _______ _____ _____    ______ ____
ROOT
ATOM      1  C   LIG    1       -3.884   0.325   5.587  0.00  0.00    +0.290 C 
ENDROOT
BRANCH   1   2
ATOM      2  C   LIG    1       -4.506  -0.537   6.656  0.00  0.00    -0.090 A 
ATOM      3  C   LIG    1       -3.805  -1.613   7.168  0.00  0.00    +0.040 A 
ATOM      4  C   LIG    1       -4.370  -2.402   8.151  0.00  0.00    +0.010 A 
ATOM      5  C   LIG    1       -5.647  -2.120   8.617  0.00  0.00    +0.090 A 
ATOM      6  C   LIG    1       -6.350  -1.043   8.097  0.00  0.00    +0.000 A 
ATOM      7  C   LIG    1       -5.778  -0.254   7.117  0.00  0.00    +0.040 A 
BRANCH   5   8
ATOM      8  O   LIG    1       -6.207  -2.897   9.581  0.00  0.00    -0.260 OA
BRANCH   8   9
ATOM      9  C   LIG    1       -7.280  -3.659   9.242  0.00  0.00    +0.120 A 
ATOM     10  C   LIG    1       -7.697  -3.723   7.920  0.00  0.00    -0.060 A 
ATOM     11  C   LIG    1       -8.786  -4.502   7.578  0.00  0.00    +0.050 A 
ATOM     12  C   LIG    1       -9.465  -5.210   8.553  0.00  0.00    -0.020 A 
ATOM     13  C   LIG    1       -9.053  -5.144   9.871  0.00  0.00    +0.050 A 
ATOM     14  C   LIG    1       -7.963  -4.370  10.218  0.00  0.00    -0.020 A 
ENDBRANCH   8   9
ENDBRANCH   5   8
ENDBRANCH   1   2
BRANCH   1  15
ATOM     15  N   LIG    1       -3.155  -0.521   4.639  0.00  0.00    -0.740 N 
ATOM     16  H   LIG    1       -2.819  -1.387   4.921  0.00  0.00    +0.390 HD
BRANCH  15  17
ATOM     17  C   LIG    1       -2.942  -0.079   3.320  0.00  0.00    +0.070 A 
ATOM     18  C   LIG    1       -2.291  -0.761   2.344  0.00  0.00    +0.010 A 
ATOM     19  N   LIG    1       -2.302   0.013   1.226  0.00  0.00    -0.360 N 
ATOM     20  N   LIG    1       -2.987   1.196   1.529  0.00  0.00    -0.270 NA
ATOM     21  C   LIG    1       -3.370   1.142   2.779  0.00  0.00    +0.190 A 
BRANCH  18  22
ATOM     22  C   LIG    1       -1.667  -2.126   2.476  0.00  0.00    +0.100 C 
ATOM     23  C   LIG    1       -0.213  -1.980   2.930  0.00  0.00    +0.030 C 
ENDBRANCH  18  22
BRANCH  19  24
ATOM     24  C   LIG    1       -1.708  -0.332  -0.068  0.00  0.00    +0.320 C 
BRANCH  24  25
ATOM     25  C   LIG    1       -0.260   0.161  -0.112  0.00  0.00    -0.030 C 
ATOM     26  C   LIG    1        0.399  -0.307  -1.411  0.00  0.00    +0.030 C 
ATOM     27  C   LIG    1       -0.241   1.690  -0.053  0.00  0.00    +0.030 C 
ENDBRANCH  24  25
ENDBRANCH  19  24
ENDBRANCH  15  17
ENDBRANCH   1  15
BRANCH   1  28
ATOM     28  C   LIG    1       -2.916   1.319   6.232  0.00  0.00    +0.010 C 
BRANCH  28  30
ATOM     29  C   LIG    1       -1.412   3.269   5.811  0.00  0.00    +0.000 C 
ATOM     30  C   LIG    1       -2.380   2.275   5.165  0.00  0.00    +0.000 C 
ENDBRANCH  28  30
ENDBRANCH   1  28
TORSDOF 10
