REMARK  Name = ZINCrH000004v0cf.0
REMARK                            x       y       z     vdW  Elec       q    Type
REMARK                         _______ _______ _______ _____ _____    ______ ____
ROOT
ATOM      1  C   LIG    1       -4.881   3.972  -0.440  0.00  0.00    -0.010 C 
ATOM      2  C   LIG    1       -4.725   5.115  -1.445  0.00  0.00    +0.040 C 
ATOM      3  C   LIG    1       -6.027   5.917  -1.515  0.00  0.00    +0.030 C 
ATOM      4  C   LIG    1       -7.159   5.003  -1.995  0.00  0.00    +0.280 C 
ATOM      5  N   LIG    1       -7.221   3.827  -1.117  0.00  0.00    -1.000 NA
ATOM      6  C   LIG    1       -6.001   3.036  -0.907  0.00  0.00    +0.320 C 
ENDROOT
BRANCH   1   8
ATOM      7  O   LIG    1       -3.564   2.023  -0.626  0.00  0.00    -0.520 OA
ATOM      8  C   LIG    1       -3.588   3.203  -0.348  0.00  0.00    +0.530 C 
ATOM      9  N   LIG    1       -2.460   3.827   0.044  0.00  0.00    -0.680 N 
ATOM     10  H   LIG    1       -2.493   4.751   0.337  0.00  0.00    +0.410 HD
BRANCH   9  11
ATOM     11  C   LIG    1       -1.238   3.140   0.028  0.00  0.00    +0.060 A 
ATOM     12  C   LIG    1       -0.447   3.151  -1.115  0.00  0.00    +0.140 A 
ATOM     13  C   LIG    1        0.756   2.469  -1.129  0.00  0.00    -0.010 A 
ATOM     14  C   LIG    1        1.177   1.784  -0.003  0.00  0.00    +0.100 A 
ATOM     15  C   LIG    1        0.395   1.775   1.137  0.00  0.00    -0.010 A 
ATOM     16  F   LIG    1       -0.856   3.824  -2.213  0.00  0.00    -0.120 F 
ATOM     17  C   LIG    1       -0.811   2.451   1.157  0.00  0.00    +0.140 A 
ATOM     18  F   LIG    1       -1.574   2.441   2.272  0.00  0.00    -0.120 F 
ENDBRANCH   9  11
ENDBRANCH   1   8
BRANCH   5  19
ATOM     19  S   LIG    1       -8.640   3.399  -0.379  0.00  0.00    +2.690 S 
ATOM     20  O   LIG    1       -9.429   4.579  -0.310  0.00  0.00    -0.950 OA
ATOM     21  O   LIG    1       -8.283   2.635   0.765  0.00  0.00    -0.950 OA
BRANCH  19  22
ATOM     22  C   LIG    1       -9.484   2.300  -1.467  0.00  0.00    -0.670 A 
ATOM     23  C   LIG    1      -10.368   2.799  -2.405  0.00  0.00    +0.140 A 
ATOM     24  C   LIG    1      -11.026   1.938  -3.263  0.00  0.00    +0.040 A 
ATOM     25  C   LIG    1      -10.808   0.575  -3.175  0.00  0.00    -0.040 A 
ATOM     26  C   LIG    1       -9.928   0.075  -2.232  0.00  0.00    +0.040 A 
ATOM     27 BR   LIG    1      -11.714  -0.605  -4.342  0.00  0.00    -0.030 Br
ATOM     28  C   LIG    1       -9.266   0.937  -1.378  0.00  0.00    +0.140 A 
ENDBRANCH  19  22
ENDBRANCH   5  19
TORSDOF 4
