REMARK  Name = ZINCrg000000soUo.0
REMARK                            x       y       z     vdW  Elec       q    Type
REMARK                         _______ _______ _______ _____ _____    ______ ____
ROOT
ATOM      1  C   LIG    1       -3.874   5.083  -1.651  0.00  0.00    +0.520 C 
ATOM      2  N   LIG    1       -2.814   4.289  -1.399  0.00  0.00    -0.720 N 
ATOM      3  H   LIG    1       -2.271   3.958  -2.131  0.00  0.00    +0.400 HD
ATOM      4  O   LIG    1       -4.553   5.497  -0.735  0.00  0.00    -0.540 OA
ENDROOT
BRANCH   1   5
ATOM      5  C   LIG    1       -4.215   5.457  -3.070  0.00  0.00    +0.050 C 
BRANCH   5   6
ATOM      6  C   LIG    1       -5.451   6.358  -3.078  0.00  0.00    +0.150 C 
BRANCH   6   9
ATOM      7  C   LIG    1       -7.388   4.837  -4.553  0.00  0.00    +0.160 C 
ATOM      8  C   LIG    1       -6.703   6.018  -5.193  0.00  0.00    +0.200 A 
ATOM      9  C   LIG    1       -5.792   6.732  -4.497  0.00  0.00    -0.270 A 
ATOM     10  C   LIG    1       -5.158   7.833  -5.121  0.00  0.00    +0.550 A 
ATOM     11  N   LIG    1       -5.479   8.148  -6.392  0.00  0.00    -0.660 N 
ATOM     12  H   LIG    1       -5.048   8.901  -6.827  0.00  0.00    +0.430 HD
ATOM     13  C   LIG    1       -6.395   7.422  -7.061  0.00  0.00    +0.700 A 
ATOM     14  O   LIG    1       -6.675   7.719  -8.206  0.00  0.00    -0.540 OA
ATOM     15  O   LIG    1       -4.330   8.489  -4.516  0.00  0.00    -0.500 OA
ATOM     16  N   LIG    1       -7.005   6.374  -6.479  0.00  0.00    -0.630 N 
ATOM     17  H   LIG    1       -7.662   5.863  -6.977  0.00  0.00    +0.440 HD
ENDBRANCH   6   9
ENDBRANCH   5   6
ENDBRANCH   1   5
BRANCH   2  18
ATOM     18  C   LIG    1       -2.483   3.926  -0.019  0.00  0.00    +0.340 C 
BRANCH  18  19
ATOM     19  C   LIG    1       -1.198   3.140  -0.001  0.00  0.00    -0.130 A 
ATOM     20  C   LIG    1       -1.219   1.765   0.152  0.00  0.00    +0.090 A 
ATOM     21  C   LIG    1       -0.011   1.081   0.167  0.00  0.00    -0.040 A 
ATOM     22  C   LIG    1        1.167   1.786   0.020  0.00  0.00    +0.280 A 
ATOM     23  N   LIG    1        1.157   3.097  -0.130  0.00  0.00    -0.510 NA
ATOM     24  C   LIG    1        0.026   3.785  -0.144  0.00  0.00    +0.310 A 
BRANCH  24  25
ATOM     25  N   LIG    1        0.062   5.166  -0.305  0.00  0.00    -0.480 N 
ATOM     26  C   LIG    1        0.678   5.530  -1.587  0.00  0.00    +0.190 C 
ATOM     27  C   LIG    1        0.570   7.043  -1.795  0.00  0.00    +0.020 C 
ATOM     28  C   LIG    1        1.278   7.763  -0.644  0.00  0.00    +0.010 C 
ATOM     29  C   LIG    1        0.649   7.329   0.683  0.00  0.00    +0.020 C 
ATOM     30  C   LIG    1        0.756   5.808   0.819  0.00  0.00    +0.180 C 
ENDBRANCH  24  25
ENDBRANCH  18  19
ENDBRANCH   2  18
TORSDOF 6
