REMARK  Name = ZINCpe00000R9CyB.0
REMARK                            x       y       z     vdW  Elec       q    Type
REMARK                         _______ _______ _______ _____ _____    ______ ____
ROOT
ATOM      1  C   LIG    1        0.205  -0.161  -4.371  0.00  0.00    +0.450 A 
ATOM      2  N   LIG    1        1.110  -0.234  -5.317  0.00  0.00    -0.330 NA
ATOM      3  N   LIG    1        0.721  -1.279  -6.170  0.00  0.00    -0.370 N 
ATOM      4  C   LIG    1       -0.421  -1.777  -5.666  0.00  0.00    +0.490 A 
ATOM      5  N   LIG    1       -0.718  -1.103  -4.584  0.00  0.00    -0.520 NA
ENDROOT
BRANCH   1   7
ATOM      6  C   LIG    1       -0.781   0.723  -2.395  0.00  0.00    +0.500 C 
ATOM      7  N   LIG    1        0.209   0.749  -3.309  0.00  0.00    -0.630 N 
ATOM      8  H   LIG    1        0.925   1.399  -3.229  0.00  0.00    +0.420 HD
ATOM      9  O   LIG    1       -1.677  -0.089  -2.494  0.00  0.00    -0.470 OA
BRANCH   6  12
ATOM     10  C   LIG    1       -1.514   1.718   1.059  0.00  0.00    +0.160 C 
ATOM     11  C   LIG    1       -0.582   0.953   0.083  0.00  0.00    +0.050 C 
ATOM     12  C   LIG    1       -0.777   1.704  -1.251  0.00  0.00    +0.170 C 
ATOM     13  N   LIG    1       -2.078   2.394  -1.177  0.00  0.00    -0.500 NA
ATOM     14  C   LIG    1       -2.952   1.991  -2.288  0.00  0.00    +0.200 C 
ATOM     15  C   LIG    1       -2.702   2.085   0.127  0.00  0.00    +0.180 C 
BRANCH  10  17
ATOM     16  C   LIG    1       -2.193   1.565   3.353  0.00  0.00    +0.200 C 
ATOM     17  O   LIG    1       -1.940   0.872   2.129  0.00  0.00    -0.380 OA
ENDBRANCH  10  17
ENDBRANCH   6  12
ENDBRANCH   1   7
BRANCH   3  18
ATOM     18  C   LIG    1        1.421  -1.736  -7.373  0.00  0.00    +0.390 C 
BRANCH  18  19
ATOM     19  C   LIG    1        1.622  -0.574  -8.310  0.00  0.00    -0.090 A 
ATOM     20  C   LIG    1        0.663  -0.285  -9.265  0.00  0.00    +0.040 A 
ATOM     21  C   LIG    1        0.838   0.781 -10.123  0.00  0.00    +0.070 A 
ATOM     22  C   LIG    1        1.992   1.562 -10.034  0.00  0.00    -0.010 A 
ATOM     23  C   LIG    1        2.958   1.262  -9.072  0.00  0.00    +0.070 A 
ATOM     24  C   LIG    1        2.767   0.197  -8.216  0.00  0.00    +0.060 A 
BRANCH  22  25
ATOM     25  C   LIG    1        2.183   2.667 -10.925  0.00  0.00    +0.250 C 
ATOM     26  N   LIG    1        2.334   3.543 -11.632  0.00  0.00    -0.410 NA
ENDBRANCH  22  25
ENDBRANCH  18  19
ENDBRANCH   3  18
TORSDOF 6
