REMARK  Name = ZINCpk00000xLIUV.0
REMARK                            x       y       z     vdW  Elec       q    Type
REMARK                         _______ _______ _______ _____ _____    ______ ____
ROOT
ATOM      1  C   LIG    1       -0.966  -6.208  -0.081  0.00  0.00    +0.160 C 
ATOM      2  C   LIG    1        0.305  -6.945   0.418  0.00  0.00    +0.080 C 
ATOM      3  C   LIG    1        1.075  -5.840   1.170  0.00  0.00    +0.340 C 
ATOM      4  N   LIG    1        0.596  -4.548   0.658  0.00  0.00    -0.590 N 
ATOM      5  C   LIG    1        1.007  -3.335   1.077  0.00  0.00    +0.630 C 
ATOM      6  O   LIG    1        1.842  -3.247   1.957  0.00  0.00    -0.520 OA
ATOM      7  C   LIG    1       -0.405  -4.798  -0.395  0.00  0.00    +0.260 C 
ENDROOT
BRANCH   5   8
ATOM      8  C   LIG    1        0.444  -2.112   0.469  0.00  0.00    -0.000 A 
ATOM      9  N   LIG    1       -0.463  -2.055  -0.489  0.00  0.00    -0.260 NA
ATOM     10  N   LIG    1       -0.726  -0.829  -0.777  0.00  0.00    -0.380 N 
ATOM     11  H   LIG    1       -1.356  -0.539  -1.455  0.00  0.00    +0.450 HD
ATOM     12  C   LIG    1        0.002  -0.004   0.002  0.00  0.00    +0.020 A 
ATOM     13  C   LIG    1       -0.018   1.503   0.010  0.00  0.00    +0.110 C 
ATOM     14  C   LIG    1        1.421   2.026  -0.001  0.00  0.00    +0.030 C 
ATOM     15  C   LIG    1        1.932   2.164   1.431  0.00  0.00    +0.010 C 
ATOM     16  C   LIG    1        1.339   1.079   2.326  0.00  0.00    +0.020 C 
ATOM     17  C   LIG    1        1.769  -0.300   1.814  0.00  0.00    +0.100 C 
ATOM     18  C   LIG    1        0.771  -0.781   0.798  0.00  0.00    -0.130 A 
ENDBRANCH   5   8
BRANCH   3  19
ATOM     19  C   LIG    1        2.554  -5.976   0.913  0.00  0.00    +0.170 A 
ATOM     20  N   LIG    1        3.179  -5.665  -0.189  0.00  0.00    -0.280 NA
ATOM     21  N   LIG    1        4.435  -5.909  -0.058  0.00  0.00    -0.300 NA
ATOM     22  C   LIG    1        4.667  -6.388   1.134  0.00  0.00    +0.370 A 
ATOM     23  N   LIG    1        3.481  -6.439   1.786  0.00  0.00    -0.470 N 
ATOM     24  C   LIG    1        3.248  -6.904   3.155  0.00  0.00    +0.330 C 
ENDBRANCH   3  19
BRANCH   1  26
ATOM     25  C   LIG    1       -3.292  -5.989   0.454  0.00  0.00    +0.210 C 
ATOM     26  O   LIG    1       -1.960  -6.147   0.944  0.00  0.00    -0.370 OA
ENDBRANCH   1  26
TORSDOF 3
