REMARK  Name = ZINCvU0000000BdD.0
REMARK                            x       y       z     vdW  Elec       q    Type
REMARK                         _______ _______ _______ _____ _____    ______ ____
ROOT
ATOM      1  N   LIG    1       -1.296   3.545   0.028  0.00  0.00    -0.630 N 
ATOM      2  H   LIG    1       -0.457   4.031   0.026  0.00  0.00    +0.410 HD
ATOM      3  C   LIG    1       -1.295   2.197   0.020  0.00  0.00    +0.550 C 
ATOM      4  O   LIG    1       -2.347   1.588   0.022  0.00  0.00    -0.460 OA
ENDROOT
BRANCH   3   5
ATOM      5  C   LIG    1       -0.018   1.462   0.010  0.00  0.00    -0.110 A 
ATOM      6  C   LIG    1        0.002  -0.004   0.002  0.00  0.00    +0.140 A 
ATOM      7  N   LIG    1       -1.121  -0.708   0.009  0.00  0.00    -0.380 NA
ATOM      8  C   LIG    1       -1.060  -2.036   0.002  0.00  0.00    +0.110 A 
ATOM      9  C   LIG    1       -2.234  -2.819   0.009  0.00  0.00    +0.070 A 
ATOM     10  C   LIG    1       -2.136  -4.173   0.001  0.00  0.00    +0.050 A 
ATOM     11  C   LIG    1       -0.899  -4.820  -0.014  0.00  0.00    +0.050 A 
ATOM     12  C   LIG    1        0.268  -4.127  -0.022  0.00  0.00    +0.050 A 
ATOM     13  C   LIG    1        0.241  -2.716  -0.014  0.00  0.00    +0.100 A 
ATOM     14  N   LIG    1        1.365  -2.008  -0.021  0.00  0.00    -0.400 NA
ATOM     15  C   LIG    1        1.304  -0.681  -0.014  0.00  0.00    +0.100 A 
ATOM     16  C   LIG    1        2.478   0.104  -0.021  0.00  0.00    +0.110 A 
ATOM     17  C   LIG    1        2.402   1.459  -0.013  0.00  0.00    +0.040 A 
ATOM     18  C   LIG    1        1.190   2.141   0.002  0.00  0.00    +0.100 A 
ENDBRANCH   3   5
BRANCH   1  20
ATOM     19  C   LIG    1       -2.609   5.599   0.045  0.00  0.00    -0.190 A 
ATOM     20  C   LIG    1       -2.496   4.236   0.037  0.00  0.00    +0.050 A 
ATOM     21  S   LIG    1       -4.034   3.505   0.033  0.00  0.00    +0.310 S 
ATOM     22  C   LIG    1       -4.863   5.053   0.053  0.00  0.00    -0.250 A 
ATOM     23  C   LIG    1       -6.369   5.231   0.060  0.00  0.00    +0.120 C 
ATOM     24  C   LIG    1       -6.694   6.665   0.485  0.00  0.00    +0.020 C 
ATOM     25  C   LIG    1       -5.858   7.636  -0.355  0.00  0.00    +0.020 C 
ATOM     26  C   LIG    1       -4.390   7.528   0.064  0.00  0.00    +0.090 C 
ATOM     27  C   LIG    1       -3.985   6.063   0.054  0.00  0.00    -0.040 A 
BRANCH  19  28
ATOM     28  C   LIG    1       -1.456   6.502   0.045  0.00  0.00    +0.540 C 
ATOM     29  O   LIG    1       -0.981   6.883  -1.008  0.00  0.00    -0.490 OA
BRANCH  28  30
ATOM     30  O   LIG    1       -0.919   6.911   1.213  0.00  0.00    -0.350 OA
BRANCH  30  32
ATOM     31  C   LIG    1        0.689   8.157   2.551  0.00  0.00    +0.070 C 
ATOM     32  C   LIG    1        0.222   7.805   1.138  0.00  0.00    +0.200 C 
ENDBRANCH  30  32
ENDBRANCH  28  30
ENDBRANCH  19  28
ENDBRANCH   1  20
TORSDOF 5
