REMARK  Name = ZINCnE000001TAlu.0
REMARK                            x       y       z     vdW  Elec       q    Type
REMARK                         _______ _______ _______ _____ _____    ______ ____
ROOT
ATOM      1  C   LIG    1        0.651  -1.955   1.280  0.00  0.00    +0.310 C 
ENDROOT
BRANCH   1   9
ATOM      2  C   LIG    1        2.126  -0.039   1.168  0.00  0.00    +0.060 C 
ATOM      3  C   LIG    1        2.169   1.490   1.211  0.00  0.00    +0.060 C 
ATOM      4  C   LIG    1        1.420   2.051  -0.001  0.00  0.00    +0.280 C 
ATOM      5  C   LIG    1       -0.019   1.526   0.010  0.00  0.00    +0.030 C 
ATOM      6  C   LIG    1        0.002  -0.004   0.002  0.00  0.00    +0.170 C 
ATOM      7  F   LIG    1        1.407   3.449   0.063  0.00  0.00    -0.210 F 
ATOM      8  F   LIG    1        2.058   1.641  -1.176  0.00  0.00    -0.200 F 
ATOM      9  N   LIG    1        0.729  -0.491   1.181  0.00  0.00    -0.490 NA
BRANCH   2  11
ATOM     10  O   LIG    1        4.057  -0.493   2.456  0.00  0.00    -0.690 OA
ATOM     11  C   LIG    1        2.845  -0.596   2.370  0.00  0.00    +0.510 C 
ATOM     12  O   LIG    1        2.215  -1.148   3.256  0.00  0.00    -0.670 OA
ENDBRANCH   2  11
ENDBRANCH   1   9
BRANCH   1  13
ATOM     13  C   LIG    1        1.388  -2.577   0.122  0.00  0.00    +0.110 A 
ATOM     14  C   LIG    1        2.707  -2.959   0.280  0.00  0.00    +0.010 A 
ATOM     15  C   LIG    1        3.382  -3.537  -0.787  0.00  0.00    +0.070 A 
ATOM     16  C   LIG    1        2.709  -3.702  -1.984  0.00  0.00    -0.040 A 
ATOM     17  C   LIG    1        1.378  -3.288  -2.076  0.00  0.00    +0.180 A 
ATOM     18  N   LIG    1        0.767  -2.744  -1.028  0.00  0.00    -0.460 NA
BRANCH  17  19
ATOM     19  C   LIG    1        0.644  -3.456  -3.346  0.00  0.00    -0.130 A 
ATOM     20  C   LIG    1       -0.638  -3.098  -3.558  0.00  0.00    +0.050 A 
ATOM     21  C   LIG    1       -1.106  -3.354  -4.829  0.00  0.00    +0.010 A 
ATOM     22  C   LIG    1       -0.219  -3.917  -5.656  0.00  0.00    -0.060 A 
ATOM     23  S   LIG    1        1.310  -4.149  -4.820  0.00  0.00    +0.120 S 
ENDBRANCH  17  19
ENDBRANCH   1  13
TORSDOF 4
