REMARK  Name = ZINCqH0000003UMN.0
REMARK                            x       y       z     vdW  Elec       q    Type
REMARK                         _______ _______ _______ _____ _____    ______ ____
ROOT
ATOM      1  N   LIG    1        0.371  -1.906   2.468  0.00  0.00    -0.730 N 
ATOM      2  H   LIG    1        0.799  -1.166   2.925  0.00  0.00    +0.400 HD
ATOM      3  C   LIG    1        0.157  -1.845   1.139  0.00  0.00    +0.710 C 
ATOM      4  N   LIG    1        0.538  -0.754   0.445  0.00  0.00    -0.620 N 
ATOM      5  C   LIG    1        1.185   0.364   1.135  0.00  0.00    +0.280 C 
ATOM      6  O   LIG    1       -0.379  -2.773   0.566  0.00  0.00    -0.590 OA
ENDROOT
BRANCH   1  11
ATOM      7  C   LIG    1        0.799  -3.220   4.509  0.00  0.00    +0.020 C 
ATOM      8  C   LIG    1       -0.202  -3.749   5.566  0.00  0.00    +0.040 C 
ATOM      9  C   LIG    1       -1.506  -2.993   5.211  0.00  0.00    +0.020 C 
ATOM     10  C   LIG    1       -1.509  -2.948   3.668  0.00  0.00    +0.020 C 
ATOM     11  C   LIG    1       -0.043  -3.092   3.222  0.00  0.00    +0.280 C 
BRANCH   7  12
ATOM     12  S   LIG    1        2.152  -4.405   4.267  0.00  0.00    -0.240 S 
BRANCH  12  14
ATOM     13  C   LIG    1        4.277  -5.239   5.773  0.00  0.00    +0.060 C 
ATOM     14  C   LIG    1        3.083  -4.284   5.819  0.00  0.00    +0.070 C 
ENDBRANCH  12  14
ENDBRANCH   7  12
ENDBRANCH   1  11
BRANCH   4  15
ATOM     15  C   LIG    1        0.306  -0.687  -1.000  0.00  0.00    +0.420 C 
BRANCH  15  16
ATOM     16  C   LIG    1        1.549  -1.126  -1.730  0.00  0.00    +0.180 A 
ATOM     17  N   LIG    1        2.555  -0.358  -2.049  0.00  0.00    -0.480 NA
ATOM     18  C   LIG    1        3.482  -1.085  -2.690  0.00  0.00    +0.140 A 
ATOM     19  C   LIG    1        3.034  -2.353  -2.771  0.00  0.00    +0.120 A 
ATOM     20  N   LIG    1        1.810  -2.380  -2.157  0.00  0.00    -0.430 N 
BRANCH  20  21
ATOM     21  C   LIG    1        0.945  -3.551  -1.996  0.00  0.00    +0.350 C 
BRANCH  21  22
ATOM     22  C   LIG    1        0.043  -3.677  -3.197  0.00  0.00    -0.110 A 
ATOM     23  C   LIG    1       -1.202  -3.075  -3.193  0.00  0.00    +0.020 A 
ATOM     24  C   LIG    1       -2.027  -3.187  -4.297  0.00  0.00    +0.010 A 
ATOM     25  C   LIG    1       -1.612  -3.909  -5.400  0.00  0.00    +0.010 A 
ATOM     26  C   LIG    1       -0.369  -4.516  -5.402  0.00  0.00    +0.000 A 
ATOM     27  C   LIG    1        0.458  -4.400  -4.300  0.00  0.00    +0.020 A 
ENDBRANCH  21  22
ENDBRANCH  20  21
ENDBRANCH  15  16
ENDBRANCH   4  15
TORSDOF 7
