REMARK  Name = ZINCvU0000000Je8.0
REMARK                            x       y       z     vdW  Elec       q    Type
REMARK                         _______ _______ _______ _____ _____    ______ ____
ROOT
ATOM      1  C   LIG    1       -4.653   4.089   1.318  0.00  0.00    +0.210 C 
ENDROOT
BRANCH   1   4
ATOM      2  C   LIG    1       -7.884   2.720   0.344  0.00  0.00    +0.130 A 
ATOM      3  N   LIG    1       -6.694   3.235   0.220  0.00  0.00    -0.470 NA
ATOM      4  C   LIG    1       -6.039   3.498   1.329  0.00  0.00    +0.070 A 
ATOM      5  C   LIG    1       -6.680   3.214   2.466  0.00  0.00    -0.070 A 
ATOM      6  S   LIG    1       -8.258   2.544   2.057  0.00  0.00    +0.160 S 
BRANCH   2  10
ATOM      7  C   LIG    1      -10.457   1.651  -2.867  0.00  0.00    +0.190 A 
ATOM      8  C   LIG    1       -9.203   2.188  -3.130  0.00  0.00    -0.110 A 
ATOM      9  C   LIG    1       -8.366   2.536  -2.091  0.00  0.00    +0.160 A 
ATOM     10  C   LIG    1       -8.778   2.348  -0.771  0.00  0.00    -0.100 A 
ATOM     11  C   LIG    1      -10.041   1.802  -0.508  0.00  0.00    +0.190 A 
ATOM     12  C   LIG    1      -10.876   1.462  -1.558  0.00  0.00    -0.090 A 
BRANCH   7  14
ATOM     13  C   LIG    1      -10.784   1.532  -5.219  0.00  0.00    +0.240 C 
ATOM     14  O   LIG    1      -11.277   1.311  -3.896  0.00  0.00    -0.310 OA
ENDBRANCH   7  14
BRANCH  11  15
ATOM     15  O   LIG    1      -10.447   1.611   0.774  0.00  0.00    -0.310 OA
ATOM     16  C   LIG    1      -11.747   1.049   0.966  0.00  0.00    +0.250 C 
ENDBRANCH  11  15
ENDBRANCH   2  10
ENDBRANCH   1   4
BRANCH   1  17
ATOM     17  S   LIG    1       -3.428   2.756   1.300  0.00  0.00    +0.010 S 
BRANCH  17  18
ATOM     18  C   LIG    1       -1.944   3.705   1.290  0.00  0.00    +0.370 A 
ATOM     19  N   LIG    1       -2.037   5.012   1.298  0.00  0.00    -0.530 NA
ATOM     20  C   LIG    1       -0.937   5.801   1.291  0.00  0.00    +0.170 A 
ATOM     21  C   LIG    1       -1.037   7.195   1.299  0.00  0.00    +0.030 A 
ATOM     22  C   LIG    1        0.107   7.960   1.292  0.00  0.00    +0.060 A 
ATOM     23  C   LIG    1        1.361   7.365   1.277  0.00  0.00    -0.010 A 
ATOM     24  C   LIG    1        1.487   5.993   1.269  0.00  0.00    +0.100 A 
ATOM     25  C   LIG    1        0.342   5.199   1.276  0.00  0.00    -0.200 A 
ATOM     26  C   LIG    1        0.417   3.731   1.273  0.00  0.00    +0.560 A 
ATOM     27  O   LIG    1        1.489   3.155   1.265  0.00  0.00    -0.500 OA
ATOM     28  N   LIG    1       -0.749   3.044   1.275  0.00  0.00    -0.530 N 
BRANCH  28  29
ATOM     29  C   LIG    1       -0.729   1.579   1.267  0.00  0.00    +0.220 C 
ATOM     30  C   LIG    1        0.011   1.072   2.506  0.00  0.00    +0.050 C 
ATOM     31  C   LIG    1       -0.013   1.086   0.008  0.00  0.00    +0.050 C 
ENDBRANCH  28  29
ENDBRANCH  17  18
ENDBRANCH   1  17
TORSDOF 7
