REMARK  Name = ZINCvU0000000HHF.0
REMARK                            x       y       z     vdW  Elec       q    Type
REMARK                         _______ _______ _______ _____ _____    ______ ____
ROOT
ATOM      1  N   LIG    1        1.213   5.628   0.019  0.00  0.00    -0.510 N 
ATOM      2  C   LIG    1        1.709   4.376   0.009  0.00  0.00    +0.560 A 
ATOM      3  C   LIG    1        0.804   3.275   0.011  0.00  0.00    -0.230 A 
ATOM      4  C   LIG    1       -0.560   3.550   0.026  0.00  0.00    +0.090 A 
ATOM      5  S   LIG    1       -1.472   2.046   0.019  0.00  0.00    +0.210 S 
ATOM      6  C   LIG    1       -0.013   1.076   0.008  0.00  0.00    -0.050 A 
ATOM      7  N   LIG    1       -0.982   4.830   0.035  0.00  0.00    -0.520 NA
ATOM      8  C   LIG    1        1.076   1.843   0.002  0.00  0.00    +0.010 A 
ATOM      9  O   LIG    1        2.914   4.187  -0.004  0.00  0.00    -0.500 OA
ATOM     10  C   LIG    1       -0.137   5.833   0.033  0.00  0.00    +0.370 A 
ENDROOT
BRANCH   8  11
ATOM     11  C   LIG    1        2.450   1.287  -0.013  0.00  0.00    -0.040 A 
ATOM     12  C   LIG    1        3.379   1.743  -0.947  0.00  0.00    +0.060 A 
ATOM     13  C   LIG    1        4.659   1.226  -0.953  0.00  0.00    +0.000 A 
ATOM     14  C   LIG    1        5.016   0.247  -0.042  0.00  0.00    +0.010 A 
ATOM     15  C   LIG    1        4.096  -0.213   0.883  0.00  0.00    -0.010 A 
ATOM     16  C   LIG    1        2.816   0.301   0.902  0.00  0.00    +0.020 A 
ENDBRANCH   8  11
BRANCH   1  17
ATOM     17  C   LIG    1        2.125   6.775   0.017  0.00  0.00    +0.340 C 
BRANCH  17  19
ATOM     18  C   LIG    1        2.211   8.407  -1.797  0.00  0.00    +0.060 C 
ATOM     19  C   LIG    1        2.424   7.175  -1.405  0.00  0.00    -0.070 C 
ENDBRANCH  17  19
ENDBRANCH   1  17
BRANCH  10  20
ATOM     20  S   LIG    1       -0.757   7.482   0.046  0.00  0.00    +0.080 S 
BRANCH  20  21
ATOM     21  C   LIG    1       -2.536   7.148   0.061  0.00  0.00    +0.100 C 
BRANCH  21  22
ATOM     22  C   LIG    1       -3.291   8.452   0.074  0.00  0.00    +0.420 C 
ATOM     23  O   LIG    1       -2.687   9.503   0.073  0.00  0.00    -0.440 OA
BRANCH  22  24
ATOM     24  C   LIG    1       -4.763   8.450   0.087  0.00  0.00    -0.170 A 
ATOM     25  C   LIG    1       -5.464   7.240   0.082  0.00  0.00    +0.060 A 
ATOM     26  C   LIG    1       -6.843   7.246   0.098  0.00  0.00    +0.000 A 
ATOM     27  C   LIG    1       -7.533   8.445   0.111  0.00  0.00    -0.050 A 
ATOM     28  C   LIG    1       -6.846   9.647   0.111  0.00  0.00    -0.100 A 
ATOM     29  C   LIG    1       -7.608  10.948   0.124  0.00  0.00    +0.090 C 
ATOM     30  C   LIG    1       -9.040   8.443   0.123  0.00  0.00    +0.100 C 
ATOM     31  C   LIG    1       -5.468   9.658   0.099  0.00  0.00    +0.090 A 
ENDBRANCH  22  24
ENDBRANCH  21  22
ENDBRANCH  20  21
ENDBRANCH  10  20
TORSDOF 7
