REMARK  Name = ZINCrg00000AFin1.0
REMARK                            x       y       z     vdW  Elec       q    Type
REMARK                         _______ _______ _______ _____ _____    ______ ____
ROOT
ATOM      1  C   LIG    1        0.023  -0.522   1.442  0.00  0.00    -0.040 C 
ATOM      2  C   LIG    1        0.165  -2.046   1.435  0.00  0.00    +0.030 C 
ATOM      3  C   LIG    1        0.219  -2.561   2.874  0.00  0.00    +0.020 C 
ATOM      4  C   LIG    1       -1.086  -2.201   3.591  0.00  0.00    +0.260 C 
ATOM      5  N   LIG    1       -1.304  -0.752   3.476  0.00  0.00    -0.610 N 
ATOM      6  C   LIG    1       -1.519  -0.001   4.575  0.00  0.00    +0.500 C 
ATOM      7  O   LIG    1       -1.698   1.193   4.467  0.00  0.00    -0.510 OA
ATOM      8  C   LIG    1       -1.285  -0.138   2.142  0.00  0.00    +0.290 C 
ENDROOT
BRANCH   1   9
ATOM      9  C   LIG    1        0.002  -0.004   0.002  0.00  0.00    +0.300 C 
BRANCH   9  11
ATOM     10  C   LIG    1       -1.194   2.119   0.019  0.00  0.00    +0.500 C 
ATOM     11  N   LIG    1       -0.018   1.461   0.010  0.00  0.00    -0.620 N 
ATOM     12  C   LIG    1        1.241   2.211   0.002  0.00  0.00    +0.280 C 
ATOM     13  O   LIG    1       -2.236   1.498   0.021  0.00  0.00    -0.500 OA
BRANCH  10  14
ATOM     14  C   LIG    1       -1.214   3.626   0.028  0.00  0.00    +0.350 C 
BRANCH  14  18
ATOM     15  C   LIG    1       -5.441   5.987   1.326  0.00  0.00    +0.110 C 
ATOM     16  C   LIG    1       -4.446   5.121   0.597  0.00  0.00    -0.240 A 
ATOM     17  C   LIG    1       -3.149   4.938   0.938  0.00  0.00    +0.220 A 
ATOM     18  N   LIG    1       -2.602   4.095   0.037  0.00  0.00    -0.370 N 
ATOM     19  N   LIG    1       -3.594   3.754  -0.892  0.00  0.00    -0.270 NA
ATOM     20  C   LIG    1       -4.700   4.364  -0.552  0.00  0.00    +0.230 A 
ENDBRANCH  14  18
ENDBRANCH  10  14
ENDBRANCH   9  11
ENDBRANCH   1   9
BRANCH   6  21
ATOM     21  C   LIG    1       -1.536  -0.646   5.937  0.00  0.00    +0.350 C 
BRANCH  21  22
ATOM     22  N   LIG    1       -1.786   0.375   6.957  0.00  0.00    -0.370 N 
ATOM     23  C   LIG    1       -2.771   0.351   7.879  0.00  0.00    +0.220 A 
ATOM     24  C   LIG    1       -2.659   1.471   8.631  0.00  0.00    -0.230 A 
ATOM     25  C   LIG    1       -1.569   2.204   8.152  0.00  0.00    +0.230 A 
ATOM     26  C   LIG    1       -3.552   1.859   9.781  0.00  0.00    +0.110 C 
ATOM     27  N   LIG    1       -1.041   1.545   7.152  0.00  0.00    -0.270 NA
ENDBRANCH  21  22
ENDBRANCH   6  21
TORSDOF 6
