REMARK  Name = ZINCqH0000004aE8.0
REMARK                            x       y       z     vdW  Elec       q    Type
REMARK                         _______ _______ _______ _____ _____    ______ ____
ROOT
ATOM      1  C   LIG    1        2.667   0.495   1.313  0.00  0.00    +0.360 C 
ENDROOT
BRANCH   1   4
ATOM      2  C   LIG    1        3.515   3.208   0.303  0.00  0.00    +0.130 C 
ATOM      3  C   LIG    1        3.512   1.887  -0.477  0.00  0.00    +0.230 C 
ATOM      4  N   LIG    1        2.386   1.070  -0.009  0.00  0.00    -0.480 N 
ATOM      5  C   LIG    1        1.184   1.785   0.000  0.00  0.00    +0.010 A 
ATOM      6  C   LIG    1       -0.013   1.076   0.008  0.00  0.00    +0.030 A 
ATOM      7  C   LIG    1       -1.219   1.748   0.017  0.00  0.00    -0.010 A 
ATOM      8  C   LIG    1       -1.244   3.129   0.032  0.00  0.00    +0.040 A 
ATOM      9  C   LIG    1       -0.059   3.842   0.024  0.00  0.00    +0.000 A 
ATOM     10  C   LIG    1        1.157   3.175   0.006  0.00  0.00    +0.100 A 
ATOM     11  O   LIG    1        2.305   3.906  -0.008  0.00  0.00    -0.300 OA
BRANCH   2  13
ATOM     12  C   LIG    1        4.789   5.310   0.756  0.00  0.00    +0.020 C 
ATOM     13  C   LIG    1        4.721   4.052  -0.113  0.00  0.00    +0.060 C 
ENDBRANCH   2  13
ENDBRANCH   1   4
BRANCH   1  14
ATOM     14  C   LIG    1        1.630  -0.550   1.637  0.00  0.00    +0.180 A 
ATOM     15  N   LIG    1        1.704  -1.821   1.353  0.00  0.00    -0.260 NA
ATOM     16  N   LIG    1        0.645  -2.418   1.775  0.00  0.00    -0.260 NA
ATOM     17  C   LIG    1       -0.147  -1.541   2.346  0.00  0.00    +0.200 A 
ATOM     18  O   LIG    1        0.466  -0.342   2.274  0.00  0.00    -0.210 OA
BRANCH  17  19
ATOM     19  C   LIG    1       -1.463  -1.817   2.959  0.00  0.00    +0.000 A 
ATOM     20  C   LIG    1       -2.196  -0.777   3.538  0.00  0.00    +0.060 A 
ATOM     21  C   LIG    1       -3.423  -1.033   4.104  0.00  0.00    +0.080 A 
ATOM     22  C   LIG    1       -3.932  -2.334   4.111  0.00  0.00    +0.000 A 
ATOM     23  C   LIG    1       -3.196  -3.375   3.537  0.00  0.00    +0.080 A 
ATOM     24  C   LIG    1       -1.971  -3.118   2.966  0.00  0.00    +0.080 A 
BRANCH  22  25
ATOM     25  C   LIG    1       -5.207  -2.602   4.705  0.00  0.00    +0.250 C 
ATOM     26  N   LIG    1       -6.219  -2.814   5.176  0.00  0.00    -0.400 NA
ENDBRANCH  22  25
ENDBRANCH  17  19
ENDBRANCH   1  14
TORSDOF 5
