REMARK  Name = ZINCpk00000eaTIS.0
REMARK                            x       y       z     vdW  Elec       q    Type
REMARK                         _______ _______ _______ _____ _____    ______ ____
ROOT
ATOM      1  C   LIG    1        1.572  -1.655   0.716  0.00  0.00    +0.550 C 
ATOM      2  O   LIG    1        0.626  -2.282   1.149  0.00  0.00    -0.490 OA
ENDROOT
BRANCH   1   3
ATOM      3  C   LIG    1        2.939  -2.192   0.857  0.00  0.00    +0.060 A 
ATOM      4  N   LIG    1        3.966  -1.522   0.393  0.00  0.00    -0.150 NA
ATOM      5  N   LIG    1        5.180  -1.917   0.475  0.00  0.00    -0.450 N 
ATOM      6  H   LIG    1        5.873  -1.351   0.100  0.00  0.00    +0.450 HD
ATOM      7  C   LIG    1        5.548  -3.078   1.054  0.00  0.00    +0.520 A 
ATOM      8  C   LIG    1        4.502  -3.939   1.623  0.00  0.00    -0.140 A 
ATOM      9  C   LIG    1        4.777  -5.154   2.241  0.00  0.00    +0.100 A 
ATOM     10  C   LIG    1        3.740  -5.896   2.765  0.00  0.00    +0.030 A 
ATOM     11  C   LIG    1        2.428  -5.451   2.666  0.00  0.00    +0.060 A 
ATOM     12  C   LIG    1        2.135  -4.251   2.052  0.00  0.00    +0.070 A 
ATOM     13  O   LIG    1        6.720  -3.404   1.105  0.00  0.00    -0.490 OA
ATOM     14  C   LIG    1        3.167  -3.482   1.527  0.00  0.00    -0.030 A 
ENDBRANCH   1   3
BRANCH   1  15
ATOM     15  O   LIG    1        1.373  -0.470   0.106  0.00  0.00    -0.310 OA
BRANCH  15  16
ATOM     16  C   LIG    1        0.002  -0.004   0.002  0.00  0.00    +0.200 C 
ATOM     17  C   LIG    1       -0.613  -0.515  -1.302  0.00  0.00    +0.090 C 
BRANCH  16  20
ATOM     18  N   LIG    1       -1.195   2.161   0.019  0.00  0.00    -0.630 N 
ATOM     19  H   LIG    1       -2.028   1.664   0.021  0.00  0.00    +0.420 HD
ATOM     20  C   LIG    1       -0.018   1.503   0.010  0.00  0.00    +0.530 C 
ATOM     21  O   LIG    1        1.024   2.123   0.004  0.00  0.00    -0.480 OA
BRANCH  18  25
ATOM     22  C   LIG    1        0.111   6.972   0.038  0.00  0.00    +0.190 C 
ATOM     23  C   LIG    1       -0.633   5.662   0.035  0.00  0.00    -0.020 A 
ATOM     24  C   LIG    1       -0.089   4.423   0.032  0.00  0.00    -0.040 A 
ATOM     25  C   LIG    1       -1.214   3.556   0.027  0.00  0.00    +0.250 A 
ATOM     26  N   LIG    1       -2.269   4.326   0.037  0.00  0.00    -0.390 NA
ATOM     27  O   LIG    1       -1.964   5.496   0.042  0.00  0.00    +0.100 OA
ENDBRANCH  18  25
ENDBRANCH  16  20
ENDBRANCH  15  16
ENDBRANCH   1  15
TORSDOF 5
