REMARK  Name = ZINCtV00001bB3oN.0
REMARK                            x       y       z     vdW  Elec       q    Type
REMARK                         _______ _______ _______ _____ _____    ______ ____
ROOT
ATOM      1  N   LIG    1       -0.745   1.585  -3.677  0.00  0.00    -0.510 N 
ATOM      2  C   LIG    1       -0.432   2.785  -4.260  0.00  0.00    +0.180 A 
ATOM      3  C   LIG    1       -1.132   3.150  -5.345  0.00  0.00    -0.020 A 
ATOM      4  S   LIG    1       -2.288   1.839  -5.635  0.00  0.00    +0.010 S 
ATOM      5  C   LIG    1       -1.746   0.860  -4.259  0.00  0.00    +0.380 A 
ATOM      6  N   LIG    1       -2.210  -0.314  -3.879  0.00  0.00    -0.510 NA
ENDROOT
BRANCH   2   7
ATOM      7  C   LIG    1        0.634   3.642  -3.716  0.00  0.00    +0.070 A 
ATOM      8  C   LIG    1        1.013   4.839  -4.232  0.00  0.00    +0.020 A 
ATOM      9  C   LIG    1        2.093   5.327  -3.373  0.00  0.00    -0.130 A 
ATOM     10  C   LIG    1        2.888   6.475  -3.366  0.00  0.00    +0.060 A 
ATOM     11  C   LIG    1        3.849   6.631  -2.392  0.00  0.00    +0.000 A 
ATOM     12  C   LIG    1        4.028   5.655  -1.423  0.00  0.00    +0.050 A 
ATOM     13  C   LIG    1        3.250   4.516  -1.419  0.00  0.00    +0.020 A 
ATOM     14  C   LIG    1        2.275   4.337  -2.390  0.00  0.00    +0.060 A 
ATOM     15  O   LIG    1        1.385   3.353  -2.635  0.00  0.00    -0.180 OA
ENDBRANCH   2   7
BRANCH   6  16
ATOM     16  C   LIG    1       -3.226  -0.908  -4.579  0.00  0.00    +0.080 A 
ATOM     17  C   LIG    1       -4.339  -0.160  -4.968  0.00  0.00    +0.010 A 
ATOM     18  C   LIG    1       -5.358  -0.762  -5.678  0.00  0.00    -0.050 A 
ATOM     19  C   LIG    1       -5.282  -2.110  -5.996  0.00  0.00    +0.120 A 
ATOM     20  C   LIG    1       -4.180  -2.859  -5.606  0.00  0.00    +0.010 A 
ATOM     21  C   LIG    1       -3.154  -2.265  -4.901  0.00  0.00    +0.070 A 
BRANCH  19  22
ATOM     22  O   LIG    1       -6.291  -2.700  -6.691  0.00  0.00    -0.320 OA
ATOM     23  C   LIG    1       -7.395  -1.872  -7.061  0.00  0.00    +0.250 C 
ENDBRANCH  19  22
ENDBRANCH   6  16
BRANCH   1  24
ATOM     24  C   LIG    1       -0.037   1.099  -2.490  0.00  0.00    +0.310 C 
BRANCH  24  25
ATOM     25  C   LIG    1       -0.753   1.593  -1.232  0.00  0.00    +0.000 C 
BRANCH  25  26
ATOM     26  C   LIG    1       -0.013   1.086   0.008  0.00  0.00    +0.020 C 
BRANCH  26  27
ATOM     27  C   LIG    1       -0.729   1.579   1.267  0.00  0.00    +0.000 C 
BRANCH  27  29
ATOM     28  C   LIG    1       -0.705   1.566   3.765  0.00  0.00    +0.000 C 
ATOM     29  C   LIG    1        0.011   1.072   2.506  0.00  0.00    +0.000 C 
ENDBRANCH  27  29
ENDBRANCH  26  27
ENDBRANCH  25  26
ENDBRANCH  24  25
ENDBRANCH   1  24
TORSDOF 8
