REMARK  Name = ZINCpk000000nQe2.0
REMARK                            x       y       z     vdW  Elec       q    Type
REMARK                         _______ _______ _______ _____ _____    ______ ____
ROOT
ATOM      1  C   LIG    1        1.361  -2.869   5.815  0.00  0.00    +0.240 A 
ATOM      2  N   LIG    1        1.157  -3.189   4.563  0.00  0.00    -0.440 NA
ATOM      3  C   LIG    1        1.395  -2.090   3.825  0.00  0.00    +0.150 A 
ATOM      4  N   LIG    1        1.731  -1.117   4.644  0.00  0.00    -0.270 NA
ATOM      5  N   LIG    1        1.716  -1.569   5.851  0.00  0.00    -0.250 N 
ENDROOT
BRANCH   5   6
ATOM      6  C   LIG    1        2.017  -0.833   7.005  0.00  0.00    +0.080 A 
ATOM      7  C   LIG    1        1.160  -0.868   8.096  0.00  0.00    +0.070 A 
ATOM      8  C   LIG    1        1.461  -0.146   9.235  0.00  0.00    +0.040 A 
ATOM      9  C   LIG    1        2.610   0.621   9.285  0.00  0.00    +0.080 A 
ATOM     10  C   LIG    1        3.466   0.664   8.199  0.00  0.00    +0.010 A 
ATOM     11  C   LIG    1        3.173  -0.061   7.059  0.00  0.00    +0.130 A 
ATOM     12  F   LIG    1        4.008  -0.019   5.997  0.00  0.00    -0.120 F 
ENDBRANCH   5   6
BRANCH   3  13
ATOM     13  C   LIG    1        1.292  -1.991   2.354  0.00  0.00    +0.620 C 
ATOM     14  N   LIG    1        1.554  -0.821   1.737  0.00  0.00    -0.710 N 
ATOM     15  H   LIG    1        1.810  -0.045   2.258  0.00  0.00    +0.410 HD
ATOM     16  O   LIG    1        0.970  -2.964   1.700  0.00  0.00    -0.500 OA
BRANCH  14  17
ATOM     17  C   LIG    1        1.451  -0.723   0.279  0.00  0.00    +0.270 C 
ATOM     18  C   LIG    1        0.002  -0.397  -0.153  0.00  0.00    +0.060 C 
ATOM     19  C   LIG    1       -0.021   1.112  -0.263  0.00  0.00    +0.520 C 
ATOM     20  N   LIG    1        1.234   1.592  -0.309  0.00  0.00    -0.630 N 
ATOM     21  C   LIG    1        1.572   3.014  -0.407  0.00  0.00    +0.290 C 
ATOM     22  O   LIG    1       -1.026   1.790  -0.308  0.00  0.00    -0.530 OA
ATOM     23  C   LIG    1        2.221   0.508  -0.248  0.00  0.00    +0.290 C 
ENDBRANCH  14  17
ENDBRANCH   3  13
BRANCH   1  25
ATOM     24  C   LIG    1       -0.182  -4.400   7.008  0.00  0.00    +0.060 C 
ATOM     25  C   LIG    1        1.219  -3.786   7.003  0.00  0.00    +0.070 C 
ATOM     26  C   LIG    1        2.264  -4.900   6.915  0.00  0.00    +0.060 C 
ENDBRANCH   1  25
TORSDOF 4
