REMARK  Name = ZINCrD000000fuVT.0
REMARK                            x       y       z     vdW  Elec       q    Type
REMARK                         _______ _______ _______ _____ _____    ______ ____
ROOT
ATOM      1  N   LIG    1       -1.318  -1.700  -1.126  0.00  0.00    -0.510 N 
ATOM      2  C   LIG    1       -0.833  -2.949  -0.986  0.00  0.00    +0.560 A 
ATOM      3  C   LIG    1       -0.868  -3.831  -2.104  0.00  0.00    -0.230 A 
ATOM      4  C   LIG    1       -1.405  -3.357  -3.296  0.00  0.00    +0.090 A 
ATOM      5  S   LIG    1       -1.341  -4.614  -4.524  0.00  0.00    +0.230 S 
ATOM      6  C   LIG    1       -0.597  -5.756  -3.421  0.00  0.00    -0.020 A 
ATOM      7  N   LIG    1       -1.870  -2.093  -3.361  0.00  0.00    -0.510 NA
ATOM      8  C   LIG    1       -0.415  -5.214  -2.216  0.00  0.00    +0.040 A 
ATOM      9  O   LIG    1       -0.372  -3.318   0.081  0.00  0.00    -0.500 OA
ATOM     10  C   LIG    1       -1.837  -1.294  -2.321  0.00  0.00    +0.380 A 
ENDROOT
BRANCH   8  11
ATOM     11  C   LIG    1        0.194  -5.951  -1.091  0.00  0.00    +0.040 A 
ATOM     12  C   LIG    1       -0.172  -7.187  -0.655  0.00  0.00    -0.040 A 
ATOM     13  C   LIG    1        0.670  -7.500   0.431  0.00  0.00    -0.070 A 
ATOM     14  C   LIG    1        1.493  -6.449   0.609  0.00  0.00    +0.170 A 
ATOM     15  O   LIG    1        1.202  -5.514  -0.313  0.00  0.00    -0.150 OA
ENDBRANCH   8  11
BRANCH   1  16
ATOM     16  C   LIG    1       -1.293  -0.775   0.010  0.00  0.00    +0.340 C 
BRANCH  16  18
ATOM     17  C   LIG    1       -0.016   1.306   0.009  0.00  0.00    +0.060 C 
ATOM     18  C   LIG    1        0.002  -0.004   0.002  0.00  0.00    -0.060 C 
ENDBRANCH  16  18
ENDBRANCH   1  16
BRANCH  10  19
ATOM     19  S   LIG    1       -2.470   0.343  -2.473  0.00  0.00    +0.020 S 
BRANCH  19  20
ATOM     20  C   LIG    1       -3.002   0.315  -4.203  0.00  0.00    +0.100 C 
BRANCH  20  21
ATOM     21  C   LIG    1       -3.603   1.672  -4.574  0.00  0.00    +0.210 C 
BRANCH  21  22
ATOM     22  N   LIG    1       -4.035   1.649  -5.978  0.00  0.00    -0.530 NA
ATOM     23  C   LIG    1       -2.881   1.527  -6.882  0.00  0.00    +0.150 C 
ATOM     24  C   LIG    1       -3.379   1.447  -8.327  0.00  0.00    +0.220 C 
ATOM     25  O   LIG    1       -4.173   2.600  -8.617  0.00  0.00    -0.380 OA
ATOM     26  C   LIG    1       -5.306   2.750  -7.756  0.00  0.00    +0.220 C 
ATOM     27  C   LIG    1       -4.828   2.843  -6.305  0.00  0.00    +0.160 C 
ENDBRANCH  21  22
ENDBRANCH  20  21
ENDBRANCH  19  20
ENDBRANCH  10  19
TORSDOF 7
