REMARK  Name = ZINCtV000002PTbE.0
REMARK                            x       y       z     vdW  Elec       q    Type
REMARK                         _______ _______ _______ _____ _____    ______ ____
ROOT
ATOM      1  N   LIG    1       -0.017   1.363   0.009  0.00  0.00    -0.450 N 
ATOM      2  C   LIG    1        0.002  -0.004   0.002  0.00  0.00    +0.170 A 
ATOM      3  N   LIG    1        1.262  -0.377  -0.012  0.00  0.00    -0.280 NA
ATOM      4  N   LIG    1        2.029   0.654  -0.014  0.00  0.00    -0.250 NA
ATOM      5  C   LIG    1        1.305   1.752  -0.001  0.00  0.00    +0.260 A 
ENDROOT
BRANCH   5   6
ATOM      6  C   LIG    1        1.811   3.133   0.001  0.00  0.00    +0.040 A 
ATOM      7  C   LIG    1        3.087   3.518   0.282  0.00  0.00    +0.030 A 
ATOM      8  C   LIG    1        3.123   4.921   0.164  0.00  0.00    -0.050 A 
ATOM      9  C   LIG    1        1.881   5.322  -0.171  0.00  0.00    +0.190 A 
ATOM     10  O   LIG    1        1.090   4.240  -0.268  0.00  0.00    -0.180 OA
ENDBRANCH   5   6
BRANCH   1  11
ATOM     11  C   LIG    1       -1.195   2.232   0.020  0.00  0.00    +0.370 C 
BRANCH  11  15
ATOM     12  C   LIG    1       -2.321   3.057   4.058  0.00  0.00    +0.030 A 
ATOM     13  C   LIG    1       -1.428   3.887   3.405  0.00  0.00    +0.010 A 
ATOM     14  C   LIG    1       -1.064   3.620   2.099  0.00  0.00    +0.030 A 
ATOM     15  C   LIG    1       -1.592   2.523   1.445  0.00  0.00    -0.120 A 
ATOM     16  C   LIG    1       -2.489   1.696   2.095  0.00  0.00    +0.040 A 
ATOM     17  C   LIG    1       -2.849   1.960   3.403  0.00  0.00    +0.010 A 
ENDBRANCH  11  15
ENDBRANCH   1  11
BRANCH   2  18
ATOM     18  S   LIG    1       -1.403  -1.068   0.010  0.00  0.00    +0.030 S 
BRANCH  18  19
ATOM     19  C   LIG    1       -0.577  -2.679  -0.007  0.00  0.00    +0.210 C 
BRANCH  19  20
ATOM     20  C   LIG    1       -1.612  -3.774  -0.003  0.00  0.00    +0.080 A 
ATOM     21  C   LIG    1       -2.085  -4.299   1.131  0.00  0.00    -0.040 A 
ATOM     22  S   LIG    1       -3.269  -5.537   0.716  0.00  0.00    +0.130 S 
ATOM     23  C   LIG    1       -2.993  -5.220  -0.995  0.00  0.00    +0.150 A 
ATOM     24  N   LIG    1       -2.102  -4.275  -1.114  0.00  0.00    -0.450 NA
BRANCH  23  25
ATOM     25  C   LIG    1       -3.661  -5.910  -2.110  0.00  0.00    -0.140 A 
ATOM     26  C   LIG    1       -4.580  -6.892  -1.981  0.00  0.00    +0.040 A 
ATOM     27  C   LIG    1       -5.067  -7.383  -3.173  0.00  0.00    +0.010 A 
ATOM     28  C   LIG    1       -4.551  -6.822  -4.271  0.00  0.00    -0.040 A 
ATOM     29  S   LIG    1       -3.381  -5.590  -3.816  0.00  0.00    +0.190 S 
ENDBRANCH  23  25
ENDBRANCH  19  20
ENDBRANCH  18  19
ENDBRANCH   2  18
TORSDOF 7
