REMARK  Name = ZINCpe00000gLMUD.0
REMARK                            x       y       z     vdW  Elec       q    Type
REMARK                         _______ _______ _______ _____ _____    ______ ____
ROOT
ATOM      1  N   LIG    1        0.224   6.179   1.782  0.00  0.00    -1.090 NA
ATOM      2  H   LIG    1       -0.262   6.739   2.407  0.00  0.00    +0.430 HD
ENDROOT
BRANCH   1   3
ATOM      3  S   LIG    1       -0.594   5.357   0.600  0.00  0.00    +2.700 S 
ATOM      4  O   LIG    1       -1.962   5.716   0.734  0.00  0.00    -0.950 OA
ATOM      5  O   LIG    1        0.143   5.541  -0.601  0.00  0.00    -0.930 OA
BRANCH   3   6
ATOM      6  C   LIG    1       -0.489   3.642   0.990  0.00  0.00    -0.640 A 
ATOM      7  C   LIG    1       -1.588   2.974   1.418  0.00  0.00    +0.210 A 
ATOM      8  C   LIG    1       -1.543   1.615   1.728  0.00  0.00    +0.020 A 
ATOM      9  C   LIG    1       -0.395   0.902   1.629  0.00  0.00    +0.150 A 
ATOM     10  C   LIG    1        0.794   1.536   1.188  0.00  0.00    +0.060 A 
ATOM     11  N   LIG    1        2.016   1.060   1.007  0.00  0.00    -0.580 NA
ATOM     12  S   LIG    1        2.946   2.201   0.506  0.00  0.00    +0.830 S 
ATOM     13  N   LIG    1        1.936   3.383   0.465  0.00  0.00    -0.610 NA
ATOM     14  C   LIG    1        0.745   2.958   0.856  0.00  0.00    +0.150 A 
ENDBRANCH   3   6
ENDBRANCH   1   3
BRANCH   1  15
ATOM     15  C   LIG    1        1.680   6.061   1.882  0.00  0.00    +0.270 C 
BRANCH  15  16
ATOM     16  C   LIG    1        2.050   5.555   3.253  0.00  0.00    +0.510 C 
ATOM     17  N   LIG    1        3.234   4.942   3.449  0.00  0.00    -0.620 N 
ATOM     18  C   LIG    1        4.220   4.834   2.362  0.00  0.00    +0.230 C 
ATOM     19  C   LIG    1        5.574   5.329   2.893  0.00  0.00    +0.220 C 
ATOM     20  O   LIG    1        5.886   4.635   4.103  0.00  0.00    -0.370 OA
ATOM     21  C   LIG    1        4.960   4.869   5.167  0.00  0.00    +0.220 C 
ATOM     22  C   LIG    1        3.576   4.355   4.754  0.00  0.00    +0.240 C 
ATOM     23  O   LIG    1        1.281   5.700   4.180  0.00  0.00    -0.520 OA
ENDBRANCH  15  16
BRANCH  15  25
ATOM     24  C   LIG    1        2.051   7.889   0.220  0.00  0.00    +0.040 C 
ATOM     25  C   LIG    1        2.320   7.432   1.655  0.00  0.00    -0.020 C 
ATOM     26  C   LIG    1        1.720   8.443   2.634  0.00  0.00    +0.030 C 
ENDBRANCH  15  25
ENDBRANCH   1  15
TORSDOF 5
