REMARK  Name = ZINCtV00000L6jLR.0
REMARK                            x       y       z     vdW  Elec       q    Type
REMARK                         _______ _______ _______ _____ _____    ______ ____
ROOT
ATOM      1  O   LIG    1        1.549  -0.200  -2.003  0.00  0.00    -1.010 OA
ATOM      2  P   LIG    1        2.738   0.480  -1.443  0.00  0.00    +2.410 P 
ENDROOT
BRANCH   2   3
ATOM      3  N   LIG    1        3.222   1.666  -2.467  0.00  0.00    -1.090 N 
ATOM      4  H   LIG    1        2.737   1.822  -3.293  0.00  0.00    +0.430 HD
BRANCH   3   5
ATOM      5  C   LIG    1        4.333   2.452  -2.151  0.00  0.00    +0.170 A 
ATOM      6  C   LIG    1        5.025   2.234  -0.967  0.00  0.00    -0.040 A 
ATOM      7  C   LIG    1        6.125   3.010  -0.659  0.00  0.00    +0.090 A 
ATOM      8  C   LIG    1        6.532   4.009  -1.524  0.00  0.00    +0.050 A 
ATOM      9  C   LIG    1        5.842   4.232  -2.701  0.00  0.00    -0.140 A 
ATOM     10  C   LIG    1        4.744   3.457  -3.017  0.00  0.00    +0.040 A 
BRANCH   9  11
ATOM     11  C   LIG    1        6.289   5.323  -3.641  0.00  0.00    +0.510 C 
ATOM     12  F   LIG    1        5.967   4.967  -4.955  0.00  0.00    -0.170 F 
ATOM     13  F   LIG    1        7.673   5.495  -3.530  0.00  0.00    -0.170 F 
ATOM     14  F   LIG    1        5.643   6.518  -3.309  0.00  0.00    -0.170 F 
ENDBRANCH   9  11
ENDBRANCH   3   5
ENDBRANCH   2   3
BRANCH   2  15
ATOM     15  O   LIG    1        3.929  -0.587  -1.257  0.00  0.00    -0.630 OA
BRANCH  15  16
ATOM     16  C   LIG    1        4.173  -1.341  -2.361  0.00  0.00    +0.060 A 
ATOM     17  C   LIG    1        4.836  -0.790  -3.446  0.00  0.00    +0.010 A 
ATOM     18  C   LIG    1        5.084  -1.558  -4.568  0.00  0.00    +0.040 A 
ATOM     19  C   LIG    1        4.671  -2.877  -4.609  0.00  0.00    +0.070 A 
ATOM     20  C   LIG    1        4.009  -3.431  -3.529  0.00  0.00    +0.020 A 
ATOM     21  C   LIG    1        3.764  -2.669  -2.402  0.00  0.00    +0.110 A 
ATOM     22  F   LIG    1        3.123  -3.212  -1.344  0.00  0.00    -0.120 F 
ENDBRANCH  15  16
ENDBRANCH   2  15
BRANCH   2  23
ATOM     23  O   LIG    1        2.365   1.123  -0.015  0.00  0.00    -0.630 OA
BRANCH  23  24
ATOM     24  C   LIG    1        1.178   1.786   0.000  0.00  0.00    +0.050 A 
ATOM     25  C   LIG    1       -0.013   1.076   0.008  0.00  0.00    +0.070 A 
ATOM     26  C   LIG    1       -1.219   1.751   0.017  0.00  0.00    +0.040 A 
ATOM     27  C   LIG    1       -1.239   3.133   0.031  0.00  0.00    +0.060 A 
ATOM     28  C   LIG    1       -0.054   3.845   0.023  0.00  0.00    +0.010 A 
ATOM     29  C   LIG    1        1.156   3.175   0.008  0.00  0.00    +0.090 A 
ATOM     30  F   LIG    1        2.314   3.870   0.001  0.00  0.00    -0.130 F 
ENDBRANCH  23  24
ENDBRANCH   2  23
TORSDOF 7
