REMARK  Name = ZINCvU0000000Ik4.0
REMARK                            x       y       z     vdW  Elec       q    Type
REMARK                         _______ _______ _______ _____ _____    ______ ____
ROOT
ATOM      1  C   LIG    1        8.252  -0.786  -0.835  0.00  0.00    +0.100 C 
ATOM      2  C   LIG    1        6.757  -0.816  -0.650  0.00  0.00    -0.110 A 
ATOM      3  C   LIG    1        6.062  -2.007  -0.810  0.00  0.00    +0.080 A 
ATOM      4  C   LIG    1        4.696  -2.055  -0.643  0.00  0.00    +0.020 A 
ATOM      5  C   LIG    1        3.989  -0.900  -0.309  0.00  0.00    +0.130 A 
ATOM      6  O   LIG    1        2.649  -0.977  -0.144  0.00  0.00    -0.180 OA
ATOM      7  C   LIG    1        1.923   0.155  -0.057  0.00  0.00    +0.090 A 
ATOM      8  C   LIG    1        2.493   1.386   0.105  0.00  0.00    -0.250 A 
ATOM      9  C   LIG    1        1.391   2.393   0.170  0.00  0.00    +0.350 C 
ATOM     10  N   LIG    1        0.141   1.629   0.026  0.00  0.00    -0.590 N 
ATOM     11  C   LIG    1        3.949   1.540   0.185  0.00  0.00    +0.460 A 
ATOM     12  O   LIG    1        4.493   2.584   0.499  0.00  0.00    -0.430 OA
ATOM     13  C   LIG    1        0.460   0.326  -0.106  0.00  0.00    +0.570 C 
ATOM     14  O   LIG    1       -0.342  -0.576  -0.245  0.00  0.00    -0.470 OA
ATOM     15  C   LIG    1        4.697   0.303  -0.154  0.00  0.00    -0.210 A 
ATOM     16  C   LIG    1        6.081   0.339  -0.323  0.00  0.00    +0.110 A 
ENDROOT
BRANCH   9  17
ATOM     17  C   LIG    1        1.528   3.385  -0.957  0.00  0.00    -0.110 A 
ATOM     18  C   LIG    1        1.166   3.024  -2.241  0.00  0.00    +0.040 A 
ATOM     19  C   LIG    1        1.285   3.933  -3.275  0.00  0.00    -0.010 A 
ATOM     20  C   LIG    1        1.778   5.205  -3.024  0.00  0.00    +0.120 A 
ATOM     21  C   LIG    1        2.146   5.563  -1.735  0.00  0.00    -0.010 A 
ATOM     22  C   LIG    1        2.020   4.652  -0.704  0.00  0.00    +0.060 A 
BRANCH  20  23
ATOM     23  O   LIG    1        1.901   6.100  -4.040  0.00  0.00    -0.500 OA
ATOM     24  H   LIG    1        2.757   6.071  -4.488  0.00  0.00    +0.390 HD
ENDBRANCH  20  23
ENDBRANCH   9  17
BRANCH  10  25
ATOM     25  C   LIG    1       -1.213   2.189   0.020  0.00  0.00    +0.390 C 
BRANCH  25  26
ATOM     26  C   LIG    1       -1.688   2.370   1.439  0.00  0.00    -0.110 A 
ATOM     27  C   LIG    1       -1.569   3.600   2.056  0.00  0.00    +0.040 A 
ATOM     28  C   LIG    1       -2.004   3.766   3.358  0.00  0.00    +0.010 A 
ATOM     29  C   LIG    1       -2.559   2.702   4.043  0.00  0.00    +0.030 A 
ATOM     30  C   LIG    1       -2.678   1.470   3.426  0.00  0.00    +0.020 A 
ATOM     31  C   LIG    1       -2.249   1.305   2.122  0.00  0.00    -0.020 A 
ATOM     32 CL   LIG    1       -2.406  -0.239   1.344  0.00  0.00    -0.040 Cl
ENDBRANCH  25  26
ENDBRANCH  10  25
TORSDOF 4
