REMARK  Name = ZINCqH00000360Rn.1
REMARK                            x       y       z     vdW  Elec       q    Type
REMARK                         _______ _______ _______ _____ _____    ______ ____
ROOT
ATOM      1  N   LIG    1       -1.241   2.075   0.019  0.00  0.00    -0.660 N 
ATOM      2  H   LIG    1       -2.074   1.581  -0.045  0.00  0.00    +0.410 HD
ATOM      3  C   LIG    1       -1.260   3.418   0.128  0.00  0.00    +0.510 C 
ATOM      4  O   LIG    1       -0.220   4.041   0.127  0.00  0.00    -0.510 OA
ENDROOT
BRANCH   1   8
ATOM      5  C   LIG    1        2.400   0.033  -0.053  0.00  0.00    +0.160 A 
ATOM      6  C   LIG    1        2.295   1.288  -0.634  0.00  0.00    -0.100 A 
ATOM      7  C   LIG    1        1.090   1.965  -0.608  0.00  0.00    +0.110 A 
ATOM      8  C   LIG    1       -0.016   1.390  -0.002  0.00  0.00    +0.080 A 
ATOM      9  C   LIG    1        0.087   0.129   0.582  0.00  0.00    +0.140 A 
ATOM     10  C   LIG    1        1.296  -0.546   0.555  0.00  0.00    -0.090 A 
BRANCH   5  12
ATOM     11  C   LIG    1        4.682   0.025  -0.723  0.00  0.00    +0.250 C 
ATOM     12  O   LIG    1        3.586  -0.631  -0.080  0.00  0.00    -0.320 OA
ENDBRANCH   5  12
BRANCH   9  13
ATOM     13  O   LIG    1       -0.996  -0.437   1.177  0.00  0.00    -0.310 OA
ATOM     14  C   LIG    1       -0.816  -1.732   1.755  0.00  0.00    +0.250 C 
ENDBRANCH   9  13
ENDBRANCH   1   8
BRANCH   3  15
ATOM     15  C   LIG    1       -2.574   4.145   0.252  0.00  0.00    +0.220 C 
BRANCH  15  16
ATOM     16  N   LIG    1       -2.327   5.589   0.356  0.00  0.00    -0.670 NA
ATOM     17  H   LIG    1       -1.786   5.921  -0.429  0.00  0.00    +0.350 HD
BRANCH  16  18
ATOM     18  C   LIG    1       -3.588   6.332   0.478  0.00  0.00    +0.190 C 
ATOM     19  C   LIG    1       -4.019   6.367   1.946  0.00  0.00    +0.050 C 
BRANCH  18  20
ATOM     20  C   LIG    1       -3.392   7.740  -0.021  0.00  0.00    -0.130 A 
ATOM     21  C   LIG    1       -2.226   8.422   0.276  0.00  0.00    +0.100 A 
ATOM     22  C   LIG    1       -2.042   9.712  -0.185  0.00  0.00    -0.060 A 
ATOM     23  C   LIG    1       -3.032  10.327  -0.937  0.00  0.00    +0.160 A 
ATOM     24  C   LIG    1       -4.204   9.643  -1.229  0.00  0.00    -0.130 A 
ATOM     25 BR   LIG    1       -5.556  10.477  -2.254  0.00  0.00    -0.040 Br
ATOM     26  C   LIG    1       -4.381   8.351  -0.770  0.00  0.00    +0.100 A 
BRANCH  23  27
ATOM     27  O   LIG    1       -2.854  11.597  -1.387  0.00  0.00    -0.300 OA
ATOM     28  C   LIG    1       -1.624  12.239  -1.048  0.00  0.00    +0.240 C 
ENDBRANCH  23  27
ENDBRANCH  18  20
ENDBRANCH  16  18
ENDBRANCH  15  16
ENDBRANCH   3  15
TORSDOF 8
