REMARK  Name = ZINCrg00000BBl8I.0
REMARK                            x       y       z     vdW  Elec       q    Type
REMARK                         _______ _______ _______ _____ _____    ______ ____
ROOT
ATOM      1  C   LIG    1        3.436   1.751  -4.080  0.00  0.00    +0.250 C 
ATOM      2  C   LIG    1        4.538   0.890  -4.725  0.00  0.00    +0.030 C 
ATOM      3  C   LIG    1        5.508   2.054  -4.450  0.00  0.00    +0.060 C 
ATOM      4  C   LIG    1        4.279   2.966  -4.465  0.00  0.00    -0.130 C 
ATOM      5  C   LIG    1        4.234   4.256  -3.644  0.00  0.00    +0.300 C 
ATOM      6  N   LIG    1        4.495   4.950  -4.922  0.00  0.00    -0.640 N 
ATOM      7  C   LIG    1        5.032   6.140  -5.256  0.00  0.00    +0.580 C 
ATOM      8  O   LIG    1        5.212   6.419  -6.426  0.00  0.00    -0.500 OA
ATOM      9  C   LIG    1        3.934   3.817  -5.688  0.00  0.00    +0.330 C 
ENDROOT
BRANCH   7  10
ATOM     10  C   LIG    1        5.402   7.107  -4.201  0.00  0.00    -0.150 A 
ATOM     11  C   LIG    1        4.771   7.074  -2.957  0.00  0.00    +0.300 A 
ATOM     12  N   LIG    1        5.103   7.933  -2.015  0.00  0.00    -0.470 NA
ATOM     13  C   LIG    1        6.027   8.854  -2.206  0.00  0.00    +0.300 A 
ATOM     14  C   LIG    1        6.695   8.956  -3.414  0.00  0.00    +0.010 A 
ATOM     15  C   LIG    1        6.386   8.075  -4.435  0.00  0.00    -0.080 A 
BRANCH  15  16
ATOM     16  C   LIG    1        7.091   8.154  -5.764  0.00  0.00    +0.440 C 
ATOM     17  F   LIG    1        6.154   8.390  -6.776  0.00  0.00    -0.170 F 
ATOM     18  F   LIG    1        7.753   6.947  -6.014  0.00  0.00    -0.190 F 
ENDBRANCH  15  16
ENDBRANCH   7  10
BRANCH   1  20
ATOM     19  C   LIG    1        2.267   0.863  -2.136  0.00  0.00    +0.500 C 
ATOM     20  N   LIG    1        3.309   1.557  -2.634  0.00  0.00    -0.710 N 
ATOM     21  H   LIG    1        3.975   1.929  -2.034  0.00  0.00    +0.400 HD
ATOM     22  O   LIG    1        1.434   0.399  -2.885  0.00  0.00    -0.520 OA
BRANCH  19  27
ATOM     23  O   LIG    1       -0.930  -0.715   0.294  0.00  0.00    -0.520 OA
ATOM     24  C   LIG    1        0.012  -0.006   0.009  0.00  0.00    +0.530 C 
ATOM     25  C   LIG    1       -0.007   1.506   0.019  0.00  0.00    +0.060 C 
ATOM     26  C   LIG    1        1.487   1.905   0.003  0.00  0.00    +0.080 C 
ATOM     27  C   LIG    1        2.136   0.663  -0.648  0.00  0.00    +0.230 C 
ATOM     28  N   LIG    1        1.225  -0.451  -0.363  0.00  0.00    -0.710 N 
ATOM     29  H   LIG    1        1.466  -1.388  -0.433  0.00  0.00    +0.420 HD
ENDBRANCH  19  27
ENDBRANCH   1  20
TORSDOF 4
