REMARK  Name = ZINCri00001RJwxY.0
REMARK                            x       y       z     vdW  Elec       q    Type
REMARK                         _______ _______ _______ _____ _____    ______ ____
ROOT
ATOM      1  S   LIG    1        0.348   1.314  -0.283  0.00  0.00    +2.690 S 
ATOM      2  O   LIG    1        0.951   2.598  -0.208  0.00  0.00    -0.900 OA
ATOM      3  O   LIG    1        1.082   0.124  -0.536  0.00  0.00    -0.970 OA
ENDROOT
BRANCH   1  13
ATOM      4  C   LIG    1       -1.176   2.706  -2.051  0.00  0.00    +0.140 C 
ATOM      5  C   LIG    1       -2.626   3.043  -1.677  0.00  0.00    +0.100 C 
ATOM      6  C   LIG    1       -3.478   1.818  -1.899  0.00  0.00    -0.200 A 
ATOM      7  C   LIG    1       -4.818   1.749  -2.015  0.00  0.00    +0.200 A 
ATOM      8  N   LIG    1       -5.147   0.451  -2.202  0.00  0.00    -0.500 N 
ATOM      9  H   LIG    1       -6.045   0.101  -2.316  0.00  0.00    +0.430 HD
ATOM     10  N   LIG    1       -3.963  -0.301  -2.201  0.00  0.00    -0.290 NA
ATOM     11  C   LIG    1       -2.967   0.515  -2.022  0.00  0.00    +0.090 A 
ATOM     12  C   LIG    1       -1.488   0.195  -1.952  0.00  0.00    +0.390 C 
ATOM     13  N   LIG    1       -0.809   1.409  -1.464  0.00  0.00    -0.970 NA
BRANCH   4  15
ATOM     14  O   LIG    1        0.823   3.969  -2.047  0.00  0.00    -0.690 OA
ATOM     15  C   LIG    1       -0.259   3.776  -1.519  0.00  0.00    +0.510 C 
ATOM     16  O   LIG    1       -0.598   4.449  -0.560  0.00  0.00    -0.670 OA
ENDBRANCH   4  15
ENDBRANCH   1  13
BRANCH   1  17
ATOM     17  C   LIG    1       -0.488   1.067   1.248  0.00  0.00    -0.820 A 
ATOM     18  C   LIG    1       -0.940  -0.196   1.596  0.00  0.00    +0.360 A 
ATOM     19  C   LIG    1       -1.598  -0.389   2.803  0.00  0.00    -0.180 A 
ATOM     20  C   LIG    1       -1.803   0.678   3.657  0.00  0.00    +0.090 A 
ATOM     21  C   LIG    1       -1.353   1.938   3.312  0.00  0.00    -0.240 A 
ATOM     22  O   LIG    1       -0.740  -1.246   0.756  0.00  0.00    -0.680 OA
ATOM     23  C   LIG    1       -0.689   2.135   2.109  0.00  0.00    +0.250 A 
BRANCH  23  24
ATOM     24  O   LIG    1       -0.242   3.373   1.773  0.00  0.00    -0.240 OA
BRANCH  24  25
ATOM     25  C   LIG    1       -0.485   4.426   2.709  0.00  0.00    +0.600 C 
ATOM     26  F   LIG    1       -1.862   4.565   2.908  0.00  0.00    -0.180 F 
ATOM     27  F   LIG    1        0.037   5.624   2.208  0.00  0.00    -0.130 F 
ATOM     28  F   LIG    1        0.134   4.120   3.926  0.00  0.00    -0.190 F 
ENDBRANCH  24  25
ENDBRANCH  23  24
ENDBRANCH   1  17
TORSDOF 5
