REMARK  Name = ZINCrg000000r5OK.0
REMARK                            x       y       z     vdW  Elec       q    Type
REMARK                         _______ _______ _______ _____ _____    ______ ____
ROOT
ATOM      1  S   LIG    1       -2.481  -0.272   2.082  0.00  0.00    +2.720 S 
ATOM      2  O   LIG    1       -3.849   0.080   2.241  0.00  0.00    -0.960 OA
ATOM      3  O   LIG    1       -1.531  -0.198   3.136  0.00  0.00    -0.950 OA
ENDROOT
BRANCH   1   9
ATOM      4  C   LIG    1       -2.768   1.096  -0.248  0.00  0.00    +0.250 C 
ATOM      5  C   LIG    1       -2.110   0.704  -1.575  0.00  0.00    +0.020 C 
ATOM      6  C   LIG    1       -0.697   1.290  -1.631  0.00  0.00    +0.020 C 
ATOM      7  C   LIG    1        0.142   0.715  -0.488  0.00  0.00    +0.010 C 
ATOM      8  C   LIG    1       -0.490   1.107   0.852  0.00  0.00    +0.300 C 
ATOM      9  N   LIG    1       -1.895   0.674   0.856  0.00  0.00    -0.990 NA
BRANCH   4  10
ATOM     10  C   LIG    1       -4.125   0.400  -0.123  0.00  0.00    +0.260 C 
BRANCH  10  11
ATOM     11  N   LIG    1       -4.931   0.685  -1.312  0.00  0.00    -1.110 NA
ATOM     12  H   LIG    1       -4.710   1.441  -1.878  0.00  0.00    +0.420 HD
BRANCH  11  14
ATOM     13  C   LIG    1       -7.389  -0.034  -0.325  0.00  0.00    -0.290 C 
ATOM     14  S   LIG    1       -6.220  -0.283  -1.690  0.00  0.00    +2.610 S 
ATOM     15  O   LIG    1       -5.690  -1.601  -1.659  0.00  0.00    -0.960 OA
ATOM     16  O   LIG    1       -6.734   0.272  -2.894  0.00  0.00    -0.950 OA
ENDBRANCH  11  14
ENDBRANCH  10  11
ENDBRANCH   4  10
ENDBRANCH   1   9
BRANCH   1  17
ATOM     17  C   LIG    1       -2.461  -1.939   1.510  0.00  0.00    -0.830 A 
ATOM     18  C   LIG    1       -3.468  -2.571   0.865  0.00  0.00    +0.370 A 
ATOM     19  N   LIG    1       -3.059  -3.829   0.596  0.00  0.00    -0.340 N 
ATOM     20  N   LIG    1       -1.760  -3.977   1.100  0.00  0.00    -0.280 NA
ATOM     21  C   LIG    1       -1.403  -2.843   1.648  0.00  0.00    +0.330 A 
BRANCH  19  22
ATOM     22  C   LIG    1       -3.837  -4.859  -0.096  0.00  0.00    +0.380 C 
BRANCH  22  23
ATOM     23  C   LIG    1       -3.049  -5.381  -1.270  0.00  0.00    -0.120 A 
ATOM     24  C   LIG    1       -3.179  -4.785  -2.510  0.00  0.00    +0.030 A 
ATOM     25  C   LIG    1       -2.453  -5.260  -3.586  0.00  0.00    +0.000 A 
ATOM     26  C   LIG    1       -1.603  -6.338  -3.423  0.00  0.00    +0.010 A 
ATOM     27  C   LIG    1       -1.476  -6.937  -2.184  0.00  0.00    +0.000 A 
ATOM     28  C   LIG    1       -2.199  -6.459  -1.108  0.00  0.00    +0.040 A 
ENDBRANCH  22  23
ENDBRANCH  19  22
ENDBRANCH   1  17
TORSDOF 7
