REMARK  Name = ZINCrH00000tj1i1.0
REMARK                            x       y       z     vdW  Elec       q    Type
REMARK                         _______ _______ _______ _____ _____    ______ ____
ROOT
ATOM      1  C   LIG    1       -0.013   1.086   0.008  0.00  0.00    +0.280 C 
ATOM      2  C   LIG    1        1.427   1.601  -0.003  0.00  0.00    +0.140 C 
ATOM      3  S   LIG    1        1.529   2.609  -1.513  0.00  0.00    +0.060 S 
ATOM      4  C   LIG    1       -0.142   2.349  -2.026  0.00  0.00    +0.170 A 
ATOM      5  N   LIG    1       -0.994   2.665  -2.983  0.00  0.00    -0.240 NA
ATOM      6  N   LIG    1       -2.130   2.115  -2.751  0.00  0.00    -0.240 NA
ATOM      7  C   LIG    1       -2.071   1.422  -1.642  0.00  0.00    +0.240 A 
ATOM      8  N   LIG    1       -0.779   1.554  -1.139  0.00  0.00    -0.490 N 
ENDROOT
BRANCH   7   9
ATOM      9  C   LIG    1       -3.172   0.644  -1.036  0.00  0.00    +0.030 A 
ATOM     10  C   LIG    1       -2.918  -0.303  -0.036  0.00  0.00    -0.040 A 
ATOM     11  C   LIG    1       -3.976  -1.002   0.506  0.00  0.00    +0.270 A 
ATOM     12  N   LIG    1       -5.211  -0.796   0.086  0.00  0.00    -0.470 NA
ATOM     13  C   LIG    1       -5.493   0.082  -0.857  0.00  0.00    +0.280 A 
ATOM     14  C   LIG    1       -4.497   0.829  -1.450  0.00  0.00    +0.020 A 
ENDBRANCH   7   9
BRANCH   1  15
ATOM     15  C   LIG    1       -0.700   1.564   1.288  0.00  0.00    +0.080 C 
BRANCH  15  16
ATOM     16  S   LIG    1        0.113   0.820   2.724  0.00  0.00    +0.110 S 
BRANCH  16  20
ATOM     17  C   LIG    1       -1.641   2.040   5.963  0.00  0.00    +0.270 A 
ATOM     18  N   LIG    1       -2.332   2.655   5.034  0.00  0.00    -0.270 NA
ATOM     19  N   LIG    1       -1.863   2.346   3.877  0.00  0.00    -0.270 NA
ATOM     20  C   LIG    1       -0.853   1.522   4.020  0.00  0.00    +0.120 A 
ATOM     21  O   LIG    1       -0.693   1.305   5.340  0.00  0.00    -0.200 OA
BRANCH  17  24
ATOM     22  C   LIG    1       -3.839   3.745   7.408  0.00  0.00    +0.210 C 
ATOM     23  C   LIG    1       -2.809   2.863   8.066  0.00  0.00    +0.090 A 
ATOM     24  C   LIG    1       -1.862   2.129   7.421  0.00  0.00    -0.150 A 
ATOM     25  C   LIG    1       -1.100   1.449   8.477  0.00  0.00    -0.020 A 
ATOM     26  C   LIG    1       -1.656   1.829   9.639  0.00  0.00    +0.200 A 
ATOM     27  O   LIG    1       -2.673   2.667   9.385  0.00  0.00    -0.170 OA
ENDBRANCH  17  24
ENDBRANCH  16  20
ENDBRANCH  15  16
ENDBRANCH   1  15
TORSDOF 5
