REMARK  Name = ZINCtV00000L6jBR.0
REMARK                            x       y       z     vdW  Elec       q    Type
REMARK                         _______ _______ _______ _____ _____    ______ ____
ROOT
ATOM      1  S   LIG    1       -3.495   7.677   0.408  0.00  0.00    +0.120 S 
ENDROOT
BRANCH   1   2
ATOM      2  C   LIG    1       -5.119   8.347   0.550  0.00  0.00    +0.000 A 
ATOM      3  N   LIG    1       -6.218   7.659   0.549  0.00  0.00    -0.280 NA
ATOM      4  N   LIG    1       -7.378   8.390   0.677  0.00  0.00    -0.280 NA
ATOM      5  C   LIG    1       -7.224   9.674   0.770  0.00  0.00    +0.020 A 
ATOM      6  S   LIG    1       -5.507  10.057   0.707  0.00  0.00    +0.160 S 
BRANCH   5   7
ATOM      7  S   LIG    1       -8.527  10.849   0.935  0.00  0.00    +0.050 S 
BRANCH   7   8
ATOM      8  C   LIG    1      -10.015   9.812   0.934  0.00  0.00    +0.160 C 
BRANCH   8   9
ATOM      9  C   LIG    1      -11.236  10.685   1.070  0.00  0.00    -0.070 A 
ATOM     10  C   LIG    1      -11.735  10.985   2.325  0.00  0.00    -0.010 A 
ATOM     11  C   LIG    1      -12.852  11.791   2.450  0.00  0.00    +0.050 A 
ATOM     12  C   LIG    1      -13.477  12.286   1.321  0.00  0.00    +0.070 A 
ATOM     13  C   LIG    1      -12.982  11.982   0.066  0.00  0.00    +0.050 A 
ATOM     14 CL   LIG    1      -10.954  10.357   3.743  0.00  0.00    -0.040 Cl
ATOM     15  C   LIG    1      -11.861  11.181  -0.059  0.00  0.00    -0.010 A 
ATOM     16 CL   LIG    1      -11.240  10.798  -1.635  0.00  0.00    -0.040 Cl
ENDBRANCH   8   9
ENDBRANCH   7   8
ENDBRANCH   5   7
ENDBRANCH   1   2
BRANCH   1  17
ATOM     17  C   LIG    1       -3.799   5.893   0.283  0.00  0.00    +0.100 C 
BRANCH  17  20
ATOM     18  N   LIG    1       -2.464   3.825   0.045  0.00  0.00    -0.660 N 
ATOM     19  H   LIG    1       -3.295   3.331  -0.030  0.00  0.00    +0.410 HD
ATOM     20  C   LIG    1       -2.484   5.168   0.153  0.00  0.00    +0.540 C 
ATOM     21  O   LIG    1       -1.445   5.793   0.147  0.00  0.00    -0.500 OA
BRANCH  18  27
ATOM     22  C   LIG    1       -1.143   1.897  -0.568  0.00  0.00    -0.100 A 
ATOM     23  C   LIG    1        0.063   1.224  -0.566  0.00  0.00    +0.030 A 
ATOM     24  C   LIG    1        1.173   1.791   0.033  0.00  0.00    -0.010 A 
ATOM     25  C   LIG    1        1.078   3.032   0.636  0.00  0.00    +0.030 A 
ATOM     26  C   LIG    1       -0.126   3.709   0.642  0.00  0.00    +0.020 A 
ATOM     27  C   LIG    1       -1.242   3.142   0.041  0.00  0.00    +0.150 A 
BRANCH  22  29
ATOM     28  C   LIG    1       -2.016   0.928  -2.677  0.00  0.00    +0.040 C 
ATOM     29  C   LIG    1       -2.350   1.281  -1.226  0.00  0.00    +0.010 C 
ATOM     30  C   LIG    1       -2.750   0.011  -0.472  0.00  0.00    +0.030 C 
ENDBRANCH  22  29
ENDBRANCH  18  27
ENDBRANCH  17  20
ENDBRANCH   1  17
TORSDOF 8
