REMARK  Name = ZINCfl000000kv2F.1
REMARK                            x       y       z     vdW  Elec       q    Type
REMARK                         _______ _______ _______ _____ _____    ______ ____
ROOT
ATOM      1  C   LIG    1       -2.136   0.891   1.489  0.00  0.00    +0.500 C 
ATOM      2  N   LIG    1       -3.146   1.443   2.190  0.00  0.00    -0.680 NA
ATOM      3  O   LIG    1       -2.033  -0.316   1.422  0.00  0.00    -0.570 OA
ENDROOT
BRANCH   2   4
ATOM      4  C   LIG    1       -4.070   0.629   2.837  0.00  0.00    +0.350 A 
ATOM      5  N   LIG    1       -4.054  -0.666   2.825  0.00  0.00    -0.560 NA
ATOM      6  C   LIG    1       -5.008  -1.282   3.498  0.00  0.00    +0.300 A 
ATOM      7  C   LIG    1       -5.877  -0.467   4.101  0.00  0.00    -0.360 A 
ATOM      8 BR   LIG    1       -7.364  -1.000   5.140  0.00  0.00    -0.050 Br
ATOM      9  S   LIG    1       -5.395   1.193   3.759  0.00  0.00    +0.050 S 
ENDBRANCH   2   4
BRANCH   1  12
ATOM     10  C   LIG    1       -0.013   1.086   0.008  0.00  0.00    -0.090 C 
ATOM     11  C   LIG    1       -1.150   1.781  -0.743  0.00  0.00    +0.030 C 
ATOM     12  C   LIG    1       -1.136   1.773   0.788  0.00  0.00    -0.020 C 
BRANCH  10  14
ATOM     13  O   LIG    1        2.351   1.082   0.088  0.00  0.00    -0.700 OA
ATOM     14  C   LIG    1        1.338   1.754  -0.001  0.00  0.00    +0.520 C 
ATOM     15  O   LIG    1        1.417   2.967  -0.098  0.00  0.00    -0.700 OA
ENDBRANCH  10  14
ENDBRANCH   1  12
TORSDOF 3
