REMARK  Name = ZINCrD0000074kTB.0
REMARK                            x       y       z     vdW  Elec       q    Type
REMARK                         _______ _______ _______ _____ _____    ______ ____
ROOT
ATOM      1  O   LIG    1        0.002  -0.004   0.002  0.00  0.00    -0.330 OA
ENDROOT
BRANCH   1   2
ATOM      2  C   LIG    1        0.601  -0.602  -1.047  0.00  0.00    +0.530 C 
ATOM      3  O   LIG    1        1.093   0.071  -1.930  0.00  0.00    -0.500 OA
BRANCH   2  11
ATOM      4  C   LIG    1        2.560  -4.809  -4.440  0.00  0.00    +0.190 C 
ATOM      5  C   LIG    1        1.835  -5.093  -3.150  0.00  0.00    +0.130 A 
ATOM      6  N   LIG    1        1.570  -6.269  -2.659  0.00  0.00    -0.240 NA
ATOM      7  N   LIG    1        0.885  -6.143  -1.447  0.00  0.00    -0.390 N 
ATOM      8  C   LIG    1        0.710  -4.818  -1.163  0.00  0.00    +0.340 A 
ATOM      9  N   LIG    1        0.135  -4.170  -0.155  0.00  0.00    -0.510 NA
ATOM     10  C   LIG    1        0.099  -2.860  -0.104  0.00  0.00    +0.410 A 
ATOM     11  C   LIG    1        0.658  -2.074  -1.122  0.00  0.00    -0.230 A 
ATOM     12  C   LIG    1        1.277  -2.703  -2.204  0.00  0.00    +0.240 A 
ATOM     13  C   LIG    1        0.425  -7.256  -0.613  0.00  0.00    +0.370 C 
ATOM     14  C   LIG    1        1.302  -4.099  -2.224  0.00  0.00    -0.240 A 
ENDBRANCH   2  11
ENDBRANCH   1   2
BRANCH   1  15
ATOM     15  C   LIG    1       -0.018   1.448   0.010  0.00  0.00    +0.250 C 
BRANCH  15  16
ATOM     16  C   LIG    1       -0.723   1.934   1.250  0.00  0.00    +0.430 C 
ATOM     17  O   LIG    1       -1.166   1.134   2.049  0.00  0.00    -0.410 OA
BRANCH  16  18
ATOM     18  C   LIG    1       -0.869   3.324   1.483  0.00  0.00    -0.080 A 
ATOM     19  C   LIG    1       -1.485   3.881   2.563  0.00  0.00    -0.040 A 
ATOM     20  C   LIG    1       -1.408   5.287   2.401  0.00  0.00    -0.150 A 
ATOM     21  C   LIG    1       -1.849   6.374   3.162  0.00  0.00    +0.080 A 
ATOM     22  C   LIG    1       -1.615   7.647   2.726  0.00  0.00    +0.000 A 
ATOM     23  C   LIG    1       -0.943   7.870   1.532  0.00  0.00    +0.070 A 
ATOM     24  C   LIG    1       -0.500   6.813   0.765  0.00  0.00    +0.020 A 
ATOM     25  C   LIG    1       -0.726   5.509   1.189  0.00  0.00    +0.080 A 
ATOM     26  C   LIG    1       -2.125   3.143   3.710  0.00  0.00    +0.150 C 
ATOM     27  O   LIG    1       -0.414   4.304   0.671  0.00  0.00    -0.170 OA
ENDBRANCH  16  18
ENDBRANCH  15  16
ENDBRANCH   1  15
TORSDOF 5
