REMARK  Name = ZINCpe00000RbOHF.0
REMARK                            x       y       z     vdW  Elec       q    Type
REMARK                         _______ _______ _______ _____ _____    ______ ____
ROOT
ATOM      1  C   LIG    1       -0.718   1.572   1.248  0.00  0.00    +0.530 C 
ATOM      2  N   LIG    1       -0.242   1.246   2.466  0.00  0.00    -0.620 N 
ATOM      3  C   LIG    1        0.951   0.427   2.728  0.00  0.00    +0.240 C 
ATOM      4  C   LIG    1        1.092   0.301   4.260  0.00  0.00    +0.060 C 
ATOM      5  C   LIG    1       -0.348   0.581   4.765  0.00  0.00    +0.050 C 
ATOM      6  C   LIG    1       -0.827   1.656   3.755  0.00  0.00    +0.280 C 
ATOM      7  O   LIG    1       -1.714   2.256   1.150  0.00  0.00    -0.530 OA
ENDROOT
BRANCH   5   8
ATOM      8  C   LIG    1       -0.331   1.130   6.168  0.00  0.00    +0.240 A 
ATOM      9  C   LIG    1       -0.992   0.474   7.165  0.00  0.00    -0.190 A 
ATOM     10  C   LIG    1       -0.961   1.006   8.466  0.00  0.00    +0.540 A 
ATOM     11  N   LIG    1       -0.278   2.150   8.684  0.00  0.00    -0.650 N 
ATOM     12  H   LIG    1       -0.243   2.535   9.573  0.00  0.00    +0.410 HD
ATOM     13  C   LIG    1        0.363   2.761   7.650  0.00  0.00    +0.640 A 
ATOM     14  O   LIG    1       -1.541   0.446   9.382  0.00  0.00    -0.540 OA
ATOM     15  N   LIG    1        0.334   2.252   6.434  0.00  0.00    -0.590 NA
BRANCH  13  16
ATOM     16  N   LIG    1        1.054   3.920   7.878  0.00  0.00    -0.590 N 
ATOM     17  C   LIG    1        1.099   4.493   9.226  0.00  0.00    +0.300 C 
ATOM     18  C   LIG    1        1.748   4.588   6.774  0.00  0.00    +0.330 C 
ENDBRANCH  13  16
ENDBRANCH   5   8
BRANCH   1  19
ATOM     19  C   LIG    1       -0.013   1.086   0.008  0.00  0.00    +0.150 C 
BRANCH  19  26
ATOM     20  C   LIG    1        0.383   3.911  -1.372  0.00  0.00    +0.150 C 
ATOM     21  C   LIG    1       -0.567   2.832  -1.823  0.00  0.00    +0.090 A 
ATOM     22  N   LIG    1       -1.372   2.899  -2.852  0.00  0.00    -0.300 NA
ATOM     23  N   LIG    1       -2.085   1.695  -2.930  0.00  0.00    -0.380 N 
ATOM     24  C   LIG    1       -1.676   0.904  -1.916  0.00  0.00    +0.240 A 
ATOM     25  C   LIG    1       -3.092   1.354  -3.937  0.00  0.00    +0.350 C 
ATOM     26  C   LIG    1       -0.742   1.585  -1.213  0.00  0.00    -0.220 A 
ENDBRANCH  19  26
ENDBRANCH   1  19
TORSDOF 4
