REMARK  Name = ZINCpk00000ebmsm.0
REMARK                            x       y       z     vdW  Elec       q    Type
REMARK                         _______ _______ _______ _____ _____    ______ ____
ROOT
ATOM      1  C   LIG    1       -0.102   5.579   0.017  0.00  0.00    +0.400 C 
ENDROOT
BRANCH   1   5
ATOM      2  C   LIG    1       -0.002   1.307  -0.039  0.00  0.00    +0.150 A 
ATOM      3  C   LIG    1       -1.219   1.974  -0.034  0.00  0.00    -0.090 A 
ATOM      4  C   LIG    1       -1.248   3.354  -0.010  0.00  0.00    +0.080 A 
ATOM      5  C   LIG    1       -0.067   4.072  -0.003  0.00  0.00    -0.160 A 
ATOM      6  C   LIG    1        1.147   3.410  -0.014  0.00  0.00    +0.100 A 
ATOM      7  C   LIG    1        1.182   2.030  -0.032  0.00  0.00    -0.010 A 
BRANCH   2   8
ATOM      8  O   LIG    1        0.029  -0.052  -0.057  0.00  0.00    -0.290 OA
BRANCH   8   9
ATOM      9  C   LIG    1       -1.228  -0.730  -0.064  0.00  0.00    +0.240 C 
BRANCH   9  13
ATOM     10  N   LIG    1       -2.046  -3.064  -0.093  0.00  0.00    -0.850 N 
ATOM     11  H   LIG    1       -1.896  -4.023  -0.106  0.00  0.00    +0.410 HD
ATOM     12  H   LIG    1       -2.950  -2.715  -0.086  0.00  0.00    +0.400 HD
ATOM     13  C   LIG    1       -0.996  -2.219  -0.084  0.00  0.00    +0.520 C 
ATOM     14  O   LIG    1        0.135  -2.656  -0.092  0.00  0.00    -0.510 OA
ENDBRANCH   9  13
ENDBRANCH   8   9
ENDBRANCH   2   8
ENDBRANCH   1   5
BRANCH   1  15
ATOM     15  N   LIG    1       -0.116   6.085  -1.358  0.00  0.00    -0.290 N 
ATOM     16  C   LIG    1       -1.031   6.924  -1.878  0.00  0.00    +0.420 A 
ATOM     17  N   LIG    1       -0.705   7.144  -3.126  0.00  0.00    -0.480 NA
ATOM     18  C   LIG    1        0.414   6.439  -3.376  0.00  0.00    +0.120 A 
ATOM     19  N   LIG    1        0.750   5.807  -2.271  0.00  0.00    -0.240 NA
BRANCH  18  20
ATOM     20  C   LIG    1        1.141   6.388  -4.662  0.00  0.00    +0.490 C 
ATOM     21  O   LIG    1        2.196   5.789  -4.740  0.00  0.00    -0.430 OA
BRANCH  20  22
ATOM     22  C   LIG    1        0.585   7.066  -5.851  0.00  0.00    -0.160 A 
ATOM     23  C   LIG    1       -0.563   7.852  -5.739  0.00  0.00    +0.100 A 
ATOM     24  C   LIG    1       -1.073   8.486  -6.852  0.00  0.00    -0.010 A 
ATOM     25  C   LIG    1       -0.456   8.335  -8.082  0.00  0.00    +0.050 A 
ATOM     26  C   LIG    1        0.679   7.553  -8.202  0.00  0.00    -0.010 A 
ATOM     27  C   LIG    1        1.203   6.917  -7.095  0.00  0.00    +0.070 A 
ENDBRANCH  20  22
ENDBRANCH  18  20
ENDBRANCH   1  15
TORSDOF 7
