REMARK  Name = ZINCqH0000037sHS.0
REMARK                            x       y       z     vdW  Elec       q    Type
REMARK                         _______ _______ _______ _____ _____    ______ ____
ROOT
ATOM      1  N   LIG    1       -0.469   1.542  -1.311  0.00  0.00    -0.520 NA
ATOM      2  C   LIG    1       -0.957   2.926  -1.250  0.00  0.00    +0.180 C 
ATOM      3  C   LIG    1       -1.557   3.318  -2.602  0.00  0.00    +0.060 C 
ATOM      4  C   LIG    1       -0.486   3.182  -3.688  0.00  0.00    -0.040 C 
ATOM      5  C   LIG    1        0.039   1.744  -3.699  0.00  0.00    +0.060 C 
ATOM      6  C   LIG    1        0.593   1.398  -2.315  0.00  0.00    +0.180 C 
ENDROOT
BRANCH   4   7
ATOM      7  C   LIG    1       -1.087   3.509  -5.031  0.00  0.00    +0.400 C 
ATOM      8  O   LIG    1       -1.593   2.632  -5.698  0.00  0.00    -0.440 OA
BRANCH   7   9
ATOM      9  C   LIG    1       -1.059   4.892  -5.532  0.00  0.00    -0.170 A 
ATOM     10  C   LIG    1       -0.481   5.907  -4.763  0.00  0.00    +0.080 A 
ATOM     11  C   LIG    1       -0.454   7.199  -5.241  0.00  0.00    +0.020 A 
ATOM     12  C   LIG    1       -1.007   7.496  -6.476  0.00  0.00    -0.010 A 
ATOM     13  C   LIG    1       -1.587   6.496  -7.242  0.00  0.00    +0.020 A 
ATOM     14 CL   LIG    1       -0.976   9.128  -7.068  0.00  0.00    -0.060 Cl
ATOM     15  C   LIG    1       -1.616   5.199  -6.779  0.00  0.00    +0.090 A 
ENDBRANCH   7   9
ENDBRANCH   4   7
BRANCH   1  16
ATOM     16  C   LIG    1       -0.013   1.086   0.008  0.00  0.00    +0.210 C 
BRANCH  16  23
ATOM     17  C   LIG    1       -1.048  -0.796   3.330  0.00  0.00    +0.020 C 
ATOM     18  C   LIG    1        0.472  -0.923   3.451  0.00  0.00    -0.030 C 
ATOM     19  C   LIG    1        0.858  -2.403   3.499  0.00  0.00    +0.020 C 
ATOM     20  C   LIG    1        0.359  -3.104   2.234  0.00  0.00    -0.030 C 
ATOM     21  C   LIG    1        1.024  -2.471   1.008  0.00  0.00    +0.280 C 
ATOM     22  N   LIG    1        0.778  -1.022   1.032  0.00  0.00    -0.610 N 
ATOM     23  C   LIG    1        0.233  -0.400  -0.032  0.00  0.00    +0.520 C 
ATOM     24  O   LIG    1       -0.059  -1.037  -1.022  0.00  0.00    -0.520 OA
ATOM     25  C   LIG    1        0.717  -4.590   2.298  0.00  0.00    +0.030 C 
ATOM     26  C   LIG    1        1.143  -0.264   2.236  0.00  0.00    +0.260 C 
ENDBRANCH  16  23
ENDBRANCH   1  16
TORSDOF 4
