REMARK  Name = ZINCvU0000000ANo.0
REMARK                            x       y       z     vdW  Elec       q    Type
REMARK                         _______ _______ _______ _____ _____    ______ ____
ROOT
ATOM      1  C   LIG    1        2.625  -1.244  -0.030  0.00  0.00    +0.380 C 
ENDROOT
BRANCH   1   5
ATOM      2  C   LIG    1        2.909  -2.833   3.925  0.00  0.00    -0.070 A 
ATOM      3  C   LIG    1        3.938  -2.064   3.413  0.00  0.00    +0.020 A 
ATOM      4  C   LIG    1        3.846  -1.550   2.134  0.00  0.00    +0.040 A 
ATOM      5  C   LIG    1        2.725  -1.805   1.365  0.00  0.00    -0.100 A 
ATOM      6  C   LIG    1        1.694  -2.569   1.878  0.00  0.00    +0.020 A 
ATOM      7  C   LIG    1        1.788  -3.087   3.157  0.00  0.00    +0.010 A 
BRANCH   2   8
ATOM      8  C   LIG    1        3.009  -3.394   5.320  0.00  0.00    +0.020 C 
ATOM      9  C   LIG    1        1.851  -2.863   6.168  0.00  0.00    +0.030 C 
BRANCH   8  11
ATOM     10  C   LIG    1        3.165  -5.496   6.661  0.00  0.00    +0.000 C 
ATOM     11  C   LIG    1        2.939  -4.921   5.262  0.00  0.00    +0.000 C 
ENDBRANCH   8  11
ENDBRANCH   2   8
ENDBRANCH   1   5
BRANCH   1  12
ATOM     12  C   LIG    1        1.761  -0.010  -0.015  0.00  0.00    -0.190 A 
ATOM     13  C   LIG    1        2.212   1.245  -0.012  0.00  0.00    +0.020 A 
ATOM     14  C   LIG    1        1.229   2.219   0.002  0.00  0.00    +0.010 A 
ATOM     15  C   LIG    1       -0.022   1.755   0.012  0.00  0.00    -0.050 A 
ATOM     16  S   LIG    1        0.002  -0.004   0.002  0.00  0.00    +0.110 S 
ENDBRANCH   1  12
BRANCH   1  17
ATOM     17  N   LIG    1        2.030  -2.246  -0.918  0.00  0.00    -0.710 N 
ATOM     18  H   LIG    1        1.454  -2.936  -0.553  0.00  0.00    +0.410 HD
ATOM     19  C   LIG    1        2.283  -2.210  -2.241  0.00  0.00    +0.600 C 
ATOM     20  O   LIG    1        3.005  -1.345  -2.698  0.00  0.00    -0.510 OA
BRANCH  19  21
ATOM     21  C   LIG    1        1.683  -3.220  -3.135  0.00  0.00    +0.060 A 
ATOM     22  N   LIG    1        0.903  -4.155  -2.651  0.00  0.00    -0.200 NA
ATOM     23  N   LIG    1        0.346  -5.065  -3.356  0.00  0.00    -0.360 N 
ATOM     24  C   LIG    1        0.497  -5.169  -4.693  0.00  0.00    +0.510 A 
ATOM     25  C   LIG    1        1.346  -4.186  -5.380  0.00  0.00    -0.140 A 
ATOM     26  C   LIG    1        1.565  -4.205  -6.753  0.00  0.00    +0.090 A 
ATOM     27  C   LIG    1        2.363  -3.236  -7.323  0.00  0.00    +0.030 A 
ATOM     28  C   LIG    1        2.959  -2.256  -6.541  0.00  0.00    +0.050 A 
ATOM     29  C   LIG    1        2.759  -2.223  -5.176  0.00  0.00    +0.070 A 
ATOM     30  O   LIG    1       -0.058  -6.056  -5.315  0.00  0.00    -0.500 OA
ATOM     31  C   LIG    1       -0.502  -6.048  -2.676  0.00  0.00    +0.360 C 
ATOM     32  C   LIG    1        1.949  -3.184  -4.583  0.00  0.00    -0.030 A 
ENDBRANCH  19  21
ENDBRANCH   1  17
TORSDOF 6
