REMARK  Name = ZINCrg00001JduRE.0
REMARK                            x       y       z     vdW  Elec       q    Type
REMARK                         _______ _______ _______ _____ _____    ______ ____
ROOT
ATOM      1  C   LIG    1       -0.734   1.764   2.341  0.00  0.00    +0.320 C 
ATOM      2  C   LIG    1       -0.904   1.826   0.809  0.00  0.00    +0.040 C 
ATOM      3  C   LIG    1       -2.105   0.877   0.550  0.00  0.00    +0.070 C 
ATOM      4  C   LIG    1       -2.982   1.137   1.800  0.00  0.00    +0.250 C 
ATOM      5  N   LIG    1       -2.022   1.320   2.903  0.00  0.00    -0.610 N 
ATOM      6  C   LIG    1       -2.279   1.117   4.210  0.00  0.00    +0.520 C 
ATOM      7  O   LIG    1       -1.386   1.208   5.026  0.00  0.00    -0.510 OA
ENDROOT
BRANCH   1  14
ATOM      8  N   LIG    1        1.469   1.052   3.440  0.00  0.00    -0.540 N 
ATOM      9  C   LIG    1        2.196  -0.079   3.546  0.00  0.00    +0.650 A 
ATOM     10  N   LIG    1        1.536  -1.047   2.877  0.00  0.00    -0.550 N 
ATOM     11  H   LIG    1        1.816  -1.970   2.778  0.00  0.00    +0.450 HD
ATOM     12  N   LIG    1        0.368  -0.473   2.358  0.00  0.00    -0.270 NA
ATOM     13  O   LIG    1        3.255  -0.203   4.135  0.00  0.00    -0.560 OA
ATOM     14  C   LIG    1        0.347   0.776   2.697  0.00  0.00    +0.300 A 
BRANCH   8  16
ATOM     15  C   LIG    1        1.349   2.405   5.474  0.00  0.00    +0.030 C 
ATOM     16  C   LIG    1        1.817   2.352   4.018  0.00  0.00    +0.310 C 
ENDBRANCH   8  16
ENDBRANCH   1  14
BRANCH   2  17
ATOM     17  C   LIG    1        0.353   1.313   0.103  0.00  0.00    -0.030 C 
ATOM     18  C   LIG    1        0.934   2.175  -1.020  0.00  0.00    +0.030 C 
ATOM     19  C   LIG    1        1.654   2.087   0.328  0.00  0.00    +0.000 C 
ENDBRANCH   2  17
BRANCH   6  20
ATOM     20  C   LIG    1       -3.677   0.778   4.659  0.00  0.00    +0.330 C 
BRANCH  20  21
ATOM     21  N   LIG    1       -3.696   0.608   6.114  0.00  0.00    -0.480 N 
ATOM     22  C   LIG    1       -3.473  -0.620   6.649  0.00  0.00    +0.290 A 
ATOM     23  C   LIG    1       -3.479  -0.800   7.990  0.00  0.00    -0.070 A 
ATOM     24  C   LIG    1       -3.729   0.285   8.842  0.00  0.00    +0.120 A 
ATOM     25  C   LIG    1       -3.958   1.517   8.302  0.00  0.00    -0.200 A 
ATOM     26  C   LIG    1       -4.228   2.701   9.194  0.00  0.00    +0.120 C 
ATOM     27  C   LIG    1       -3.939   1.670   6.905  0.00  0.00    +0.530 A 
ATOM     28  O   LIG    1       -4.142   2.767   6.409  0.00  0.00    -0.550 OA
ENDBRANCH  20  21
ENDBRANCH   6  20
TORSDOF 5
