REMARK  Name = ZINCrH000004qZkv.0
REMARK                            x       y       z     vdW  Elec       q    Type
REMARK                         _______ _______ _______ _____ _____    ______ ____
ROOT
ATOM      1  C   LIG    1        3.475   0.979  -0.045  0.00  0.00    +0.380 C 
ENDROOT
BRANCH   1   8
ATOM      2  C   LIG    1        1.102   1.863   0.074  0.00  0.00    +0.340 A 
ATOM      3  N   LIG    1       -0.098   1.354   0.055  0.00  0.00    -0.260 NA
ATOM      4  N   LIG    1        0.022  -0.037  -0.061  0.00  0.00    -0.470 N 
ATOM      5  H   LIG    1       -0.708  -0.675  -0.100  0.00  0.00    +0.470 HD
ATOM      6  C   LIG    1        1.339  -0.329  -0.111  0.00  0.00    +0.480 A 
ATOM      7  S   LIG    1        2.023  -1.891  -0.252  0.00  0.00    -0.560 S 
ATOM      8  N   LIG    1        2.017   0.833  -0.028  0.00  0.00    -0.480 N 
BRANCH   2  13
ATOM      9  C   LIG    1        2.374   7.460   0.505  0.00  0.00    +0.100 C 
ATOM     10  C   LIG    1        2.041   5.994   0.392  0.00  0.00    -0.050 A 
ATOM     11  C   LIG    1        2.944   5.126  -0.195  0.00  0.00    +0.010 A 
ATOM     12  C   LIG    1        2.645   3.783  -0.301  0.00  0.00    +0.030 A 
ATOM     13  C   LIG    1        1.430   3.302   0.185  0.00  0.00    -0.050 A 
ATOM     14  C   LIG    1        0.521   4.183   0.771  0.00  0.00    +0.080 A 
ATOM     15  C   LIG    1        0.834   5.523   0.876  0.00  0.00    +0.020 A 
ENDBRANCH   2  13
ENDBRANCH   1   8
BRANCH   1  16
ATOM     16  C   LIG    1        3.959   1.020  -1.471  0.00  0.00    +0.500 C 
ATOM     17  N   LIG    1        5.275   1.150  -1.732  0.00  0.00    -0.660 N 
ATOM     18  H   LIG    1        5.915   1.161  -1.004  0.00  0.00    +0.410 HD
ATOM     19  O   LIG    1        3.165   0.936  -2.384  0.00  0.00    -0.490 OA
BRANCH  17  20
ATOM     20  C   LIG    1        5.716   1.268  -3.050  0.00  0.00    +0.160 A 
ATOM     21  C   LIG    1        4.968   0.748  -4.085  0.00  0.00    +0.030 A 
ATOM     22  C   LIG    1        5.398   0.868  -5.402  0.00  0.00    +0.060 A 
ATOM     23  C   LIG    1        6.571   1.489  -5.707  0.00  0.00    +0.030 A 
ATOM     24  C   LIG    1        7.368   2.028  -4.682  0.00  0.00    +0.140 A 
ATOM     25  N   LIG    1        8.523   2.642  -4.960  0.00  0.00    -0.470 NA
ATOM     26  C   LIG    1        9.273   3.147  -4.009  0.00  0.00    +0.290 A 
ATOM     27  C   LIG    1        8.905   3.071  -2.669  0.00  0.00    -0.030 A 
ATOM     28  C   LIG    1        7.735   2.457  -2.317  0.00  0.00    +0.070 A 
ATOM     29  C   LIG    1        6.936   1.917  -3.338  0.00  0.00    -0.110 A 
ENDBRANCH  17  20
ENDBRANCH   1  16
TORSDOF 4
