REMARK  Name = ZINCrH00000No4FK.1
REMARK                            x       y       z     vdW  Elec       q    Type
REMARK                         _______ _______ _______ _____ _____    ______ ____
ROOT
ATOM      1  C   LIG    1       -1.439  -0.236   2.121  0.00  0.00    +0.260 C 
ENDROOT
BRANCH   1   6
ATOM      2  N   LIG    1       -1.185   0.018  -0.404  0.00  0.00    -0.310 N 
ATOM      3  N   LIG    1       -1.985  -0.009  -1.416  0.00  0.00    -0.100 NA
ATOM      4  N   LIG    1       -3.184  -0.209  -0.991  0.00  0.00    -0.080 NA
ATOM      5  N   LIG    1       -3.171  -0.312   0.293  0.00  0.00    -0.270 NA
ATOM      6  C   LIG    1       -1.932  -0.180   0.698  0.00  0.00    +0.210 A 
BRANCH   2   7
ATOM      7  C   LIG    1        0.266   0.220  -0.448  0.00  0.00    +0.360 C 
BRANCH   7   8
ATOM      8  C   LIG    1        0.570   1.718  -0.512  0.00  0.00    +0.180 C 
BRANCH   8   9
ATOM      9  O   LIG    1        1.981   1.923  -0.413  0.00  0.00    -0.380 OA
BRANCH   9  11
ATOM     10  C   LIG    1        3.892   3.401  -0.371  0.00  0.00    +0.060 C 
ATOM     11  C   LIG    1        2.366   3.297  -0.351  0.00  0.00    +0.160 C 
ENDBRANCH   9  11
ENDBRANCH   8   9
ENDBRANCH   7   8
ENDBRANCH   2   7
ENDBRANCH   1   6
BRANCH   1  12
ATOM     12  C   LIG    1       -2.315   0.659   2.999  0.00  0.00    -0.030 C 
ATOM     13  C   LIG    1       -2.112   2.122   2.600  0.00  0.00    +0.040 C 
ATOM     14  C   LIG    1       -1.924   0.472   4.467  0.00  0.00    +0.050 C 
BRANCH  12  15
ATOM     15  C   LIG    1       -3.763   0.283   2.813  0.00  0.00    +0.010 C 
ATOM     16  C   LIG    1       -4.082  -0.935   2.464  0.00  0.00    -0.150 C 
ATOM     17  C   LIG    1       -4.401  -2.153   2.114  0.00  0.00    -0.060 C 
ATOM     18  C   LIG    1       -4.658  -3.197   3.170  0.00  0.00    +0.090 C 
ATOM     19  C   LIG    1       -4.512  -2.514   0.655  0.00  0.00    +0.100 C 
ENDBRANCH  12  15
ENDBRANCH   1  12
BRANCH   1  20
ATOM     20  N   LIG    1       -1.508  -1.620   2.609  0.00  0.00    -0.670 NA
ATOM     21  H   LIG    1       -2.295  -1.747   3.227  0.00  0.00    +0.370 HD
BRANCH  20  22
ATOM     22  C   LIG    1       -0.254  -2.009   3.268  0.00  0.00    +0.140 C 
ATOM     23  C   LIG    1        0.592  -3.001   2.450  0.00  0.00    +0.080 C 
ATOM     24  C   LIG    1        0.874  -3.707   3.761  0.00  0.00    -0.090 C 
ATOM     25  C   LIG    1        1.826  -4.478   4.226  0.00  0.00    -0.200 C 
ATOM     26  C   LIG    1        2.406  -5.286   5.358  0.00  0.00    +0.070 C 
ATOM     27  C   LIG    1        3.136  -5.192   4.018  0.00  0.00    +0.080 C 
ATOM     28  C   LIG    1       -0.422  -3.136   4.300  0.00  0.00    +0.080 C 
ENDBRANCH  20  22
ENDBRANCH   1  20
TORSDOF 9
