REMARK  Name = ZINCrg00000SjSF2.0
REMARK                            x       y       z     vdW  Elec       q    Type
REMARK                         _______ _______ _______ _____ _____    ______ ____
ROOT
ATOM      1  C   LIG    1       -2.506  -2.864   0.010  0.00  0.00    +0.240 C 
ENDROOT
BRANCH   1   2
ATOM      2  N   LIG    1       -1.249  -2.112   0.002  0.00  0.00    -0.710 N 
ATOM      3  H   LIG    1       -0.402  -2.584  -0.008  0.00  0.00    +0.410 HD
ATOM      4  C   LIG    1       -1.269  -0.764   0.010  0.00  0.00    +0.580 C 
ATOM      5  O   LIG    1       -2.331  -0.173   0.022  0.00  0.00    -0.500 OA
BRANCH   4   6
ATOM      6  C   LIG    1        0.002  -0.004   0.002  0.00  0.00    +0.030 A 
ATOM      7  C   LIG    1       -0.017   1.390   0.010  0.00  0.00    +0.290 A 
ATOM      8  N   LIG    1        1.120   2.063   0.002  0.00  0.00    -0.440 NA
ATOM      9  C   LIG    1        2.272   1.417  -0.012  0.00  0.00    +0.260 A 
ATOM     10  C   LIG    1        2.294   0.030  -0.020  0.00  0.00    +0.230 A 
ATOM     11  N   LIG    1        1.165  -0.650  -0.013  0.00  0.00    -0.410 NA
ENDBRANCH   4   6
ENDBRANCH   1   2
BRANCH   1  12
ATOM     12  C   LIG    1       -2.279  -4.244  -0.610  0.00  0.00    +0.280 C 
BRANCH  12  15
ATOM     13  O   LIG    1       -1.633  -6.290  -2.243  0.00  0.00    -0.520 OA
ATOM     14  C   LIG    1       -1.411  -5.180  -2.685  0.00  0.00    +0.580 C 
ATOM     15  N   LIG    1       -1.698  -4.090  -1.946  0.00  0.00    -0.710 N 
ATOM     16  H   LIG    1       -1.521  -3.204  -2.298  0.00  0.00    +0.410 HD
BRANCH  14  17
ATOM     17  C   LIG    1       -0.823  -5.024  -4.036  0.00  0.00    +0.020 A 
ATOM     18  C   LIG    1       -0.525  -6.150  -4.803  0.00  0.00    +0.290 A 
ATOM     19  N   LIG    1       -0.002  -6.006  -6.007  0.00  0.00    -0.440 NA
ATOM     20  C   LIG    1        0.238  -4.798  -6.485  0.00  0.00    +0.260 A 
ATOM     21  C   LIG    1       -0.058  -3.676  -5.724  0.00  0.00    +0.230 A 
ATOM     22  N   LIG    1       -0.584  -3.810  -4.524  0.00  0.00    -0.410 NA
ENDBRANCH  14  17
ENDBRANCH  12  15
ENDBRANCH   1  12
BRANCH   1  23
ATOM     23  C   LIG    1       -2.995  -3.025   1.450  0.00  0.00    +0.080 C 
BRANCH  23  24
ATOM     24  C   LIG    1       -3.336  -1.672   2.020  0.00  0.00    -0.070 A 
ATOM     25  C   LIG    1       -2.370  -0.937   2.680  0.00  0.00    +0.000 A 
ATOM     26  C   LIG    1       -2.682   0.306   3.199  0.00  0.00    +0.000 A 
ATOM     27  C   LIG    1       -3.962   0.809   3.065  0.00  0.00    +0.000 A 
ATOM     28  C   LIG    1       -4.930   0.072   2.409  0.00  0.00    +0.010 A 
ATOM     29  C   LIG    1       -4.617  -1.169   1.886  0.00  0.00    +0.010 A 
ENDBRANCH  23  24
ENDBRANCH   1  23
TORSDOF 7
