REMARK  Name = ZINCrg000000tljb.0
REMARK                            x       y       z     vdW  Elec       q    Type
REMARK                         _______ _______ _______ _____ _____    ______ ____
ROOT
ATOM      1  O   LIG    1        1.114   6.193   0.728  0.00  0.00    -0.580 OA
ATOM      2  C   LIG    1        1.135   5.398   1.648  0.00  0.00    +0.710 C 
ATOM      3  N   LIG    1        1.153   4.075   1.394  0.00  0.00    -0.740 N 
ATOM      4  H   LIG    1        1.170   3.441   2.128  0.00  0.00    +0.400 HD
ATOM      5  N   LIG    1        1.140   5.841   2.921  0.00  0.00    -0.750 N 
ATOM      6  H   LIG    1        1.157   5.207   3.655  0.00  0.00    +0.400 HD
ENDROOT
BRANCH   3   7
ATOM      7  C   LIG    1        1.147   3.594   0.011  0.00  0.00    +0.350 C 
BRANCH   7   8
ATOM      8  C   LIG    1        1.171   2.087   0.002  0.00  0.00    -0.070 A 
ATOM      9  C   LIG    1        2.380   1.416  -0.013  0.00  0.00    +0.060 A 
ATOM     10  C   LIG    1        2.405   0.035  -0.021  0.00  0.00    +0.060 A 
ATOM     11  C   LIG    1        1.217  -0.680  -0.013  0.00  0.00    +0.090 A 
ATOM     12  C   LIG    1        0.002  -0.004   0.002  0.00  0.00    +0.100 A 
ATOM     13  F   LIG    1       -1.158  -0.697   0.010  0.00  0.00    -0.120 F 
ATOM     14  C   LIG    1       -0.017   1.379   0.010  0.00  0.00    +0.030 A 
BRANCH  11  15
ATOM     15  N   LIG    1        1.240  -2.083  -0.021  0.00  0.00    -0.420 N 
ATOM     16  C   LIG    1        1.954  -2.882  -0.876  0.00  0.00    +0.130 A 
ATOM     17  C   LIG    1        1.688  -4.157  -0.533  0.00  0.00    +0.160 A 
ATOM     18  N   LIG    1        0.836  -4.143   0.503  0.00  0.00    -0.480 NA
ATOM     19  C   LIG    1        0.565  -2.907   0.822  0.00  0.00    +0.410 A 
ENDBRANCH  11  15
ENDBRANCH   7   8
ENDBRANCH   3   7
BRANCH   5  20
ATOM     20  C   LIG    1        1.120   7.279   3.197  0.00  0.00    +0.310 C 
BRANCH  20  21
ATOM     21  C   LIG    1        1.131   7.509   4.709  0.00  0.00    +0.050 C 
BRANCH  21  22
ATOM     22  C   LIG    1        1.111   8.989   4.993  0.00  0.00    +0.520 C 
ATOM     23  N   LIG    1        1.116   9.431   6.266  0.00  0.00    -0.620 N 
ATOM     24  C   LIG    1        1.135   8.488   7.396  0.00  0.00    +0.250 C 
ATOM     25  C   LIG    1        2.266   8.906   8.349  0.00  0.00    +0.220 C 
ATOM     26  O   LIG    1        2.115  10.288   8.679  0.00  0.00    -0.380 OA
ATOM     27  C   LIG    1        2.224  11.173   7.561  0.00  0.00    +0.220 C 
ATOM     28  C   LIG    1        1.096  10.871   6.568  0.00  0.00    +0.260 C 
ATOM     29  O   LIG    1        1.090   9.782   4.075  0.00  0.00    -0.530 OA
ENDBRANCH  21  22
ENDBRANCH  20  21
ENDBRANCH   5  20
TORSDOF 6
