REMARK  Name = ZINCqH0000031BKq.0
REMARK                            x       y       z     vdW  Elec       q    Type
REMARK                         _______ _______ _______ _____ _____    ______ ____
ROOT
ATOM      1  N   LIG    1        0.379  -4.729   1.288  0.00  0.00    -0.520 NA
ATOM      2  C   LIG    1        0.888  -6.101   1.036  0.00  0.00    +0.180 C 
ATOM      3  C   LIG    1        2.418  -5.932   0.918  0.00  0.00    +0.020 C 
ATOM      4  C   LIG    1        2.740  -4.637   1.692  0.00  0.00    +0.050 C 
ATOM      5  C   LIG    1        1.377  -4.133   2.213  0.00  0.00    +0.200 C 
ENDROOT
BRANCH   5   6
ATOM      6  C   LIG    1        1.316  -2.628   2.153  0.00  0.00    -0.080 A 
ATOM      7  C   LIG    1        0.682  -2.004   1.097  0.00  0.00    +0.080 A 
ATOM      8  C   LIG    1        0.626  -0.619   1.042  0.00  0.00    +0.110 A 
ATOM      9  C   LIG    1        1.212   0.139   2.045  0.00  0.00    -0.040 A 
ATOM     10  C   LIG    1        1.841  -0.485   3.105  0.00  0.00    -0.040 A 
ATOM     11  C   LIG    1        1.897  -1.870   3.159  0.00  0.00    +0.090 A 
BRANCH   8  12
ATOM     12  O   LIG    1        0.002  -0.004   0.002  0.00  0.00    -0.310 OA
ATOM     13  C   LIG    1       -0.017   1.425   0.010  0.00  0.00    +0.230 C 
ENDBRANCH   8  12
BRANCH  11  14
ATOM     14  O   LIG    1        2.520  -2.485   4.200  0.00  0.00    -0.320 OA
ATOM     15  C   LIG    1        3.096  -1.642   5.200  0.00  0.00    +0.230 C 
ENDBRANCH  11  14
ENDBRANCH   5   6
BRANCH   1  16
ATOM     16  C   LIG    1       -0.954  -4.767   1.905  0.00  0.00    +0.510 C 
BRANCH  16  19
ATOM     17  N   LIG    1       -3.561  -4.165  -0.503  0.00  0.00    -0.490 N 
ATOM     18  C   LIG    1       -2.764  -3.739   0.498  0.00  0.00    +0.470 A 
ATOM     19  N   LIG    1       -1.977  -4.775   0.856  0.00  0.00    -0.370 N 
ATOM     20  N   LIG    1       -2.325  -5.863   0.043  0.00  0.00    -0.280 NA
ATOM     21  S   LIG    1       -2.752  -2.172   1.187  0.00  0.00    -0.560 S 
ATOM     22  C   LIG    1       -3.267  -5.482  -0.758  0.00  0.00    +0.270 A 
ATOM     23  C   LIG    1       -3.933  -6.342  -1.801  0.00  0.00    +0.220 C 
BRANCH  17  24
ATOM     24  C   LIG    1       -4.571  -3.361  -1.195  0.00  0.00    +0.380 C 
BRANCH  24  26
ATOM     25  C   LIG    1       -6.522  -2.414  -0.073  0.00  0.00    +0.090 C 
ATOM     26  C   LIG    1       -5.891  -3.488  -0.479  0.00  0.00    -0.090 C 
ENDBRANCH  24  26
ENDBRANCH  17  24
ENDBRANCH  16  19
ENDBRANCH   1  16
TORSDOF 7
