REMARK  Name = ZINCrD000000C5WZ.0
REMARK                            x       y       z     vdW  Elec       q    Type
REMARK                         _______ _______ _______ _____ _____    ______ ____
ROOT
ATOM      1  O   UNK A  0       -2.529   3.181  -2.494  0.00  0.00    -0.520 OA
ATOM      2  C   UNK A  0       -1.611   3.759  -1.946  0.00  0.00    +0.690 C 
ATOM      3  N   TRP A  1       -0.667   3.054  -1.290  0.00  0.00    -0.720 N 
ATOM      4  H   TRP A  1        0.066   3.515  -0.852  0.00  0.00    +0.400 HD
ATOM      5  N   UNK A  0       -1.536   5.103  -1.994  0.00  0.00    -0.670 N 
ATOM      6  H   UNK A  0       -0.846   5.569  -1.496  0.00  0.00    +0.420 HD
ENDROOT
BRANCH   5   7
ATOM      7  C   UNK A  0       -2.449   5.825  -2.761  0.00  0.00    +0.390 A 
ATOM      8  C   UNK A  0       -2.302   7.201  -2.892  0.00  0.00    -0.030 A 
ATOM      9  C   UNK A  0       -3.213   7.905  -3.661  0.00  0.00    +0.110 A 
ATOM     10  C   UNK A  0       -4.250   7.206  -4.264  0.00  0.00    -0.010 A 
ATOM     11  C   UNK A  0       -4.338   5.840  -4.086  0.00  0.00    +0.070 A 
ATOM     12  N   UNK A  0       -3.452   5.195  -3.352  0.00  0.00    -0.440 NA
BRANCH  11  13
ATOM     13  C   UNK A  0       -5.462   5.075  -4.738  0.00  0.00    +0.520 C 
ATOM     14  F   UNK A  0       -5.325   5.143  -6.128  0.00  0.00    -0.170 F 
ATOM     15  F   UNK A  0       -6.687   5.636  -4.361  0.00  0.00    -0.170 F 
ATOM     16  F   UNK A  0       -5.415   3.738  -4.329  0.00  0.00    -0.150 F 
ENDBRANCH  11  13
ENDBRANCH   5   7
BRANCH   3  17
ATOM     17  CA  TRP A  1       -0.749   1.592  -1.237  0.00  0.00    +0.270 C 
BRANCH  17  18
ATOM     18  CB  TRP A  1       -0.007   1.085   0.002  0.00  0.00    +0.120 C 
BRANCH  18  19
ATOM     19  CG  TRP A  1       -0.712   1.568   1.242  0.00  0.00    -0.170 A 
ATOM     20  CD1 TRP A  1       -0.414   2.668   1.953  0.00  0.00    +0.220 A 
ATOM     21  NE1 TRP A  1       -1.271   2.784   3.014  0.00  0.00    -0.600 N 
ATOM     22  HE1 TRP A  1       -1.252   3.499   3.669  0.00  0.00    +0.420 HD
ATOM     23  CE2 TRP A  1       -2.163   1.736   3.012  0.00  0.00    +0.100 A 
ATOM     24  CZ2 TRP A  1       -3.220   1.376   3.842  0.00  0.00    -0.010 A 
ATOM     25  CH2 TRP A  1       -3.947   0.237   3.570  0.00  0.00    +0.030 A 
ATOM     26  CZ3 TRP A  1       -3.636  -0.556   2.474  0.00  0.00    -0.030 A 
ATOM     27  CE3 TRP A  1       -2.603  -0.221   1.646  0.00  0.00    +0.050 A 
ATOM     28  CD2 TRP A  1       -1.857   0.931   1.899  0.00  0.00    -0.100 A 
ENDBRANCH  18  19
ENDBRANCH  17  18
BRANCH  17  29
ATOM     29  C   TRP A  1       -0.108   1.000  -2.494  0.00  0.00    +0.170 C 
BRANCH  29  30
ATOM     30  O   TRP A  1        1.289   1.301  -2.503  0.00  0.00    -0.570 OA
ATOM     31  H   TRP A  1        1.761   0.955  -3.273  0.00  0.00    +0.380 HD
ENDBRANCH  29  30
ENDBRANCH  17  29
ENDBRANCH   3  17
TORSDOF 7
