REMARK  Name = ZINCpk00000k2A5Q.0
REMARK                            x       y       z     vdW  Elec       q    Type
REMARK                         _______ _______ _______ _____ _____    ______ ____
ROOT
ATOM      1  C   LIG    1        1.278   2.115   0.001  0.00  0.00    +0.280 C 
ATOM      2  C   LIG    1        2.074   1.763  -1.258  0.00  0.00    +0.100 C 
ENDROOT
BRANCH   1   5
ATOM      3  C   LIG    1        0.526   5.571  -0.611  0.00  0.00    -0.020 A 
ATOM      4  C   LIG    1        0.737   4.317  -1.075  0.00  0.00    +0.200 A 
ATOM      5  N   LIG    1        0.991   3.551   0.012  0.00  0.00    -0.280 N 
ATOM      6  N   LIG    1        0.943   4.303   1.055  0.00  0.00    -0.080 NA
ATOM      7  N   LIG    1        0.668   5.513   0.718  0.00  0.00    -0.240 NA
BRANCH   3   8
ATOM      8  C   LIG    1        0.202   6.793  -1.431  0.00  0.00    +0.040 C 
ATOM      9  C   LIG    1        1.462   7.272  -2.154  0.00  0.00    +0.080 C 
ATOM     10  C   LIG    1       -0.312   7.902  -0.512  0.00  0.00    +0.080 C 
BRANCH   8  11
ATOM     11  C   LIG    1       -0.859   6.449  -2.446  0.00  0.00    +0.470 C 
ATOM     12  O   LIG    1       -1.305   5.328  -2.497  0.00  0.00    -0.500 OA
BRANCH  11  14
ATOM     13  C   LIG    1       -2.329   6.988  -4.242  0.00  0.00    +0.250 C 
ATOM     14  O   LIG    1       -1.307   7.390  -3.292  0.00  0.00    -0.350 OA
ENDBRANCH  11  14
ENDBRANCH   8  11
ENDBRANCH   3   8
ENDBRANCH   1   5
BRANCH   1  15
ATOM     15  C   LIG    1       -0.016   1.344   0.009  0.00  0.00    +0.510 C 
ATOM     16  N   LIG    1        0.002  -0.004   0.002  0.00  0.00    -0.720 N 
ATOM     17  H   LIG    1        0.849  -0.478  -0.009  0.00  0.00    +0.410 HD
ATOM     18  O   LIG    1       -1.075   1.936   0.018  0.00  0.00    -0.500 OA
BRANCH  16  19
ATOM     19  C   LIG    1       -1.256  -0.754   0.010  0.00  0.00    +0.350 C 
ATOM     20  C   LIG    1       -1.745  -0.914   1.451  0.00  0.00    +0.060 C 
BRANCH  19  21
ATOM     21  C   LIG    1       -1.035  -2.114  -0.600  0.00  0.00    -0.050 A 
ATOM     22  C   LIG    1       -1.873  -2.775  -1.434  0.00  0.00    -0.030 A 
ATOM     23  C   LIG    1       -1.198  -3.987  -1.706  0.00  0.00    +0.020 A 
ATOM     24  N   LIG    1       -0.078  -3.940  -1.045  0.00  0.00    -0.360 NA
ATOM     25  C   LIG    1       -1.680  -5.111  -2.587  0.00  0.00    +0.160 C 
ATOM     26  O   LIG    1        0.033  -2.906  -0.429  0.00  0.00    +0.100 OA
ENDBRANCH  19  21
ENDBRANCH  16  19
ENDBRANCH   1  15
TORSDOF 7
