REMARK  Name = ZINCrH000004szN8.0
REMARK                            x       y       z     vdW  Elec       q    Type
REMARK                         _______ _______ _______ _____ _____    ______ ____
ROOT
ATOM      1  C   LIG    1        6.601   2.467  -1.447  0.00  0.00    +0.510 C 
ATOM      2  N   LIG    1        7.803   2.991  -1.758  0.00  0.00    -0.680 N 
ATOM      3  H   LIG    1        8.383   3.325  -1.056  0.00  0.00    +0.410 HD
ATOM      4  O   LIG    1        5.840   2.128  -2.329  0.00  0.00    -0.500 OA
ENDROOT
BRANCH   2   5
ATOM      5  C   LIG    1        8.214   3.052  -3.095  0.00  0.00    +0.140 A 
ATOM      6  C   LIG    1        9.554   2.874  -3.417  0.00  0.00    +0.010 A 
ATOM      7  C   LIG    1        9.965   2.929  -4.736  0.00  0.00    +0.030 A 
ATOM      8  C   LIG    1        9.050   3.171  -5.740  0.00  0.00    +0.030 A 
ATOM      9  C   LIG    1        7.702   3.355  -5.425  0.00  0.00    -0.120 A 
ATOM     10  C   LIG    1        7.287   3.295  -4.095  0.00  0.00    +0.080 A 
BRANCH   9  11
ATOM     11  C   LIG    1        6.718   3.614  -6.498  0.00  0.00    +0.560 C 
ATOM     12  N   LIG    1        7.096   4.267  -7.615  0.00  0.00    -0.620 N 
ATOM     13  C   LIG    1        8.447   4.824  -7.717  0.00  0.00    +0.280 C 
ATOM     14  C   LIG    1        6.155   4.419  -8.728  0.00  0.00    +0.290 C 
ATOM     15  O   LIG    1        5.569   3.238  -6.373  0.00  0.00    -0.520 OA
ENDBRANCH   9  11
ENDBRANCH   2   5
BRANCH   1  16
ATOM     16  C   LIG    1        6.201   2.304  -0.003  0.00  0.00    +0.120 C 
BRANCH  16  28
ATOM     17  C   LIG    1        5.893  -0.559   0.086  0.00  0.00    +0.130 C 
ATOM     18  C   LIG    1        4.667   0.317   0.115  0.00  0.00    +0.180 A 
ATOM     19  N   LIG    1        3.484  -0.243   0.180  0.00  0.00    -0.480 NA
ATOM     20  C   LIG    1        2.368   0.492   0.207  0.00  0.00    +0.140 A 
ATOM     21  C   LIG    1        1.101  -0.114   0.277  0.00  0.00    +0.040 A 
ATOM     22  C   LIG    1       -0.018   0.660   0.303  0.00  0.00    +0.030 A 
ATOM     23  C   LIG    1        0.069   2.050   0.262  0.00  0.00    +0.010 A 
ATOM     24  C   LIG    1        1.278   2.673   0.195  0.00  0.00    +0.040 A 
ATOM     25  C   LIG    1        2.453   1.906   0.166  0.00  0.00    -0.110 A 
ATOM     26  C   LIG    1        3.723   2.511   0.096  0.00  0.00    -0.000 A 
ATOM     27  C   LIG    1        3.864   4.010   0.050  0.00  0.00    +0.110 C 
ATOM     28  C   LIG    1        4.822   1.701   0.071  0.00  0.00    -0.130 A 
ENDBRANCH  16  28
ENDBRANCH   1  16
TORSDOF 4
