REMARK  Name = ZINCqH0000004Tjt.0
REMARK                            x       y       z     vdW  Elec       q    Type
REMARK                         _______ _______ _______ _____ _____    ______ ____
ROOT
ATOM      1  C   LIG    1       -0.046   1.211   0.071  0.00  0.00    +0.110 C 
ATOM      2  C   LIG    1       -0.694   1.543   1.387  0.00  0.00    -0.150 A 
ATOM      3  C   LIG    1       -0.400   0.775   2.500  0.00  0.00    +0.040 A 
ATOM      4  C   LIG    1       -0.985   1.064   3.719  0.00  0.00    -0.010 A 
ATOM      5  C   LIG    1       -1.867   2.122   3.830  0.00  0.00    +0.060 A 
ATOM      6  C   LIG    1       -2.164   2.890   2.724  0.00  0.00    +0.010 A 
ATOM      7  C   LIG    1       -1.579   2.603   1.496  0.00  0.00    +0.130 A 
ATOM      8  O   LIG    1       -1.886   3.368   0.421  0.00  0.00    -0.240 OA
ATOM      9  C   LIG    1       -1.682   2.893  -0.831  0.00  0.00    +0.130 A 
ATOM     10  C   LIG    1       -2.369   3.466  -1.895  0.00  0.00    +0.010 A 
ATOM     11  C   LIG    1       -2.174   2.997  -3.178  0.00  0.00    +0.060 A 
ATOM     12  C   LIG    1       -1.295   1.955  -3.408  0.00  0.00    -0.010 A 
ATOM     13  C   LIG    1       -0.611   1.382  -2.352  0.00  0.00    +0.070 A 
ATOM     14  C   LIG    1       -0.802   1.849  -1.063  0.00  0.00    -0.130 A 
ENDROOT
BRANCH   1  17
ATOM     15  N   LIG    1        2.246   1.280   0.998  0.00  0.00    -0.670 N 
ATOM     16  H   LIG    1        1.944   0.690   1.708  0.00  0.00    +0.410 HD
ATOM     17  C   LIG    1        1.372   1.721   0.072  0.00  0.00    +0.520 C 
ATOM     18  O   LIG    1        1.727   2.529  -0.760  0.00  0.00    -0.500 OA
BRANCH  15  21
ATOM     19  N   LIG    1        5.470   2.686   1.946  0.00  0.00    -0.490 N 
ATOM     20  C   LIG    1        4.167   2.301   1.995  0.00  0.00    +0.290 A 
ATOM     21  C   LIG    1        3.592   1.672   0.937  0.00  0.00    +0.030 A 
ATOM     22  C   LIG    1        4.351   1.411  -0.218  0.00  0.00    +0.130 A 
ATOM     23  C   LIG    1        5.655   1.804  -0.262  0.00  0.00    -0.070 A 
ATOM     24  C   LIG    1        6.218   2.452   0.851  0.00  0.00    +0.510 A 
ATOM     25  O   LIG    1        7.386   2.804   0.825  0.00  0.00    -0.550 OA
BRANCH  19  27
ATOM     26  C   LIG    1        6.674   2.321   4.044  0.00  0.00    +0.040 C 
ATOM     27  C   LIG    1        6.069   3.362   3.100  0.00  0.00    +0.280 C 
ENDBRANCH  19  27
ENDBRANCH  15  21
ENDBRANCH   1  17
TORSDOF 3
