REMARK  Name = ZINCrD000000fQGm.0
REMARK                            x       y       z     vdW  Elec       q    Type
REMARK                         _______ _______ _______ _____ _____    ______ ____
ROOT
ATOM      1  C   LIG    1       -2.180  -4.325  -0.316  0.00  0.00    +0.300 C 
ENDROOT
BRANCH   1   2
ATOM      2  N   LIG    1       -3.438  -5.067  -0.418  0.00  0.00    -1.120 NA
ATOM      3  H   LIG    1       -4.277  -4.634  -0.192  0.00  0.00    +0.420 HD
BRANCH   2   4
ATOM      4  S   LIG    1       -3.431  -6.646  -0.919  0.00  0.00    +2.700 S 
ATOM      5  O   LIG    1       -2.634  -6.689  -2.095  0.00  0.00    -0.950 OA
ATOM      6  O   LIG    1       -4.781  -7.086  -0.879  0.00  0.00    -0.950 OA
BRANCH   4  10
ATOM      7  C   LIG    1       -1.210  -9.041   2.222  0.00  0.00    -0.120 A 
ATOM      8  C   LIG    1       -2.593  -8.861   2.323  0.00  0.00    +0.050 A 
ATOM      9  C   LIG    1       -3.262  -8.131   1.364  0.00  0.00    +0.120 A 
ATOM     10  C   LIG    1       -2.567  -7.577   0.302  0.00  0.00    -0.650 A 
ATOM     11  C   LIG    1       -1.199  -7.755   0.193  0.00  0.00    +0.120 A 
ATOM     12  C   LIG    1       -0.516  -8.478   1.147  0.00  0.00    +0.060 A 
BRANCH   7  14
ATOM     13  C   LIG    1        1.001 -10.012   3.129  0.00  0.00    +0.080 C 
ATOM     14  C   LIG    1       -0.489  -9.820   3.242  0.00  0.00    +0.390 C 
ATOM     15  O   LIG    1       -1.094 -10.308   4.172  0.00  0.00    -0.440 OA
ENDBRANCH   7  14
ENDBRANCH   4  10
ENDBRANCH   2   4
ENDBRANCH   1   2
BRANCH   1  16
ATOM     16  C   LIG    1       -2.478  -2.828  -0.204  0.00  0.00    +0.070 C 
BRANCH  16  17
ATOM     17  C   LIG    1       -1.183  -2.065  -0.099  0.00  0.00    +0.520 C 
ATOM     18  N   LIG    1       -1.199  -0.722   0.010  0.00  0.00    -0.670 N 
ATOM     19  H   LIG    1       -2.044  -0.253   0.098  0.00  0.00    +0.410 HD
ATOM     20  O   LIG    1       -0.125  -2.659  -0.113  0.00  0.00    -0.510 OA
BRANCH  18  21
ATOM     21  C   LIG    1        0.002  -0.004  -0.004  0.00  0.00    +0.140 A 
ATOM     22  C   LIG    1        0.126   1.159   0.746  0.00  0.00    -0.030 A 
ATOM     23  C   LIG    1        1.313   1.865   0.729  0.00  0.00    +0.030 A 
ATOM     24  C   LIG    1        2.376   1.416  -0.032  0.00  0.00    -0.010 A 
ATOM     25  C   LIG    1        2.255   0.259  -0.779  0.00  0.00    -0.060 A 
ATOM     26  C   LIG    1        1.072  -0.452  -0.767  0.00  0.00    +0.010 A 
BRANCH  25  27
ATOM     27  C   LIG    1        3.417  -0.227  -1.607  0.00  0.00    +0.020 C 
ATOM     28  C   LIG    1        4.615  -0.498  -0.695  0.00  0.00    +0.040 C 
ATOM     29  C   LIG    1        3.791   0.841  -2.637  0.00  0.00    +0.040 C 
ENDBRANCH  25  27
ENDBRANCH  18  21
ENDBRANCH  16  17
ENDBRANCH   1  16
TORSDOF 8
