REMARK  Name = ZINCqH0000002ZjR.0
REMARK                            x       y       z     vdW  Elec       q    Type
REMARK                         _______ _______ _______ _____ _____    ______ ____
ROOT
ATOM      1  N   LIG    1       -3.658   2.533   0.173  0.00  0.00    -0.590 N 
ATOM      2  C   LIG    1       -2.592   1.717   0.048  0.00  0.00    +0.590 C 
ATOM      3  O   LIG    1       -2.754   0.516  -0.056  0.00  0.00    -0.520 OA
ENDROOT
BRANCH   2   4
ATOM      4  C   LIG    1       -1.233   2.280   0.038  0.00  0.00    -0.140 A 
ATOM      5  C   LIG    1       -0.753   3.080   1.022  0.00  0.00    -0.050 A 
ATOM      6  S   LIG    1        0.852   3.546   0.696  0.00  0.00    +0.190 S 
ATOM      7  C   LIG    1        0.891   2.650  -0.814  0.00  0.00    -0.200 A 
ATOM      8  C   LIG    1        2.080   2.574  -1.751  0.00  0.00    +0.110 C 
ATOM      9  C   LIG    1        1.876   1.398  -2.710  0.00  0.00    +0.020 C 
ATOM     10  C   LIG    1        0.476   1.491  -3.325  0.00  0.00    +0.020 C 
ATOM     11  C   LIG    1       -0.568   1.180  -2.250  0.00  0.00    +0.100 C 
ATOM     12  C   LIG    1       -0.281   2.037  -1.028  0.00  0.00    -0.060 A 
ENDBRANCH   2   4
BRANCH   1  14
ATOM     13  C   LIG    1       -3.681   4.530  -1.238  0.00  0.00    +0.020 C 
ATOM     14  C   LIG    1       -3.473   3.986   0.177  0.00  0.00    +0.270 C 
ENDBRANCH   1  14
BRANCH   1  15
ATOM     15  C   LIG    1       -5.003   1.966   0.306  0.00  0.00    +0.330 C 
BRANCH  15  16
ATOM     16  C   LIG    1       -5.315   1.749   1.764  0.00  0.00    +0.500 C 
ATOM     17  N   LIG    1       -6.505   1.232   2.129  0.00  0.00    -0.670 N 
ATOM     18  H   LIG    1       -7.186   1.063   1.460  0.00  0.00    +0.410 HD
ATOM     19  O   LIG    1       -4.495   2.039   2.610  0.00  0.00    -0.500 OA
BRANCH  17  20
ATOM     20  C   LIG    1       -6.758   0.939   3.474  0.00  0.00    +0.180 A 
ATOM     21  C   LIG    1       -7.540  -0.158   3.811  0.00  0.00    -0.050 A 
ATOM     22  C   LIG    1       -7.786  -0.450   5.139  0.00  0.00    +0.070 A 
ATOM     23  C   LIG    1       -7.263   0.354   6.134  0.00  0.00    -0.090 A 
ATOM     24  C   LIG    1       -6.485   1.454   5.803  0.00  0.00    +0.140 A 
ATOM     25  C   LIG    1       -6.232   1.747   4.472  0.00  0.00    -0.010 A 
BRANCH  24  26
ATOM     26  O   LIG    1       -5.972   2.244   6.782  0.00  0.00    -0.320 OA
ATOM     27  C   LIG    1       -6.273   1.883   8.132  0.00  0.00    +0.250 C 
ENDBRANCH  24  26
ENDBRANCH  17  20
ENDBRANCH  15  16
ENDBRANCH   1  15
TORSDOF 6
