REMARK  Name = ZINCrH00000No4Vc.1
REMARK                            x       y       z     vdW  Elec       q    Type
REMARK                         _______ _______ _______ _____ _____    ______ ____
ROOT
ATOM      1  N   LIG    1        2.174   4.501   0.125  0.00  0.00    -0.670 N 
ATOM      2  H   LIG    1        2.694   4.577   0.940  0.00  0.00    +0.410 HD
ATOM      3  C   LIG    1        2.627   5.051  -1.018  0.00  0.00    +0.570 C 
ATOM      4  O   LIG    1        1.965   4.974  -2.035  0.00  0.00    -0.520 OA
ENDROOT
BRANCH   1   8
ATOM      5  C   LIG    1       -0.583   0.787   1.792  0.00  0.00    +0.110 C 
ATOM      6  C   LIG    1       -0.413   2.016   0.936  0.00  0.00    -0.070 A 
ATOM      7  C   LIG    1        0.793   2.687   0.925  0.00  0.00    +0.010 A 
ATOM      8  C   LIG    1        0.950   3.820   0.137  0.00  0.00    +0.160 A 
ATOM      9  C   LIG    1       -0.106   4.276  -0.640  0.00  0.00    +0.040 A 
ATOM     10  C   LIG    1       -1.312   3.603  -0.628  0.00  0.00    +0.050 A 
ATOM     11  C   LIG    1       -1.466   2.469   0.155  0.00  0.00    +0.060 A 
BRANCH  11  12
ATOM     12  O   LIG    1       -2.652   1.804   0.162  0.00  0.00    -0.250 OA
BRANCH  12  13
ATOM     13  C   LIG    1       -3.435   1.908   1.266  0.00  0.00    +0.170 A 
ATOM     14  C   LIG    1       -3.086   2.761   2.311  0.00  0.00    -0.110 A 
ATOM     15  C   LIG    1       -3.911   2.843   3.413  0.00  0.00    +0.290 A 
ATOM     16  N   LIG    1       -5.012   2.119   3.490  0.00  0.00    -0.510 NA
ATOM     17  C   LIG    1       -5.373   1.296   2.523  0.00  0.00    +0.290 A 
ATOM     18  C   LIG    1       -4.605   1.162   1.385  0.00  0.00    -0.060 A 
ENDBRANCH  12  13
ENDBRANCH  11  12
ENDBRANCH   1   8
BRANCH   3  19
ATOM     19  C   LIG    1        3.928   5.748  -1.037  0.00  0.00    -0.170 A 
ATOM     20  C   LIG    1        4.688   5.843   0.133  0.00  0.00    +0.060 A 
ATOM     21  C   LIG    1        5.903   6.489   0.111  0.00  0.00    +0.050 A 
ATOM     22  C   LIG    1        6.370   7.057  -1.071  0.00  0.00    +0.210 A 
ATOM     23  C   LIG    1        5.613   6.969  -2.235  0.00  0.00    -0.030 A 
ATOM     24  C   LIG    1        4.400   6.320  -2.222  0.00  0.00    +0.110 A 
BRANCH  22  25
ATOM     25  N   LIG    1        7.598   7.715  -1.088  0.00  0.00    -0.660 N 
ATOM     26  H   LIG    1        7.729   8.482  -1.667  0.00  0.00    +0.420 HD
BRANCH  25  27
ATOM     27  C   LIG    1        8.626   7.276  -0.283  0.00  0.00    +0.630 C 
ATOM     28  N   LIG    1        8.406   6.350   0.608  0.00  0.00    -0.810 NA
ATOM     29  H   LIG    1        9.130   6.041   1.175  0.00  0.00    +0.340 HD
BRANCH  27  30
ATOM     30  N   LIG    1        9.884   7.814  -0.418  0.00  0.00    -0.890 N 
ATOM     31  H   LIG    1       10.623   7.455   0.097  0.00  0.00    +0.410 HD
ATOM     32  H   LIG    1       10.031   8.553  -1.029  0.00  0.00    +0.390 HD
ENDBRANCH  27  30
ENDBRANCH  25  27
ENDBRANCH  22  25
ENDBRANCH   3  19
TORSDOF 7
