REMARK  Name = ZINCrH00000No4vC.0
REMARK                            x       y       z     vdW  Elec       q    Type
REMARK                         _______ _______ _______ _____ _____    ______ ____
ROOT
ATOM      1  C   LIG    1       -5.712   5.863   4.026  0.00  0.00    -0.070 A 
ATOM      2  C   LIG    1       -6.676   4.874   4.160  0.00  0.00    +0.020 A 
ATOM      3  C   LIG    1       -7.833   5.136   4.910  0.00  0.00    +0.200 A 
ATOM      4  N   LIG    1       -8.042   6.295   5.498  0.00  0.00    -0.450 NA
ATOM      5  C   LIG    1       -7.169   7.302   5.422  0.00  0.00    +0.130 A 
ATOM      6  C   LIG    1       -7.420   8.530   6.061  0.00  0.00    +0.050 A 
ATOM      7  C   LIG    1       -6.511   9.539   5.965  0.00  0.00    +0.050 A 
ATOM      8  C   LIG    1       -5.331   9.377   5.243  0.00  0.00    +0.020 A 
ATOM      9  C   LIG    1       -5.054   8.200   4.612  0.00  0.00    +0.060 A 
ATOM     10  C   LIG    1       -5.963   7.141   4.694  0.00  0.00    -0.060 A 
ENDROOT
BRANCH   3  11
ATOM     11  C   LIG    1       -8.854   4.071   5.045  0.00  0.00    -0.070 A 
ATOM     12  C   LIG    1       -8.662   2.836   4.427  0.00  0.00    +0.060 A 
ATOM     13  C   LIG    1       -9.614   1.846   4.559  0.00  0.00    -0.020 A 
ATOM     14  C   LIG    1      -10.764   2.081   5.295  0.00  0.00    +0.120 A 
ATOM     15  C   LIG    1      -10.962   3.309   5.906  0.00  0.00    -0.020 A 
ATOM     16  F   LIG    1      -11.696   1.110   5.417  0.00  0.00    -0.130 F 
ATOM     17  C   LIG    1      -10.014   4.303   5.784  0.00  0.00    +0.110 A 
ENDBRANCH   3  11
BRANCH   1  19
ATOM     18  O   LIG    1       -3.698   6.548   3.058  0.00  0.00    -0.480 OA
ATOM     19  C   LIG    1       -4.477   5.634   3.246  0.00  0.00    +0.580 C 
ATOM     20  N   LIG    1       -4.216   4.411   2.743  0.00  0.00    -0.580 N 
ATOM     21  H   LIG    1       -4.837   3.682   2.893  0.00  0.00    +0.390 HD
BRANCH  20  22
ATOM     22  N   LIG    1       -3.046   4.193   2.004  0.00  0.00    -0.220 NA
ATOM     23  C   LIG    1       -2.797   3.032   1.526  0.00  0.00    +0.210 C 
BRANCH  23  24
ATOM     24  C   LIG    1       -1.539   2.797   0.731  0.00  0.00    +0.030 C 
ATOM     25  C   LIG    1       -0.731   1.597   1.298  0.00  0.00    +0.020 C 
ATOM     26  C   LIG    1        0.011   1.082   0.046  0.00  0.00    +0.200 C 
ATOM     27  O   LIG    1       -0.704   1.548  -1.105  0.00  0.00    -0.380 OA
ATOM     28  C   LIG    1       -1.866   2.286  -0.695  0.00  0.00    +0.220 C 
ENDBRANCH  23  24
ENDBRANCH  20  22
ENDBRANCH   1  19
TORSDOF 4
