REMARK  Name = ZINCrH00000No4v5.0
REMARK                            x       y       z     vdW  Elec       q    Type
REMARK                         _______ _______ _______ _____ _____    ______ ____
ROOT
ATOM      1  O   LIG    1        2.300   1.478  -0.476  0.00  0.00    -0.520 OA
ATOM      2  C   LIG    1        1.306   2.095  -0.139  0.00  0.00    +0.550 C 
ATOM      3  N   LIG    1        0.153   1.438   0.094  0.00  0.00    -0.600 N 
ENDROOT
BRANCH   3   4
ATOM      4  C   LIG    1        0.120  -0.026   0.040  0.00  0.00    +0.270 C 
ATOM      5  C   LIG    1        1.104  -0.604   1.072  0.00  0.00    +0.070 C 
ATOM      6  C   LIG    1        1.265  -2.110   0.737  0.00  0.00    -0.310 C 
ATOM      7  S   LIG    1        1.387  -2.100  -1.092  0.00  0.00    +2.400 S 
ATOM      8  O   LIG    1        0.594  -3.154  -1.622  0.00  0.00    -0.940 OA
ATOM      9  O   LIG    1        2.751  -1.980  -1.472  0.00  0.00    -0.920 OA
ATOM     10  C   LIG    1        0.542  -0.503  -1.363  0.00  0.00    -0.320 C 
ENDBRANCH   3   4
BRANCH   2  11
ATOM     11  C   LIG    1        1.364   3.549   0.015  0.00  0.00    -0.090 C 
ATOM     12  C   LIG    1        2.542   4.194  -0.106  0.00  0.00    +0.130 C 
BRANCH  12  13
ATOM     13  C   LIG    1        2.582   5.664  -0.082  0.00  0.00    -0.070 A 
ATOM     14  C   LIG    1        1.430   6.394   0.225  0.00  0.00    +0.040 A 
ATOM     15  C   LIG    1        1.476   7.772   0.251  0.00  0.00    +0.010 A 
ATOM     16  C   LIG    1        2.657   8.434  -0.038  0.00  0.00    +0.050 A 
ATOM     17  C   LIG    1        3.801   7.721  -0.348  0.00  0.00    +0.030 A 
ATOM     18  C   LIG    1        3.773   6.341  -0.373  0.00  0.00    -0.010 A 
ATOM     19 CL   LIG    1        5.209   5.447  -0.762  0.00  0.00    -0.050 Cl
ENDBRANCH  12  13
ENDBRANCH   2  11
BRANCH   3  20
ATOM     20  C   LIG    1       -1.069   2.187   0.395  0.00  0.00    +0.350 C 
BRANCH  20  21
ATOM     21  C   LIG    1       -1.183   2.386   1.885  0.00  0.00    -0.090 A 
ATOM     22  C   LIG    1       -1.847   1.453   2.658  0.00  0.00    +0.010 A 
ATOM     23  C   LIG    1       -1.948   1.632   4.025  0.00  0.00    +0.050 A 
ATOM     24  C   LIG    1       -1.393   2.750   4.619  0.00  0.00    -0.010 A 
ATOM     25  C   LIG    1       -0.731   3.688   3.845  0.00  0.00    +0.100 A 
ATOM     26  F   LIG    1       -0.188   4.781   4.424  0.00  0.00    -0.140 F 
ATOM     27  C   LIG    1       -0.626   3.505   2.476  0.00  0.00    -0.010 A 
ENDBRANCH  20  21
ENDBRANCH   3  20
TORSDOF 5
