REMARK  Name = ZINCrH000004sw3a.0
REMARK                            x       y       z     vdW  Elec       q    Type
REMARK                         _______ _______ _______ _____ _____    ______ ____
ROOT
ATOM      1  N   LIG    1        0.747  -2.722  -0.156  0.00  0.00    -0.740 N 
ATOM      2  H   LIG    1       -0.087  -2.446  -0.568  0.00  0.00    +0.390 HD
ATOM      3  C   LIG    1        0.884  -3.977   0.314  0.00  0.00    +0.710 C 
ATOM      4  N   LIG    1       -0.137  -4.850   0.213  0.00  0.00    -0.670 N 
ATOM      5  H   LIG    1       -0.998  -4.553  -0.123  0.00  0.00    +0.420 HD
ATOM      6  O   LIG    1        1.930  -4.322   0.830  0.00  0.00    -0.550 OA
ENDROOT
BRANCH   4   7
ATOM      7  C   LIG    1        0.043  -6.188   0.593  0.00  0.00    +0.210 A 
ATOM      8  C   LIG    1        1.310  -6.749   0.579  0.00  0.00    +0.040 A 
ATOM      9  C   LIG    1        1.486  -8.068   0.959  0.00  0.00    -0.010 A 
ATOM     10  C   LIG    1        0.399  -8.832   1.344  0.00  0.00    +0.020 A 
ATOM     11  C   LIG    1       -0.869  -8.280   1.356  0.00  0.00    +0.020 A 
ATOM     12 CL   LIG    1        3.075  -8.768   0.947  0.00  0.00    -0.060 Cl
ATOM     13  C   LIG    1       -1.053  -6.958   0.982  0.00  0.00    +0.050 A 
BRANCH  13  14
ATOM     14  N   LIG    1       -2.336  -6.397   0.993  0.00  0.00    -0.510 N 
ATOM     15  C   LIG    1       -2.881  -6.356   2.356  0.00  0.00    +0.220 C 
ATOM     16  C   LIG    1       -3.236  -7.125   0.088  0.00  0.00    +0.210 C 
ENDBRANCH  13  14
ENDBRANCH   4   7
BRANCH   1  17
ATOM     17  C   LIG    1        1.858  -1.773  -0.046  0.00  0.00    +0.430 C 
BRANCH  17  22
ATOM     18  C   LIG    1       -1.228   2.227  -0.047  0.00  0.00    +0.200 C 
ATOM     19  C   LIG    1       -0.004   1.348  -0.045  0.00  0.00    +0.190 A 
ATOM     20  N   LIG    1        1.238   1.751  -0.054  0.00  0.00    -0.280 NA
ATOM     21  N   LIG    1        2.023   0.733  -0.056  0.00  0.00    -0.260 NA
ATOM     22  C   LIG    1        1.319  -0.366  -0.047  0.00  0.00    +0.170 A 
ATOM     23  N   LIG    1        0.012  -0.006  -0.041  0.00  0.00    -0.580 N 
ATOM     24  H   LIG    1       -0.756  -0.599  -0.034  0.00  0.00    +0.420 HD
ENDBRANCH  17  22
BRANCH  17  25
ATOM     25  C   LIG    1        2.792  -1.954  -1.215  0.00  0.00    -0.100 A 
ATOM     26  C   LIG    1        2.281  -2.194  -2.477  0.00  0.00    +0.010 A 
ATOM     27  C   LIG    1        3.137  -2.357  -3.550  0.00  0.00    +0.000 A 
ATOM     28  C   LIG    1        4.505  -2.288  -3.359  0.00  0.00    +0.010 A 
ATOM     29  C   LIG    1        5.016  -2.053  -2.096  0.00  0.00    +0.010 A 
ATOM     30  C   LIG    1        4.159  -1.887  -1.024  0.00  0.00    +0.050 A 
ENDBRANCH  17  25
ENDBRANCH   1  17
TORSDOF 5
