REMARK  Name = ZINCrH000004mHH9.0
REMARK                            x       y       z     vdW  Elec       q    Type
REMARK                         _______ _______ _______ _____ _____    ______ ____
ROOT
ATOM      1  C   LIG    1       -5.447  -2.947   1.391  0.00  0.00    +0.240 C 
ATOM      2  C   LIG    1       -6.934  -3.337   1.464  0.00  0.00    +0.040 C 
ATOM      3  C   LIG    1       -6.985  -2.510   2.761  0.00  0.00    +0.270 C 
ATOM      4  N   LIG    1       -5.810  -1.788   2.229  0.00  0.00    -0.630 N 
ATOM      5  C   LIG    1       -5.282  -0.563   2.427  0.00  0.00    +0.610 C 
ATOM      6  O   LIG    1       -4.329  -0.197   1.764  0.00  0.00    -0.500 OA
ENDROOT
BRANCH   5   7
ATOM      7  C   LIG    1       -5.837   0.298   3.408  0.00  0.00    -0.080 A 
ATOM      8  C   LIG    1       -5.412   0.445   4.718  0.00  0.00    +0.040 A 
ATOM      9  N   LIG    1       -6.188   1.342   5.306  0.00  0.00    -0.460 NA
ATOM     10  C   LIG    1       -7.099   1.787   4.442  0.00  0.00    +0.240 A 
ATOM     11  C   LIG    1       -8.135   2.729   4.573  0.00  0.00    +0.080 A 
ATOM     12  C   LIG    1       -8.934   2.998   3.502  0.00  0.00    +0.060 A 
ATOM     13  C   LIG    1       -8.713   2.332   2.289  0.00  0.00    +0.040 A 
ATOM     14  C   LIG    1       -7.712   1.429   2.182  0.00  0.00    +0.210 A 
ATOM     15  N   LIG    1       -6.906   1.160   3.244  0.00  0.00    -0.330 N 
BRANCH   8  16
ATOM     16  C   LIG    1       -4.265  -0.289   5.363  0.00  0.00    +0.490 C 
ATOM     17  F   LIG    1       -3.082  -0.005   4.672  0.00  0.00    -0.180 F 
ATOM     18  F   LIG    1       -4.511  -1.665   5.322  0.00  0.00    -0.190 F 
ENDBRANCH   8  16
ENDBRANCH   5   7
BRANCH   1  19
ATOM     19  C   LIG    1       -4.976  -2.569  -0.015  0.00  0.00    +0.090 C 
BRANCH  19  23
ATOM     20  C   LIG    1       -0.736  -2.038  -0.002  0.00  0.00    +0.130 A 
ATOM     21  C   LIG    1       -1.573  -0.941  -0.146  0.00  0.00    -0.090 A 
ATOM     22  C   LIG    1       -2.943  -1.116  -0.156  0.00  0.00    +0.090 A 
ATOM     23  C   LIG    1       -3.481  -2.382  -0.010  0.00  0.00    -0.130 A 
ATOM     24  C   LIG    1       -2.648  -3.476   0.139  0.00  0.00    +0.050 A 
ATOM     25  C   LIG    1       -1.277  -3.307   0.144  0.00  0.00    -0.030 A 
BRANCH  20  27
ATOM     26  C   LIG    1        1.100  -0.534  -0.153  0.00  0.00    +0.240 C 
ATOM     27  O   LIG    1        0.613  -1.869   0.002  0.00  0.00    -0.320 OA
ENDBRANCH  20  27
ENDBRANCH  19  23
ENDBRANCH   1  19
TORSDOF 5
