REMARK  Name = ZINCqH0000005ZYz.0
REMARK                            x       y       z     vdW  Elec       q    Type
REMARK                         _______ _______ _______ _____ _____    ______ ____
ROOT
ATOM      1  C   LIG    1        2.716   0.175  -0.022  0.00  0.00    +0.570 C 
ATOM      2  N   LIG    1        2.410   1.487  -0.013  0.00  0.00    -0.640 N 
ATOM      3  H   LIG    1        3.119   2.150  -0.017  0.00  0.00    +0.410 HD
ATOM      4  O   LIG    1        1.829  -0.656  -0.018  0.00  0.00    -0.490 OA
ENDROOT
BRANCH   1   9
ATOM      5  C   LIG    1        5.785  -2.007  -0.063  0.00  0.00    -0.130 A 
ATOM      6  C   LIG    1        6.796  -1.043  -0.068  0.00  0.00    +0.120 A 
ATOM      7  C   LIG    1        6.473   0.300  -0.058  0.00  0.00    +0.010 A 
ATOM      8  C   LIG    1        5.152   0.699  -0.049  0.00  0.00    +0.080 A 
ATOM      9  C   LIG    1        4.131  -0.255  -0.038  0.00  0.00    -0.140 A 
ATOM     10  C   LIG    1        4.448  -1.611  -0.048  0.00  0.00    +0.170 A 
BRANCH   5  11
ATOM     11  C   LIG    1        6.131  -3.443  -0.073  0.00  0.00    +0.510 C 
ATOM     12  O   LIG    1        5.251  -4.280  -0.068  0.00  0.00    -0.490 OA
BRANCH  11  14
ATOM     13  C   LIG    1        7.689  -5.252  -0.096  0.00  0.00    +0.290 C 
ATOM     14  O   LIG    1        7.423  -3.824  -0.087  0.00  0.00    -0.350 OA
ENDBRANCH  11  14
ENDBRANCH   5  11
ENDBRANCH   1   9
BRANCH   2  15
ATOM     15  C   LIG    1        1.077   1.892   0.002  0.00  0.00    +0.300 A 
ATOM     16  C   LIG    1       -0.013   1.076   0.008  0.00  0.00    -0.100 A 
ATOM     17  C   LIG    1       -1.153   1.883   0.017  0.00  0.00    +0.250 A 
ATOM     18  N   LIG    1       -0.774   3.135   0.025  0.00  0.00    -0.260 NA
ATOM     19  N   LIG    1        0.626   3.174   0.013  0.00  0.00    -0.380 N 
BRANCH  19  20
ATOM     20  C   LIG    1        1.457   4.380   0.011  0.00  0.00    +0.390 C 
BRANCH  20  21
ATOM     21  C   LIG    1        1.729   4.802  -1.410  0.00  0.00    -0.100 A 
ATOM     22  C   LIG    1        2.894   4.404  -2.037  0.00  0.00    +0.020 A 
ATOM     23  C   LIG    1        3.141   4.786  -3.343  0.00  0.00    +0.030 A 
ATOM     24  C   LIG    1        2.228   5.574  -4.018  0.00  0.00    +0.040 A 
ATOM     25  C   LIG    1        1.065   5.977  -3.389  0.00  0.00    +0.050 A 
ATOM     26  C   LIG    1        0.814   5.590  -2.084  0.00  0.00    -0.070 A 
ATOM     27 BR   LIG    1       -0.777   6.140  -1.224  0.00  0.00    -0.020 Br
ENDBRANCH  20  21
ENDBRANCH  19  20
ENDBRANCH   2  15
TORSDOF 6
