REMARK  Name = ZINCqH0000038QSu.0
REMARK                            x       y       z     vdW  Elec       q    Type
REMARK                         _______ _______ _______ _____ _____    ______ ____
ROOT
ATOM      1  C   LIG    1        1.259   1.760   0.033  0.00  0.00    +0.090 A 
ATOM      2  C   LIG    1        2.052   0.703  -0.270  0.00  0.00    +0.010 A 
ATOM      3  N   LIG    1        1.264  -0.439  -0.199  0.00  0.00    -0.410 N 
ATOM      4  C   LIG    1        1.396  -1.798  -0.373  0.00  0.00    +0.220 A 
ATOM      5  C   LIG    1        0.336  -2.567  -0.197  0.00  0.00    +0.010 A 
ATOM      6  S   LIG    1       -0.984  -1.466   0.238  0.00  0.00    +0.160 S 
ATOM      7  C   LIG    1        0.019  -0.011   0.147  0.00  0.00    +0.160 A 
ATOM      8  N   LIG    1        0.019   1.294   0.284  0.00  0.00    -0.430 NA
ENDROOT
BRANCH   1  13
ATOM      9 CL   LIG    1        2.963   7.497   0.219  0.00  0.00    -0.060 Cl
ATOM     10  C   LIG    1        2.469   5.834   0.166  0.00  0.00    -0.030 A 
ATOM     11  C   LIG    1        1.270   5.490  -0.435  0.00  0.00    +0.030 A 
ATOM     12  C   LIG    1        0.873   4.169  -0.481  0.00  0.00    +0.060 A 
ATOM     13  C   LIG    1        1.681   3.181   0.079  0.00  0.00    -0.000 A 
ATOM     14  C   LIG    1        2.884   3.533   0.687  0.00  0.00    +0.030 A 
ATOM     15  C   LIG    1        3.275   4.856   0.723  0.00  0.00    +0.030 A 
ENDBRANCH   1  13
BRANCH   2  16
ATOM     16  C   LIG    1        3.516   0.758  -0.620  0.00  0.00    +0.280 C 
BRANCH  16  17
ATOM     17  N   LIG    1        3.671   0.753  -2.081  0.00  0.00    -0.530 NA
ATOM     18  C   LIG    1        2.749   1.708  -2.712  0.00  0.00    +0.160 C 
ATOM     19  C   LIG    1        2.891   1.621  -4.234  0.00  0.00    +0.220 C 
ATOM     20  O   LIG    1        4.252   1.879  -4.594  0.00  0.00    -0.370 OA
ATOM     21  C   LIG    1        5.186   0.996  -3.983  0.00  0.00    +0.090 C 
ATOM     22  C   LIG    1        4.962  -0.445  -4.488  0.00  0.00    +0.010 C 
ATOM     23  C   LIG    1        6.045  -0.571  -5.591  0.00  0.00    +0.210 C 
ATOM     24  O   LIG    1        7.161   0.173  -5.057  0.00  0.00    -0.370 OA
ATOM     25  C   LIG    1        6.619   1.342  -4.416  0.00  0.00    +0.240 C 
ATOM     26  C   LIG    1        5.062   1.042  -2.464  0.00  0.00    +0.180 C 
ENDBRANCH  16  17
ENDBRANCH   2  16
TORSDOF 3
