REMARK  Name = ZINCnE000001Pwlq.0
REMARK                            x       y       z     vdW  Elec       q    Type
REMARK                         _______ _______ _______ _____ _____    ______ ____
ROOT
ATOM      1  C   LIG    1       -0.686  -0.695  -0.928  0.00  0.00    +0.510 C 
ATOM      2  N   LIG    1        0.002  -0.004   0.002  0.00  0.00    -0.610 N 
ATOM      3  C   LIG    1        0.786  -0.706   1.028  0.00  0.00    +0.260 C 
ATOM      4  C   LIG    1        2.220  -0.169   1.005  0.00  0.00    +0.010 C 
ATOM      5  C   LIG    1        2.194   1.353   1.166  0.00  0.00    +0.010 C 
ATOM      6  C   LIG    1        1.426   1.978  -0.001  0.00  0.00    -0.030 C 
ATOM      7  C   LIG    1       -0.018   1.465   0.010  0.00  0.00    +0.270 C 
ATOM      8  O   LIG    1       -1.329  -0.104  -1.770  0.00  0.00    -0.540 OA
ENDROOT
BRANCH   1   9
ATOM      9  C   LIG    1       -0.655  -2.202  -0.923  0.00  0.00    +0.040 C 
BRANCH   9  10
ATOM     10  C   LIG    1       -1.512  -2.733  -2.075  0.00  0.00    +0.040 C 
BRANCH  10  11
ATOM     11  C   LIG    1       -1.481  -4.263  -2.070  0.00  0.00    +0.060 C 
BRANCH  11  16
ATOM     12  C   LIG    1       -4.717  -6.268  -6.417  0.00  0.00    +0.100 C 
ATOM     13  C   LIG    1       -3.873  -5.746  -5.283  0.00  0.00    -0.090 A 
ATOM     14  C   LIG    1       -2.530  -5.489  -5.483  0.00  0.00    +0.000 A 
ATOM     15  C   LIG    1       -1.756  -5.009  -4.443  0.00  0.00    +0.010 A 
ATOM     16  C   LIG    1       -2.325  -4.786  -3.203  0.00  0.00    -0.080 A 
ATOM     17  C   LIG    1       -3.667  -5.048  -3.002  0.00  0.00    +0.010 A 
ATOM     18  C   LIG    1       -4.442  -5.524  -4.043  0.00  0.00    +0.000 A 
ENDBRANCH  11  16
ENDBRANCH  10  11
ENDBRANCH   9  10
ENDBRANCH   1   9
BRANCH   6  19
ATOM     19  C   LIG    1        1.428   3.501   0.143  0.00  0.00    +0.030 C 
BRANCH  19  20
ATOM     20  C   LIG    1        2.859   4.024   0.007  0.00  0.00    -0.070 C 
BRANCH  20  21
ATOM     21  C   LIG    1        2.861   5.524   0.149  0.00  0.00    +0.490 C 
ATOM     22  O   LIG    1        3.909   6.143   0.072  0.00  0.00    -0.710 OA
ATOM     23  O   LIG    1        1.815   6.120   0.342  0.00  0.00    -0.700 OA
ENDBRANCH  20  21
ENDBRANCH  19  20
ENDBRANCH   6  19
TORSDOF 7
