REMARK  Name = ZINCpk00000y6uIP.0
REMARK                            x       y       z     vdW  Elec       q    Type
REMARK                         _______ _______ _______ _____ _____    ______ ____
ROOT
ATOM      1  O   LIG    1       -2.313   4.228   5.956  0.00  0.00    -0.530 OA
ATOM      2  C   LIG    1       -2.818   3.284   5.380  0.00  0.00    +0.570 C 
ATOM      3  N   LIG    1       -3.724   2.514   6.014  0.00  0.00    -0.610 N 
ATOM      4  C   LIG    1       -4.320   1.279   5.483  0.00  0.00    +0.260 C 
ATOM      5  C   LIG    1       -5.274   0.729   6.564  0.00  0.00    +0.050 C 
ATOM      6  C   LIG    1       -4.742   1.385   7.866  0.00  0.00    +0.130 C 
ATOM      7  C   LIG    1       -4.286   2.773   7.351  0.00  0.00    +0.270 C 
ENDROOT
BRANCH   6   8
ATOM      8  N   LIG    1       -5.812   1.518   8.864  0.00  0.00    -0.530 NA
ATOM      9  C   LIG    1       -5.405   2.414   9.956  0.00  0.00    +0.150 C 
ATOM     10  C   LIG    1       -6.567   2.572  10.940  0.00  0.00    +0.220 C 
ATOM     11  O   LIG    1       -6.961   1.282  11.416  0.00  0.00    -0.380 OA
ATOM     12  C   LIG    1       -7.364   0.384  10.378  0.00  0.00    +0.220 C 
ATOM     13  C   LIG    1       -6.210   0.204   9.389  0.00  0.00    +0.160 C 
ENDBRANCH   6   8
BRANCH   2  14
ATOM     14  C   LIG    1       -2.437   2.981   3.984  0.00  0.00    -0.120 A 
ATOM     15  C   LIG    1       -1.611   3.855   3.276  0.00  0.00    +0.080 A 
ATOM     16  C   LIG    1       -1.260   3.567   1.974  0.00  0.00    +0.020 A 
ATOM     17  C   LIG    1       -1.725   2.413   1.368  0.00  0.00    -0.090 A 
ATOM     18  C   LIG    1       -2.549   1.544   2.062  0.00  0.00    +0.020 A 
ATOM     19  C   LIG    1       -2.903   1.818   3.367  0.00  0.00    +0.040 A 
BRANCH  17  20
ATOM     20  C   LIG    1       -1.338   2.104  -0.055  0.00  0.00    +0.350 C 
BRANCH  20  21
ATOM     21  N   LIG    1       -0.101   1.319  -0.065  0.00  0.00    -0.460 N 
ATOM     22  C   LIG    1       -0.005  -0.045  -0.030  0.00  0.00    +0.110 A 
ATOM     23  C   LIG    1        1.308  -0.345  -0.062  0.00  0.00    +0.140 A 
ATOM     24  N   LIG    1        1.994   0.806  -0.115  0.00  0.00    -0.490 NA
ATOM     25  C   LIG    1        1.157   1.807  -0.118  0.00  0.00    +0.380 A 
ENDBRANCH  20  21
ENDBRANCH  17  20
ENDBRANCH   2  14
TORSDOF 4
