REMARK  Name = ZINCqH0000031zDR.1
REMARK                            x       y       z     vdW  Elec       q    Type
REMARK                         _______ _______ _______ _____ _____    ______ ____
ROOT
ATOM      1  C   LIG    1        3.047   1.228   1.389  0.00  0.00    +0.090 C 
ENDROOT
BRANCH   1   2
ATOM      2  C   LIG    1        2.425   1.184  -0.009  0.00  0.00    +0.320 C 
ATOM      3  C   LIG    1        3.349   1.856  -1.000  0.00  0.00    -0.100 A 
ATOM      4  C   LIG    1        4.350   1.144  -1.623  0.00  0.00    +0.030 A 
ATOM      5  C   LIG    1        5.214   1.785  -2.494  0.00  0.00    +0.010 A 
ATOM      6  C   LIG    1        5.079   3.138  -2.745  0.00  0.00    +0.020 A 
ATOM      7  C   LIG    1        4.073   3.861  -2.135  0.00  0.00    +0.020 A 
ATOM      8  C   LIG    1        3.196   3.220  -1.261  0.00  0.00    -0.030 A 
ATOM      9  C   LIG    1        2.102   3.965  -0.608  0.00  0.00    -0.040 C 
ATOM     10  C   LIG    1        1.127   3.288   0.009  0.00  0.00    +0.240 C 
ATOM     11  N   LIG    1        1.143   1.898   0.001  0.00  0.00    -0.560 N 
ATOM     12  C   LIG    1       -0.014   1.209   0.009  0.00  0.00    +0.510 C 
ATOM     13  O   LIG    1        0.002  -0.004   0.002  0.00  0.00    -0.480 OA
ATOM     14  C   LIG    1       -1.330   1.944   0.019  0.00  0.00    +0.100 C 
ENDBRANCH   1   2
BRANCH   1  17
ATOM     15  N   LIG    1        2.526   0.369   3.649  0.00  0.00    -0.630 N 
ATOM     16  H   LIG    1        3.341   0.791   3.963  0.00  0.00    +0.420 HD
ATOM     17  C   LIG    1        2.174   0.465   2.351  0.00  0.00    +0.490 C 
ATOM     18  O   LIG    1        1.155  -0.062   1.958  0.00  0.00    -0.430 OA
BRANCH  15  22
ATOM     19  C   LIG    1        0.530  -1.498   6.368  0.00  0.00    -0.020 A 
ATOM     20  N   LIG    1        0.000  -1.536   5.180  0.00  0.00    -0.240 NA
ATOM     21  N   LIG    1        0.605  -0.939   4.249  0.00  0.00    -0.250 NA
ATOM     22  C   LIG    1        1.719  -0.336   4.538  0.00  0.00    +0.250 A 
ATOM     23  S   LIG    1        2.023  -0.564   6.262  0.00  0.00    +0.120 S 
BRANCH  19  24
ATOM     24  S   LIG    1       -0.126  -2.247   7.822  0.00  0.00    +0.020 S 
BRANCH  24  25
ATOM     25  C   LIG    1       -1.649  -3.031   7.225  0.00  0.00    +0.130 C 
BRANCH  25  27
ATOM     26  C   LIG    1       -3.511  -3.309   8.780  0.00  0.00    +0.060 C 
ATOM     27  C   LIG    1       -2.338  -3.726   8.371  0.00  0.00    -0.040 C 
ENDBRANCH  25  27
ENDBRANCH  24  25
ENDBRANCH  19  24
ENDBRANCH  15  22
ENDBRANCH   1  17
TORSDOF 6
