REMARK  Name = ZINCb80000002Bpu.0
REMARK                            x       y       z     vdW  Elec       q    Type
REMARK                         _______ _______ _______ _____ _____    ______ ____
ROOT
ATOM      1  C   LIG    1        0.002  -0.004   0.002  0.00  0.00    +0.210 A 
ATOM      2  C   LIG    1       -0.017   1.385   0.010  0.00  0.00    -0.050 A 
ATOM      3  C   LIG    1        1.171   2.090   0.002  0.00  0.00    -0.050 A 
ATOM      4  C   LIG    1        2.377   1.415  -0.013  0.00  0.00    -0.020 A 
ATOM      5  C   LIG    1        2.400   0.032  -0.021  0.00  0.00    -0.050 A 
ATOM      6  C   LIG    1        1.216  -0.679  -0.013  0.00  0.00    -0.050 A 
ENDROOT
BRANCH   1   7
ATOM      7  N   LIG    1       -1.197  -0.720   0.010  0.00  0.00    -0.880 N 
ATOM      8  H   LIG    1       -1.183  -1.690   0.005  0.00  0.00    +0.400 HD
ATOM      9  H   LIG    1       -2.044  -0.248   0.021  0.00  0.00    +0.400 HD
ENDBRANCH   1   7
BRANCH   5  10
ATOM     10  C   LIG    1        3.717  -0.699  -0.037  0.00  0.00    +0.230 C 
BRANCH  10  11
ATOM     11  O   LIG    1        4.121  -0.923  -1.390  0.00  0.00    -0.570 OA
ATOM     12  H   LIG    1        4.963  -1.390  -1.476  0.00  0.00    +0.380 HD
ENDBRANCH  10  11
ENDBRANCH   5  10
BRANCH   3  13
ATOM     13  C   LIG    1        1.151   3.597   0.010  0.00  0.00    +0.230 C 
BRANCH  13  14
ATOM     14  O   LIG    1        1.158   4.066   1.359  0.00  0.00    -0.570 OA
ATOM     15  H   LIG    1        1.146   5.030   1.441  0.00  0.00    +0.380 HD
ENDBRANCH  13  14
ENDBRANCH   3  13
TORSDOF 5
