REMARK  Name = ZINCpk000000pI8p.0
REMARK                            x       y       z     vdW  Elec       q    Type
REMARK                         _______ _______ _______ _____ _____    ______ ____
ROOT
ATOM      1  C   UNK A  2        0.123  -5.648   4.651  0.00  0.00    +0.030 C 
ENDROOT
BRANCH   1   2
ATOM      2  C   UNK A  2        0.142  -5.973   6.146  0.00  0.00    +0.030 C 
BRANCH   2   7
ATOM      3  C   UNK A  1       -2.063  -8.271   8.086  0.00  0.00    +0.260 C 
ATOM      4  N   UNK A  1       -0.697  -8.153   8.578  0.00  0.00    -0.710 N 
ATOM      5  H   UNK A  1       -0.523  -8.340   9.514  0.00  0.00    +0.410 HD
ATOM      6  C   UNK A  2        0.327  -7.798   7.796  0.00  0.00    +0.520 C 
ATOM      7  C   UNK A  2        0.164  -7.491   6.338  0.00  0.00    +0.260 C 
ATOM      8  N   UNK A  2       -1.072  -8.056   5.814  0.00  0.00    -0.710 N 
ATOM      9  H   UNK A  2       -1.157  -8.177   4.855  0.00  0.00    +0.410 HD
ATOM     10  O   UNK A  2        1.434  -7.722   8.286  0.00  0.00    -0.530 OA
ATOM     11  C   UNK A  1       -2.094  -8.416   6.595  0.00  0.00    +0.520 C 
ATOM     12  O   UNK A  1       -3.088  -8.878   6.075  0.00  0.00    -0.530 OA
BRANCH   3  14
ATOM     13  C   UNK A  1       -2.967  -6.957  10.009  0.00  0.00    +0.040 C 
ATOM     14  C   UNK A  1       -2.849  -7.021   8.485  0.00  0.00    +0.030 C 
ENDBRANCH   3  14
ENDBRANCH   2   7
ENDBRANCH   1   2
BRANCH   1  15
ATOM     15  C   UNK A  2        0.101  -4.131   4.459  0.00  0.00    +0.020 C 
BRANCH  15  16
ATOM     16  C   UNK A  2        0.082  -3.806   2.964  0.00  0.00    +0.280 C 
BRANCH  16  17
ATOM     17  N   UNK A  2        0.060  -2.353   2.780  0.00  0.00    -0.710 N 
ATOM     18  H   UNK A  2        0.060  -1.766   3.552  0.00  0.00    +0.410 HD
ATOM     19  C   UNK A  2        0.042  -1.831   1.537  0.00  0.00    +0.650 C 
ATOM     20  O   UNK A  2        0.042  -2.566   0.570  0.00  0.00    -0.570 OA
BRANCH  19  21
ATOM     21  O   UNK A  2        0.022  -0.495   1.368  0.00  0.00    -0.370 OA
BRANCH  21  22
ATOM     22  C   UNK A  2        0.002  -0.004   0.002  0.00  0.00    +0.290 C 
BRANCH  22  23
ATOM     23  C   UNK A  2       -0.018   1.503   0.010  0.00  0.00    -0.100 A 
ATOM     24  C   UNK A  2       -1.225   2.178   0.020  0.00  0.00    +0.040 A 
ATOM     25  C   UNK A  2       -1.244   3.560   0.032  0.00  0.00    +0.010 A 
ATOM     26  C   UNK A  2       -0.056   4.267   0.025  0.00  0.00    +0.020 A 
ATOM     27  C   UNK A  2        1.151   3.592   0.010  0.00  0.00    +0.010 A 
ATOM     28  C   UNK A  2        1.169   2.210   0.003  0.00  0.00    +0.040 A 
ENDBRANCH  22  23
ENDBRANCH  21  22
ENDBRANCH  19  21
ENDBRANCH  16  17
ENDBRANCH  15  16
ENDBRANCH   1  15
TORSDOF 9
