REMARK  Name = ZINCqH0000007nLK.1
REMARK                            x       y       z     vdW  Elec       q    Type
REMARK                         _______ _______ _______ _____ _____    ______ ____
ROOT
ATOM      1  C   LIG    1       -2.913   5.080  -1.744  0.00  0.00    +0.540 C 
ATOM      2  N   LIG    1       -2.552   4.258  -0.739  0.00  0.00    -0.720 N 
ATOM      3  H   LIG    1       -3.087   4.216   0.069  0.00  0.00    +0.400 HD
ATOM      4  O   LIG    1       -2.244   5.132  -2.755  0.00  0.00    -0.510 OA
ENDROOT
BRANCH   1   5
ATOM      5  C   LIG    1       -4.147   5.935  -1.613  0.00  0.00    +0.000 C 
ATOM      6  C   LIG    1       -3.795   7.229  -0.876  0.00  0.00    +0.080 C 
BRANCH   5   7
ATOM      7  S   LIG    1       -4.785   6.333  -3.264  0.00  0.00    -0.070 S 
BRANCH   7  11
ATOM      8  C   LIG    1       -8.732   8.370  -2.367  0.00  0.00    +0.160 A 
ATOM      9  C   LIG    1       -7.587   9.130  -2.558  0.00  0.00    -0.020 A 
ATOM     10  C   LIG    1       -6.384   8.511  -2.831  0.00  0.00    +0.110 A 
ATOM     11  C   LIG    1       -6.320   7.125  -2.914  0.00  0.00    -0.170 A 
ATOM     12  C   LIG    1       -7.468   6.365  -2.728  0.00  0.00    +0.100 A 
ATOM     13  C   LIG    1       -8.669   6.987  -2.449  0.00  0.00    -0.090 A 
BRANCH   8  15
ATOM     14  C   LIG    1      -11.054   8.137  -1.911  0.00  0.00    +0.240 C 
ATOM     15  O   LIG    1       -9.916   8.981  -2.097  0.00  0.00    -0.310 OA
ENDBRANCH   8  15
ENDBRANCH   7  11
ENDBRANCH   5   7
ENDBRANCH   1   5
BRANCH   2  16
ATOM     16  C   LIG    1       -1.353   3.426  -0.867  0.00  0.00    +0.290 C 
BRANCH  16  17
ATOM     17  C   LIG    1       -1.241   2.501   0.346  0.00  0.00    +0.170 C 
BRANCH  17  18
ATOM     18  C   LIG    1       -2.438   1.588   0.393  0.00  0.00    -0.060 A 
ATOM     19  C   LIG    1       -3.491   1.871   1.243  0.00  0.00    +0.000 A 
ATOM     20  C   LIG    1       -4.593   1.036   1.282  0.00  0.00    +0.040 A 
ATOM     21  C   LIG    1       -4.643  -0.082   0.472  0.00  0.00    -0.010 A 
ATOM     22  C   LIG    1       -3.589  -0.366  -0.380  0.00  0.00    +0.100 A 
ATOM     23  F   LIG    1       -3.637  -1.460  -1.172  0.00  0.00    -0.140 F 
ATOM     24  C   LIG    1       -2.486   0.470  -0.418  0.00  0.00    +0.030 A 
ENDBRANCH  17  18
BRANCH  17  25
ATOM     25  N   LIG    1       -0.016   1.698   0.239  0.00  0.00    -0.530 NA
ATOM     26  C   LIG    1        0.118   0.787   1.383  0.00  0.00    +0.190 C 
ATOM     27  C   LIG    1        1.168   2.558   0.109  0.00  0.00    +0.210 C 
ENDBRANCH  17  25
ENDBRANCH  16  17
ENDBRANCH   2  16
TORSDOF 8
