REMARK  Name = ZINCb70000001yb9.0
REMARK                            x       y       z     vdW  Elec       q    Type
REMARK                         _______ _______ _______ _____ _____    ______ ____
ROOT
ATOM      1  C   LIG    1        2.156   1.235  -1.007  0.00  0.00    +0.200 C 
ATOM      2  C   LIG    1        1.486   2.187  -0.000  0.00  0.00    +0.090 C 
ATOM      3  C   LIG    1       -0.023   1.829   0.012  0.00  0.00    -0.280 C 
ATOM      4  S   LIG    1        0.002  -0.004   0.002  0.00  0.00    +2.410 S 
ATOM      5  O   LIG    1       -0.975  -0.483  -0.912  0.00  0.00    -0.900 OA
ATOM      6  O   LIG    1        0.017  -0.482   1.340  0.00  0.00    -0.900 OA
ATOM      7  C   LIG    1        1.667  -0.201  -0.731  0.00  0.00    -0.320 C 
ENDROOT
BRANCH   1   8
ATOM      8  N   LIG    1        3.615   1.298  -0.850  0.00  0.00    -0.500 N 
ATOM      9  H   LIG    1        4.047   0.606  -1.444  0.00  0.00    +0.440 HD
ATOM     10  H   LIG    1        3.858   1.115   0.112  0.00  0.00    +0.430 HD
BRANCH   8  11
ATOM     11  C   LIG    1        4.091   2.635  -1.230  0.00  0.00    +0.260 C 
BRANCH  11  13
ATOM     12  C   LIG    1        6.106   4.093  -1.462  0.00  0.00    +0.060 C 
ATOM     13  C   LIG    1        5.611   2.701  -1.067  0.00  0.00    +0.030 C 
ENDBRANCH  11  13
ENDBRANCH   8  11
ENDBRANCH   1   8
TORSDOF 3
