REMARK  Name = ZINCvU0000000FVs.0
REMARK                            x       y       z     vdW  Elec       q    Type
REMARK                         _______ _______ _______ _____ _____    ______ ____
ROOT
ATOM      1  C   LIG    1       -2.996   0.928   1.208  0.00  0.00    +0.360 A 
ATOM      2  N   LIG    1       -4.120   0.260   1.286  0.00  0.00    -0.530 NA
ATOM      3  C   LIG    1       -4.785  -0.137   0.175  0.00  0.00    +0.160 A 
ATOM      4  C   LIG    1       -5.982  -0.854   0.258  0.00  0.00    +0.030 A 
ATOM      5  C   LIG    1       -6.627  -1.239  -0.895  0.00  0.00    +0.070 A 
ATOM      6  C   LIG    1       -6.104  -0.924  -2.143  0.00  0.00    +0.000 A 
ATOM      7  C   LIG    1       -4.926  -0.218  -2.251  0.00  0.00    +0.100 A 
ATOM      8  C   LIG    1       -4.255   0.181  -1.096  0.00  0.00    -0.200 A 
ATOM      9  C   LIG    1       -2.996   0.936  -1.154  0.00  0.00    +0.560 A 
ATOM     10  O   LIG    1       -2.491   1.239  -2.219  0.00  0.00    -0.490 OA
ATOM     11  N   LIG    1       -2.418   1.281   0.020  0.00  0.00    -0.480 N 
ENDROOT
BRANCH  11  12
ATOM     12  C   LIG    1       -1.216   2.001   0.018  0.00  0.00    +0.050 A 
ATOM     13  C   LIG    1       -1.236   3.389   0.024  0.00  0.00    +0.080 A 
ATOM     14  C   LIG    1       -0.049   4.096   0.016  0.00  0.00    +0.020 A 
ATOM     15  C   LIG    1        1.159   3.424   0.008  0.00  0.00    +0.070 A 
ATOM     16  C   LIG    1        1.185   2.041   0.009  0.00  0.00    +0.000 A 
ATOM     17  C   LIG    1        0.001   1.327   0.016  0.00  0.00    +0.130 A 
ATOM     18  F   LIG    1        0.025  -0.024   0.017  0.00  0.00    -0.130 F 
ENDBRANCH  11  12
BRANCH   1  19
ATOM     19  S   LIG    1       -2.194   1.399   2.705  0.00  0.00    +0.090 S 
BRANCH  19  20
ATOM     20  C   LIG    1       -3.347   0.701   3.913  0.00  0.00    +0.130 C 
BRANCH  20  23
ATOM     21  N   LIG    1       -3.554   0.562   6.374  0.00  0.00    -0.660 N 
ATOM     22  H   LIG    1       -4.418   0.140   6.248  0.00  0.00    +0.420 HD
ATOM     23  C   LIG    1       -2.851   0.990   5.306  0.00  0.00    +0.530 C 
ATOM     24  O   LIG    1       -1.819   1.606   5.467  0.00  0.00    -0.500 OA
BRANCH  21  32
ATOM     25  C   LIG    1       -5.384   0.685   8.549  0.00  0.00    +0.110 C 
ATOM     26  C   LIG    1       -3.895   0.793   8.754  0.00  0.00    -0.110 A 
ATOM     27  C   LIG    1       -3.381   0.951  10.026  0.00  0.00    +0.070 A 
ATOM     28  C   LIG    1       -2.015   1.055  10.214  0.00  0.00    -0.110 A 
ATOM     29  C   LIG    1       -1.158   0.996   9.130  0.00  0.00    +0.060 A 
ATOM     30  C   LIG    1       -1.666   0.833   7.855  0.00  0.00    +0.030 A 
ATOM     31  I   LIG    1       -1.241   1.305  12.145  0.00  0.00    -0.040 I 
ATOM     32  C   LIG    1       -3.037   0.728   7.664  0.00  0.00    +0.160 A 
ENDBRANCH  21  32
ENDBRANCH  20  23
ENDBRANCH  19  20
ENDBRANCH   1  19
TORSDOF 5
