REMARK  Name = ZINCrD000000BEd0.0
REMARK                            x       y       z     vdW  Elec       q    Type
REMARK                         _______ _______ _______ _____ _____    ______ ____
ROOT
ATOM      1  C   LIG    1       -3.338   3.228   3.084  0.00  0.00    +0.260 C 
ENDROOT
BRANCH   1   4
ATOM      2  O   LIG    1       -4.207   4.783   5.108  0.00  0.00    -0.510 OA
ATOM      3  C   LIG    1       -4.959   4.697   4.157  0.00  0.00    +0.560 C 
ATOM      4  N   LIG    1       -4.617   3.943   3.094  0.00  0.00    -0.710 N 
ATOM      5  H   LIG    1       -5.217   3.874   2.335  0.00  0.00    +0.410 HD
BRANCH   3   6
ATOM      6  C   LIG    1       -6.250   5.418   4.167  0.00  0.00    -0.130 A 
ATOM      7  C   LIG    1       -7.113   5.326   3.075  0.00  0.00    +0.040 A 
ATOM      8  C   LIG    1       -8.317   5.998   3.092  0.00  0.00    +0.000 A 
ATOM      9  C   LIG    1       -8.666   6.771   4.186  0.00  0.00    +0.040 A 
ATOM     10  C   LIG    1       -7.812   6.871   5.270  0.00  0.00    +0.000 A 
ATOM     11  C   LIG    1       -6.607   6.200   5.267  0.00  0.00    +0.080 A 
ENDBRANCH   3   6
ENDBRANCH   1   4
BRANCH   1  12
ATOM     12  C   LIG    1       -2.907   2.990   1.660  0.00  0.00    +0.510 C 
ATOM     13  N   LIG    1       -1.752   2.345   1.404  0.00  0.00    -0.720 N 
ATOM     14  H   LIG    1       -1.198   2.033   2.137  0.00  0.00    +0.400 HD
ATOM     15  O   LIG    1       -3.599   3.380   0.743  0.00  0.00    -0.530 OA
BRANCH  13  16
ATOM     16  C   LIG    1       -1.332   2.114   0.020  0.00  0.00    +0.320 C 
BRANCH  16  17
ATOM     17  C   LIG    1       -0.017   1.378   0.010  0.00  0.00    -0.110 A 
ATOM     18  C   LIG    1        1.171   2.086   0.002  0.00  0.00    +0.020 A 
ATOM     19  C   LIG    1        2.377   1.411  -0.014  0.00  0.00    +0.010 A 
ATOM     20  C   LIG    1        2.396   0.029  -0.021  0.00  0.00    +0.010 A 
ATOM     21  C   LIG    1        1.208  -0.679  -0.014  0.00  0.00    +0.010 A 
ATOM     22  C   LIG    1        0.002  -0.004   0.002  0.00  0.00    +0.020 A 
ENDBRANCH  16  17
ENDBRANCH  13  16
ENDBRANCH   1  12
BRANCH   1  23
ATOM     23  C   LIG    1       -3.500   1.885   3.799  0.00  0.00    +0.080 C 
BRANCH  23  24
ATOM     24  C   LIG    1       -3.811   2.124   5.253  0.00  0.00    -0.070 A 
ATOM     25  C   LIG    1       -2.784   2.221   6.173  0.00  0.00    +0.010 A 
ATOM     26  C   LIG    1       -3.070   2.446   7.507  0.00  0.00    +0.010 A 
ATOM     27  C   LIG    1       -4.383   2.562   7.923  0.00  0.00    +0.000 A 
ATOM     28  C   LIG    1       -5.410   2.460   7.003  0.00  0.00    +0.010 A 
ATOM     29  C   LIG    1       -5.125   2.240   5.669  0.00  0.00    +0.000 A 
ENDBRANCH  23  24
ENDBRANCH   1  23
TORSDOF 7
