REMARK  Name = ZINCrH000004oJje.0
REMARK                            x       y       z     vdW  Elec       q    Type
REMARK                         _______ _______ _______ _____ _____    ______ ____
ROOT
ATOM      1  C   LIG    1        3.525   7.095   0.320  0.00  0.00    +0.060 C 
ATOM      2  C   LIG    1        2.329   8.045   0.234  0.00  0.00    +0.250 C 
ATOM      3  C   LIG    1        2.468   9.144   1.294  0.00  0.00    +0.170 C 
ATOM      4  N   LIG    1        1.247   9.960   1.311  0.00  0.00    -0.530 NA
ATOM      5  C   LIG    1        0.078   9.162   1.702  0.00  0.00    +0.180 C 
ATOM      6  C   LIG    1       -0.160   8.064   0.653  0.00  0.00    +0.270 C 
ATOM      7  N   LIG    1        1.087   7.301   0.493  0.00  0.00    -0.620 N 
ATOM      8  C   LIG    1        1.091   5.956   0.575  0.00  0.00    +0.710 C 
ATOM      9  N   LIG    1       -0.070   5.286   0.719  0.00  0.00    -0.680 N 
ATOM     10  H   LIG    1       -0.912   5.765   0.691  0.00  0.00    +0.410 HD
ATOM     11  O   LIG    1        2.142   5.346   0.520  0.00  0.00    -0.570 OA
ENDROOT
BRANCH   9  12
ATOM     12  C   LIG    1       -0.059   3.897   0.908  0.00  0.00    +0.140 A 
ATOM     13  C   LIG    1        0.915   3.124   0.297  0.00  0.00    +0.060 A 
ATOM     14  C   LIG    1        0.925   1.754   0.486  0.00  0.00    +0.000 A 
ATOM     15  C   LIG    1       -0.035   1.159   1.280  0.00  0.00    +0.020 A 
ATOM     16  C   LIG    1       -1.017   1.925   1.888  0.00  0.00    -0.140 A 
ATOM     17  C   LIG    1       -2.050   1.234   2.743  0.00  0.00    +0.080 C 
ATOM     18  C   LIG    1       -2.735   2.255   3.654  0.00  0.00    +0.010 C 
ATOM     19  C   LIG    1       -3.149   3.460   2.799  0.00  0.00    +0.230 C 
ATOM     20  O   LIG    1       -1.966   4.085   2.300  0.00  0.00    -0.320 OA
ATOM     21  C   LIG    1       -1.030   3.295   1.712  0.00  0.00    +0.100 A 
ENDBRANCH   9  12
BRANCH   4  22
ATOM     22  C   LIG    1        1.406  11.127   2.190  0.00  0.00    +0.220 C 
BRANCH  22  23
ATOM     23  C   LIG    1        0.071  11.800   2.377  0.00  0.00    -0.090 A 
ATOM     24  C   LIG    1       -0.324  12.803   1.511  0.00  0.00    +0.020 A 
ATOM     25  C   LIG    1       -1.551  13.418   1.680  0.00  0.00    +0.000 A 
ATOM     26  C   LIG    1       -2.378  13.036   2.720  0.00  0.00    +0.000 A 
ATOM     27  C   LIG    1       -1.980  12.037   3.589  0.00  0.00    +0.000 A 
ATOM     28  C   LIG    1       -0.755  11.419   3.417  0.00  0.00    +0.000 A 
ENDBRANCH  22  23
ENDBRANCH   4  22
TORSDOF 3
