REMARK  Name = ZINCpe00000MEhGn.0
REMARK                            x       y       z     vdW  Elec       q    Type
REMARK                         _______ _______ _______ _____ _____    ______ ____
ROOT
ATOM      1  C   LIG    1        6.024   5.978   1.006  0.00  0.00    +0.230 C 
ATOM      2  C   LIG    1        5.541   4.599   1.484  0.00  0.00    +0.340 C 
ATOM      3  N   LIG    1        6.390   3.563   0.899  0.00  0.00    -0.470 N 
ATOM      4  C   LIG    1        6.547   2.283   1.291  0.00  0.00    +0.190 A 
ATOM      5  N   LIG    1        7.396   1.728   0.464  0.00  0.00    -0.290 NA
ATOM      6  N   LIG    1        7.775   2.591  -0.415  0.00  0.00    -0.270 NA
ATOM      7  C   LIG    1        5.872   1.616   2.462  0.00  0.00    +0.200 C 
ATOM      8  C   LIG    1        7.190   3.726  -0.186  0.00  0.00    +0.150 A 
ATOM      9  C   LIG    1        7.326   5.027  -0.940  0.00  0.00    +0.440 C 
ATOM     10  N   LIG    1        6.265   5.924  -0.444  0.00  0.00    -0.610 N 
ATOM     11  C   LIG    1        5.541   6.678  -1.295  0.00  0.00    +0.570 C 
ATOM     12  O   LIG    1        4.755   7.498  -0.863  0.00  0.00    -0.490 OA
ENDROOT
BRANCH  11  13
ATOM     13  C   LIG    1        5.702   6.506  -2.755  0.00  0.00    -0.130 A 
ATOM     14  C   LIG    1        6.306   7.508  -3.517  0.00  0.00    +0.060 A 
ATOM     15  C   LIG    1        6.452   7.339  -4.877  0.00  0.00    +0.020 A 
ATOM     16  C   LIG    1        6.004   6.181  -5.493  0.00  0.00    -0.070 A 
ATOM     17  C   LIG    1        6.049   5.766  -6.949  0.00  0.00    +0.080 C 
ATOM     18  C   LIG    1        5.816   4.241  -6.942  0.00  0.00    +0.040 C 
ATOM     19  C   LIG    1        5.008   4.034  -5.644  0.00  0.00    +0.070 C 
ATOM     20  C   LIG    1        5.404   5.184  -4.743  0.00  0.00    -0.090 A 
ATOM     21  C   LIG    1        5.252   5.342  -3.378  0.00  0.00    +0.050 A 
ENDBRANCH  11  13
BRANCH   1  25
ATOM     22  C   LIG    1        4.252   9.334   1.510  0.00  0.00    +0.290 C 
ATOM     23  N   LIG    1        5.275   8.326   1.221  0.00  0.00    -0.710 N 
ATOM     24  H   LIG    1        6.171   8.601   0.971  0.00  0.00    +0.400 HD
ATOM     25  C   LIG    1        4.972   7.015   1.303  0.00  0.00    +0.550 C 
ATOM     26  O   LIG    1        3.852   6.670   1.616  0.00  0.00    -0.530 OA
ENDBRANCH   1  25
TORSDOF 2
