REMARK  Name = ZINCrD000000CfES.1
REMARK                            x       y       z     vdW  Elec       q    Type
REMARK                         _______ _______ _______ _____ _____    ______ ____
ROOT
ATOM      1  O   LIG    1       -3.479  -2.198   0.332  0.00  0.00    -0.470 OA
ATOM      2  C   LIG    1       -2.430  -2.804   0.227  0.00  0.00    +0.580 C 
ATOM      3  N   LIG    1       -2.427  -4.152   0.220  0.00  0.00    -0.620 N 
ATOM      4  H   LIG    1       -1.591  -4.635   0.136  0.00  0.00    +0.430 HD
ENDROOT
BRANCH   2   5
ATOM      5  C   LIG    1       -1.161  -2.064   0.106  0.00  0.00    -0.250 A 
ATOM      6  C   LIG    1       -1.157  -0.684   0.112  0.00  0.00    +0.420 A 
ATOM      7  N   LIG    1        0.002  -0.004   0.002  0.00  0.00    -0.450 N 
ATOM      8  C   LIG    1        1.176  -0.650  -0.120  0.00  0.00    +0.520 A 
ATOM      9  C   LIG    1        1.221  -2.056  -0.126  0.00  0.00    -0.060 A 
ATOM     10  O   LIG    1        2.210  -0.011  -0.223  0.00  0.00    -0.510 OA
ATOM     11  C   LIG    1        0.065  -2.764  -0.017  0.00  0.00    +0.140 A 
BRANCH   7  12
ATOM     12  C   LIG    1       -0.017   1.396   0.010  0.00  0.00    +0.120 A 
ATOM     13  C   LIG    1       -0.149   2.096  -1.182  0.00  0.00    +0.040 A 
ATOM     14  C   LIG    1       -0.168   3.478  -1.173  0.00  0.00    +0.070 A 
ATOM     15  C   LIG    1       -0.056   4.164   0.022  0.00  0.00    +0.020 A 
ATOM     16  C   LIG    1        0.076   3.470   1.213  0.00  0.00    +0.110 A 
ATOM     17  F   LIG    1        0.186   4.143   2.379  0.00  0.00    -0.130 F 
ATOM     18  C   LIG    1        0.091   2.086   1.210  0.00  0.00    +0.010 A 
ENDBRANCH   7  12
ENDBRANCH   2   5
BRANCH   3  19
ATOM     19  C   LIG    1       -3.623  -4.849   0.334  0.00  0.00    +0.250 A 
ATOM     20  N   LIG    1       -4.809  -4.323   0.452  0.00  0.00    -0.250 NA
ATOM     21  N   LIG    1       -5.793  -5.107   0.544  0.00  0.00    -0.210 NA
ATOM     22  C   LIG    1       -5.549  -6.390   0.515  0.00  0.00    +0.090 A 
ATOM     23  S   LIG    1       -3.806  -6.604   0.337  0.00  0.00    +0.110 S 
BRANCH  22  24
ATOM     24  C   LIG    1       -6.549  -7.464   0.608  0.00  0.00    +0.030 A 
ATOM     25  C   LIG    1       -7.894  -7.295   0.746  0.00  0.00    +0.040 A 
ATOM     26  C   LIG    1       -8.462  -8.584   0.791  0.00  0.00    -0.060 A 
ATOM     27  C   LIG    1       -7.448  -9.466   0.688  0.00  0.00    +0.220 A 
ATOM     28  O   LIG    1       -6.295  -8.787   0.578  0.00  0.00    -0.170 OA
ENDBRANCH  22  24
ENDBRANCH   3  19
TORSDOF 4
