REMARK  Name = ZINCrD00000hQ5DA.0
REMARK                            x       y       z     vdW  Elec       q    Type
REMARK                         _______ _______ _______ _____ _____    ______ ____
ROOT
ATOM      1  N   LIG    1        4.315  -7.646   2.058  0.00  0.00    -0.670 N 
ATOM      2  H   LIG    1        4.919  -7.851   1.327  0.00  0.00    +0.420 HD
ATOM      3  C   LIG    1        3.637  -6.481   2.065  0.00  0.00    +0.710 C 
ATOM      4  N   LIG    1        3.864  -5.564   1.105  0.00  0.00    -0.740 N 
ATOM      5  H   LIG    1        4.515  -5.741   0.408  0.00  0.00    +0.400 HD
ATOM      6  O   LIG    1        2.820  -6.259   2.938  0.00  0.00    -0.560 OA
ENDROOT
BRANCH   1  12
ATOM      7  C   LIG    1        5.217  -9.351   3.538  0.00  0.00    +0.140 A 
ATOM      8  C   LIG    1        4.999 -10.240   4.585  0.00  0.00    -0.030 A 
ATOM      9  C   LIG    1        3.741 -10.320   5.149  0.00  0.00    +0.060 A 
ATOM     10  N   LIG    1        2.752  -9.564   4.713  0.00  0.00    -0.440 NA
ATOM     11  C   LIG    1        2.916  -8.703   3.725  0.00  0.00    +0.330 A 
ATOM     12  C   LIG    1        4.146  -8.562   3.106  0.00  0.00    +0.120 A 
BRANCH   9  13
ATOM     13  C   LIG    1        3.495 -11.285   6.280  0.00  0.00    +0.520 C 
ATOM     14  F   LIG    1        4.250 -10.902   7.393  0.00  0.00    -0.170 F 
ATOM     15  F   LIG    1        3.870 -12.574   5.883  0.00  0.00    -0.170 F 
ATOM     16  F   LIG    1        2.136 -11.277   6.612  0.00  0.00    -0.160 F 
ENDBRANCH   9  13
BRANCH   7  18
ATOM     17  C   LIG    1        7.473 -10.094   3.460  0.00  0.00    +0.250 C 
ATOM     18  O   LIG    1        6.439  -9.248   2.954  0.00  0.00    -0.310 OA
ENDBRANCH   7  18
ENDBRANCH   1  12
BRANCH   4  19
ATOM     19  C   LIG    1        3.127  -4.297   1.113  0.00  0.00    +0.310 C 
BRANCH  19  20
ATOM     20  C   LIG    1        3.570  -3.442  -0.076  0.00  0.00    +0.150 C 
BRANCH  20  21
ATOM     21  C   LIG    1        2.812  -2.139  -0.067  0.00  0.00    +0.280 A 
ATOM     22  N   LIG    1        1.516  -2.032  -0.051  0.00  0.00    -0.480 NA
ATOM     23  C   LIG    1        1.166  -0.720  -0.049  0.00  0.00    +0.050 A 
ATOM     24  C   LIG    1       -0.059  -0.049  -0.034  0.00  0.00    +0.070 A 
ATOM     25  C   LIG    1       -0.087   1.317  -0.035  0.00  0.00    +0.000 A 
ATOM     26  C   LIG    1        1.091   2.050  -0.051  0.00  0.00    +0.030 A 
ATOM     27  C   LIG    1        2.312   1.409  -0.067  0.00  0.00    +0.010 A 
ATOM     28  C   LIG    1        2.360   0.022  -0.065  0.00  0.00    +0.050 A 
ATOM     29  N   LIG    1        3.384  -0.905  -0.077  0.00  0.00    -0.600 N 
ATOM     30  H   LIG    1        4.334  -0.712  -0.089  0.00  0.00    +0.420 HD
ENDBRANCH  20  21
ENDBRANCH  19  20
ENDBRANCH   4  19
TORSDOF 6
