REMARK  Name = ZINCrD000000AFXF.0
REMARK                            x       y       z     vdW  Elec       q    Type
REMARK                         _______ _______ _______ _____ _____    ______ ____
ROOT
ATOM      1  O   LIG    1        3.241   0.959  -0.471  0.00  0.00    -0.530 OA
ATOM      2  C   LIG    1        3.113   1.069  -1.672  0.00  0.00    +0.560 C 
ATOM      3  N   LIG    1        2.347   2.054  -2.180  0.00  0.00    -0.600 N 
ATOM      4  C   LIG    1        2.263   2.264  -3.632  0.00  0.00    +0.270 C 
ATOM      5  C   LIG    1        0.789   2.259  -4.047  0.00  0.00    +0.030 C 
ATOM      6  C   LIG    1        0.026   3.294  -3.217  0.00  0.00    +0.040 C 
ATOM      7  C   LIG    1        0.112   2.925  -1.735  0.00  0.00    +0.090 C 
ATOM      8  C   LIG    1        1.579   2.938  -1.294  0.00  0.00    +0.300 C 
ENDROOT
BRANCH   7   9
ATOM      9  C   LIG    1       -0.667   3.927  -0.921  0.00  0.00    +0.150 A 
ATOM     10  N   LIG    1       -0.446   5.214  -0.861  0.00  0.00    -0.240 NA
ATOM     11  N   LIG    1       -1.294   5.777  -0.074  0.00  0.00    -0.290 NA
ATOM     12  C   LIG    1       -2.113   4.862   0.419  0.00  0.00    +0.190 A 
ATOM     13  C   LIG    1       -3.204   4.916   1.308  0.00  0.00    +0.080 A 
ATOM     14  C   LIG    1       -3.860   3.768   1.625  0.00  0.00    +0.060 A 
ATOM     15  C   LIG    1       -3.443   2.549   1.063  0.00  0.00    +0.030 A 
ATOM     16  C   LIG    1       -2.396   2.512   0.212  0.00  0.00    +0.230 A 
ATOM     17  N   LIG    1       -1.732   3.657  -0.118  0.00  0.00    -0.390 N 
ENDBRANCH   7   9
BRANCH   2  18
ATOM     18  C   LIG    1        3.812   0.105  -2.596  0.00  0.00    -0.130 C 
ATOM     19  C   LIG    1        5.133  -0.501  -2.118  0.00  0.00    +0.090 C 
ATOM     20  C   LIG    1        5.132   0.558  -3.223  0.00  0.00    +0.060 C 
BRANCH  18  21
ATOM     21  C   LIG    1        2.908  -0.766  -3.430  0.00  0.00    -0.010 A 
ATOM     22  C   LIG    1        1.963  -1.567  -2.817  0.00  0.00    +0.010 A 
ATOM     23  C   LIG    1        1.133  -2.367  -3.581  0.00  0.00    +0.060 A 
ATOM     24  C   LIG    1        1.248  -2.367  -4.958  0.00  0.00    -0.010 A 
ATOM     25  C   LIG    1        2.195  -1.565  -5.573  0.00  0.00    +0.110 A 
ATOM     26  F   LIG    1        2.308  -1.564  -6.919  0.00  0.00    -0.140 F 
ATOM     27  C   LIG    1        3.022  -0.761  -4.807  0.00  0.00    -0.010 A 
ENDBRANCH  18  21
ENDBRANCH   2  18
TORSDOF 3
