REMARK  Name = ZINCkj000005jmlJ.0
REMARK                            x       y       z     vdW  Elec       q    Type
REMARK                         _______ _______ _______ _____ _____    ______ ____
ROOT
ATOM      1  C   LIG    1       -1.022   3.740   0.376  0.00  0.00    +0.080 C 
ENDROOT
BRANCH   1  11
ATOM      2  C   LIG    1       -1.448  -0.429   0.279  0.00  0.00    +0.090 C 
ATOM      3  C   LIG    1       -0.019   0.052   0.016  0.00  0.00    +0.230 C 
ATOM      4  C   LIG    1        0.922  -0.527   1.077  0.00  0.00    +0.270 C 
ATOM      5  N   LIG    1        2.264   0.043   0.903  0.00  0.00    -0.510 N 
ATOM      6  C   LIG    1        2.229   1.490   1.153  0.00  0.00    +0.270 C 
ATOM      7  C   LIG    1        1.352   2.168   0.095  0.00  0.00    +0.310 C 
ATOM      8  H   LIG    1        2.580  -0.125  -0.040  0.00  0.00    +0.430 HD
ATOM      9  H   LIG    1        2.901  -0.394   1.552  0.00  0.00    +0.440 HD
ATOM     10  N   LIG    1        0.032   1.520   0.098  0.00  0.00    -0.630 N 
ATOM     11  C   LIG    1       -1.099   2.249   0.167  0.00  0.00    +0.530 C 
ATOM     12  O   LIG    1       -2.179   1.707   0.062  0.00  0.00    -0.500 OA
ENDBRANCH   1  11
BRANCH   1  13
ATOM     13  C   LIG    1       -2.437   4.322   0.417  0.00  0.00    +0.180 C 
BRANCH  13  14
ATOM     14  C   LIG    1       -2.360   5.813   0.626  0.00  0.00    +0.270 A 
ATOM     15  N   LIG    1       -1.735   6.397   1.607  0.00  0.00    -0.490 NA
ATOM     16  C   LIG    1       -1.865   7.744   1.493  0.00  0.00    +0.040 A 
ATOM     17  C   LIG    1       -1.406   8.823   2.252  0.00  0.00    +0.060 A 
ATOM     18  C   LIG    1       -1.709  10.100   1.872  0.00  0.00    +0.010 A 
ATOM     19  C   LIG    1       -2.470  10.339   0.737  0.00  0.00    +0.040 A 
ATOM     20  C   LIG    1       -2.934   9.289  -0.027  0.00  0.00    +0.020 A 
ATOM     21  C   LIG    1       -2.636   7.985   0.343  0.00  0.00    +0.050 A 
ATOM     22  N   LIG    1       -2.929   6.744  -0.186  0.00  0.00    -0.600 N 
ATOM     23  H   LIG    1       -3.446   6.569  -0.988  0.00  0.00    +0.420 HD
ENDBRANCH  13  14
ENDBRANCH   1  13
TORSDOF 3
