REMARK  Name = ZINCrH00000tj1f5.0
REMARK                            x       y       z     vdW  Elec       q    Type
REMARK                         _______ _______ _______ _____ _____    ______ ____
ROOT
ATOM      1  C   LIG    1       -1.187   1.872   0.143  0.00  0.00    +0.150 C 
ATOM      2  C   LIG    1       -0.569   3.082   0.168  0.00  0.00    -0.130 C 
ATOM      3  C   LIG    1        0.868   2.820   0.305  0.00  0.00    +0.570 C 
ATOM      4  N   LIG    1        1.064   1.492   0.361  0.00  0.00    -0.570 N 
ATOM      5  O   LIG    1        1.739   3.667   0.358  0.00  0.00    -0.440 OA
ATOM      6 CL   LIG    1       -1.331   4.637   0.054  0.00  0.00    +0.020 Cl
ATOM      7  C   LIG    1       -0.115   0.851   0.274  0.00  0.00    +0.550 C 
ATOM      8  O   LIG    1       -0.276  -0.352   0.294  0.00  0.00    -0.430 OA
ENDROOT
BRANCH   1   9
ATOM      9  N   LIG    1       -2.541   1.639   0.021  0.00  0.00    -0.640 N 
ATOM     10  H   LIG    1       -3.158   2.018   0.666  0.00  0.00    +0.430 HD
BRANCH   9  15
ATOM     11  C   LIG    1       -2.641  -0.358  -3.067  0.00  0.00    +0.140 A 
ATOM     12  C   LIG    1       -3.985  -0.699  -3.115  0.00  0.00    -0.070 A 
ATOM     13  C   LIG    1       -4.848  -0.267  -2.125  0.00  0.00    +0.010 A 
ATOM     14  C   LIG    1       -4.372   0.506  -1.079  0.00  0.00    +0.050 A 
ATOM     15  C   LIG    1       -3.023   0.856  -1.030  0.00  0.00    +0.200 A 
ATOM     16  C   LIG    1       -2.159   0.419  -2.025  0.00  0.00    -0.030 A 
BRANCH  11  18
ATOM     17  C   LIG    1       -2.360  -1.583  -5.086  0.00  0.00    +0.250 C 
ATOM     18  O   LIG    1       -1.796  -0.786  -4.042  0.00  0.00    -0.310 OA
ENDBRANCH  11  18
BRANCH  14  19
ATOM     19  O   LIG    1       -5.220   0.927  -0.103  0.00  0.00    -0.320 OA
ATOM     20  C   LIG    1       -6.589   0.531  -0.217  0.00  0.00    +0.250 C 
ENDBRANCH  14  19
ENDBRANCH   9  15
ENDBRANCH   1   9
BRANCH   4  21
ATOM     21  C   LIG    1        2.369   0.839   0.497  0.00  0.00    +0.380 C 
BRANCH  21  22
ATOM     22  C   LIG    1        2.943   0.573  -0.871  0.00  0.00    -0.120 A 
ATOM     23  C   LIG    1        2.676  -0.622  -1.512  0.00  0.00    +0.060 A 
ATOM     24  C   LIG    1        3.198  -0.864  -2.769  0.00  0.00    +0.030 A 
ATOM     25  C   LIG    1        3.997   0.086  -3.380  0.00  0.00    -0.020 A 
ATOM     26  C   LIG    1        4.268   1.280  -2.736  0.00  0.00    +0.030 A 
ATOM     27 CL   LIG    1        4.659  -0.221  -4.955  0.00  0.00    -0.060 Cl
ATOM     28  C   LIG    1        3.740   1.523  -1.482  0.00  0.00    +0.060 A 
ENDBRANCH  21  22
ENDBRANCH   4  21
TORSDOF 6
