REMARK  Name = ZINCrg00000SjSIi.0
REMARK                            x       y       z     vdW  Elec       q    Type
REMARK                         _______ _______ _______ _____ _____    ______ ____
ROOT
ATOM      1  C   LIG    1        3.002  10.596  -1.990  0.00  0.00    +0.510 C 
ATOM      2  N   LIG    1        3.500   9.461  -2.519  0.00  0.00    -0.700 N 
ATOM      3  H   LIG    1        4.441   9.249  -2.413  0.00  0.00    +0.420 HD
ATOM      4  O   LIG    1        1.825  10.860  -2.121  0.00  0.00    -0.510 OA
ENDROOT
BRANCH   1  11
ATOM      5  C   LIG    1        4.321  13.690  -0.174  0.00  0.00    +0.300 C 
ATOM      6  C   LIG    1        3.759  14.082   1.191  0.00  0.00    +0.030 C 
ATOM      7  C   LIG    1        2.316  14.565   1.027  0.00  0.00    +0.010 C 
ATOM      8  C   LIG    1        1.459  13.433   0.457  0.00  0.00    +0.020 C 
ATOM      9  C   LIG    1        1.996  13.036  -0.922  0.00  0.00    +0.280 C 
ATOM     10  N   LIG    1        3.423  12.709  -0.797  0.00  0.00    -0.570 N 
ATOM     11  C   LIG    1        3.898  11.528  -1.241  0.00  0.00    +0.510 C 
ATOM     12  O   LIG    1        5.054  11.223  -1.033  0.00  0.00    -0.490 OA
BRANCH   5  16
ATOM     13  C   LIG    1        9.224  12.758  -0.634  0.00  0.00    +0.350 C 
ATOM     14  N   LIG    1        7.825  12.683  -0.204  0.00  0.00    -0.380 N 
ATOM     15  C   LIG    1        6.819  13.473  -0.634  0.00  0.00    +0.220 A 
ATOM     16  C   LIG    1        5.689  13.084   0.001  0.00  0.00    -0.220 A 
ATOM     17  C   LIG    1        6.017  12.023   0.851  0.00  0.00    +0.280 A 
ATOM     18  N   LIG    1        7.296  11.778   0.725  0.00  0.00    -0.300 NA
ENDBRANCH   5  16
ENDBRANCH   1  11
BRANCH   2  19
ATOM     19  C   LIG    1        2.622   8.546  -3.252  0.00  0.00    +0.270 C 
BRANCH  19  20
ATOM     20  C   LIG    1        3.432   7.345  -3.744  0.00  0.00    +0.270 C 
BRANCH  20  21
ATOM     21  N   LIG    1        2.553   6.431  -4.478  0.00  0.00    -0.730 N 
ATOM     22  H   LIG    1        1.612   6.643  -4.583  0.00  0.00    +0.400 HD
ATOM     23  C   LIG    1        3.052   5.296  -5.007  0.00  0.00    +0.600 C 
ATOM     24  O   LIG    1        4.232   5.031  -4.875  0.00  0.00    -0.520 OA
BRANCH  23  25
ATOM     25  C   LIG    1        2.172   4.382  -5.741  0.00  0.00    -0.280 A 
ATOM     26  C   LIG    1        2.558   3.206  -6.320  0.00  0.00    +0.110 A 
ATOM     27  C   LIG    1        1.528   2.544  -6.945  0.00  0.00    +0.000 A 
ATOM     28  C   LIG    1        0.340   3.158  -6.886  0.00  0.00    -0.050 A 
ATOM     29  S   LIG    1        0.452   4.621  -6.016  0.00  0.00    +0.200 S 
ENDBRANCH  23  25
ENDBRANCH  20  21
ENDBRANCH  19  20
ENDBRANCH   2  19
TORSDOF 6
