REMARK  Name = ZINCpk00000ebo0v.0
REMARK                            x       y       z     vdW  Elec       q    Type
REMARK                         _______ _______ _______ _____ _____    ______ ____
ROOT
ATOM      1  C   LIG    1        3.581   0.966  -0.020  0.00  0.00    +0.390 C 
ENDROOT
BRANCH   1   2
ATOM      2  N   LIG    1        2.122   0.829  -0.011  0.00  0.00    -0.570 N 
ATOM      3  C   LIG    1        1.269   1.861  -0.000  0.00  0.00    +0.700 C 
ATOM      4  N   LIG    1       -0.018   1.463   0.010  0.00  0.00    -0.710 N 
ATOM      5  H   LIG    1       -0.802   2.034   0.017  0.00  0.00    +0.440 HD
ATOM      6  C   LIG    1        0.002  -0.004   0.002  0.00  0.00    +0.130 C 
ATOM      7  C   LIG    1       -0.719  -0.570  -1.188  0.00  0.00    +0.060 C 
ATOM      8  C   LIG    1       -1.827   0.373  -1.704  0.00  0.00    +0.030 C 
ATOM      9  C   LIG    1       -2.637   1.020  -0.562  0.00  0.00    +0.000 C 
ATOM     10  C   LIG    1       -2.950   0.049   0.543  0.00  0.00    +0.020 C 
ATOM     11  C   LIG    1       -1.866   0.182   1.631  0.00  0.00    +0.020 C 
ATOM     12  C   LIG    1       -0.647  -0.541   1.293  0.00  0.00    +0.050 C 
ATOM     13  O   LIG    1        1.617   3.025   0.001  0.00  0.00    -0.540 OA
ATOM     14  C   LIG    1        1.472  -0.354  -0.011  0.00  0.00    +0.540 C 
ATOM     15  O   LIG    1        1.963  -1.462  -0.021  0.00  0.00    -0.460 OA
ENDBRANCH   1   2
BRANCH   1  18
ATOM     16  N   LIG    1        5.389   1.144  -1.699  0.00  0.00    -0.620 N 
ATOM     17  H   LIG    1        6.021   1.200  -0.966  0.00  0.00    +0.430 HD
ATOM     18  C   LIG    1        4.071   1.019  -1.444  0.00  0.00    +0.490 C 
ATOM     19  O   LIG    1        3.280   0.949  -2.361  0.00  0.00    -0.490 OA
BRANCH  16  21
ATOM     20  C   LIG    1        7.154   1.324  -3.377  0.00  0.00    -0.240 A 
ATOM     21  C   LIG    1        5.840   1.193  -3.009  0.00  0.00    +0.080 A 
ATOM     22  S   LIG    1        4.836   1.106  -4.384  0.00  0.00    +0.300 S 
ATOM     23  C   LIG    1        6.198   1.239  -5.482  0.00  0.00    -0.110 A 
ATOM     24  C   LIG    1        7.336   1.342  -4.811  0.00  0.00    +0.060 A 
BRANCH  20  28
ATOM     25  N   LIG    1        9.525   1.556  -2.859  0.00  0.00    -0.850 N 
ATOM     26  H   LIG    1       10.255   1.626  -2.225  0.00  0.00    +0.410 HD
ATOM     27  H   LIG    1        9.706   1.577  -3.812  0.00  0.00    +0.400 HD
ATOM     28  C   LIG    1        8.258   1.430  -2.417  0.00  0.00    +0.600 C 
ATOM     29  O   LIG    1        8.030   1.403  -1.222  0.00  0.00    -0.560 OA
ENDBRANCH  20  28
ENDBRANCH  16  21
ENDBRANCH   1  18
TORSDOF 4
