REMARK  Name = ZINCkj000005jl5k.2
REMARK                            x       y       z     vdW  Elec       q    Type
REMARK                         _______ _______ _______ _____ _____    ______ ____
ROOT
ATOM      1  C   LIG    1       -4.534  -0.633  -1.034  0.00  0.00    +0.050 C 
ATOM      2  C   LIG    1       -3.711  -0.830   0.240  0.00  0.00    +0.260 C 
ATOM      3  C   LIG    1       -4.481  -0.274   1.448  0.00  0.00    +0.260 C 
ATOM      4  N   LIG    1       -4.630   1.179   1.302  0.00  0.00    -0.380 N 
ATOM      5  C   LIG    1       -3.312   1.825   1.344  0.00  0.00    +0.150 C 
ATOM      6  C   LIG    1       -2.484   1.372   0.137  0.00  0.00    +0.330 C 
ATOM      7  C   LIG    1       -3.486   3.344   1.303  0.00  0.00    +0.100 C 
ATOM      8  C   LIG    1       -5.462   1.695   2.398  0.00  0.00    +0.330 C 
ATOM      9  H   LIG    1       -5.075   1.383   0.420  0.00  0.00    +0.420 HD
ATOM     10  N   LIG    1       -2.440  -0.098   0.127  0.00  0.00    -0.620 N 
ATOM     11  C   LIG    1       -1.270  -0.756   0.010  0.00  0.00    +0.590 C 
ATOM     12  O   LIG    1       -1.259  -1.969  -0.068  0.00  0.00    -0.470 OA
ENDROOT
BRANCH  11  13
ATOM     13  C   LIG    1        0.001  -0.002  -0.022  0.00  0.00    +0.080 A 
ATOM     14  N   LIG    1        0.065   1.156  -0.669  0.00  0.00    -0.460 NA
ATOM     15  C   LIG    1        1.175   1.857  -0.722  0.00  0.00    +0.270 A 
ATOM     16  C   LIG    1        2.334   1.413  -0.100  0.00  0.00    +0.020 A 
ATOM     17  C   LIG    1        2.321   0.213   0.586  0.00  0.00    +0.030 A 
ATOM     18  C   LIG    1        1.131  -0.514   0.629  0.00  0.00    +0.100 A 
BRANCH  18  19
ATOM     19  N   LIG    1        1.068  -1.725   1.306  0.00  0.00    -0.500 N 
ATOM     20  C   LIG    1        1.299  -1.536   2.745  0.00  0.00    +0.220 C 
ATOM     21  C   LIG    1        2.018  -2.693   0.743  0.00  0.00    +0.220 C 
ENDBRANCH  18  19
ENDBRANCH  11  13
TORSDOF 2
