REMARK  Name = ZINCkj000005jl5k.1
REMARK                            x       y       z     vdW  Elec       q    Type
REMARK                         _______ _______ _______ _____ _____    ______ ____
ROOT
ATOM      1  C   LIG    1       -3.476  -2.316  -0.032  0.00  0.00    +0.100 C 
ATOM      2  C   LIG    1       -3.711  -0.830   0.247  0.00  0.00    +0.230 C 
ATOM      3  C   LIG    1       -4.737  -0.277  -0.747  0.00  0.00    +0.250 C 
ATOM      4  N   LIG    1       -4.858   1.176  -0.566  0.00  0.00    -0.380 N 
ATOM      5  C   LIG    1       -3.588   1.829  -0.905  0.00  0.00    +0.160 C 
ATOM      6  C   LIG    1       -2.503   1.380   0.086  0.00  0.00    +0.330 C 
ATOM      7  C   LIG    1       -3.178   1.440  -2.326  0.00  0.00    +0.080 C 
ATOM      8  C   LIG    1       -5.920   1.690  -1.440  0.00  0.00    +0.310 C 
ATOM      9  H   LIG    1       -5.092   1.375   0.396  0.00  0.00    +0.420 HD
ATOM     10  N   LIG    1       -2.451  -0.090   0.076  0.00  0.00    -0.620 N 
ATOM     11  C   LIG    1       -1.280  -0.741  -0.079  0.00  0.00    +0.580 C 
ATOM     12  O   LIG    1       -1.272  -1.944  -0.251  0.00  0.00    -0.460 OA
ENDROOT
BRANCH  11  13
ATOM     13  C   LIG    1       -0.008   0.009  -0.041  0.00  0.00    +0.080 A 
ATOM     14  N   LIG    1       -0.010   1.298   0.282  0.00  0.00    -0.460 NA
ATOM     15  C   LIG    1        1.099   2.000   0.328  0.00  0.00    +0.260 A 
ATOM     16  C   LIG    1        2.327   1.421   0.040  0.00  0.00    +0.030 A 
ATOM     17  C   LIG    1        2.385   0.083  -0.302  0.00  0.00    +0.040 A 
ATOM     18  C   LIG    1        1.194  -0.644  -0.344  0.00  0.00    +0.110 A 
BRANCH  18  19
ATOM     19  N   LIG    1        1.201  -1.991  -0.681  0.00  0.00    -0.490 N 
ATOM     20  C   LIG    1        1.941  -2.779   0.313  0.00  0.00    +0.210 C 
ATOM     21  C   LIG    1        1.751  -2.193  -2.029  0.00  0.00    +0.210 C 
ENDBRANCH  18  19
ENDBRANCH  11  13
TORSDOF 2
