REMARK  Name = ZINCqH0000034kue.0
REMARK                            x       y       z     vdW  Elec       q    Type
REMARK                         _______ _______ _______ _____ _____    ______ ____
ROOT
ATOM      1  C   LIG    1        0.017   1.019  -0.002  0.00  0.00    +0.250 C 
ATOM      2  C   LIG    1       -0.734   1.541  -1.229  0.00  0.00    +0.020 C 
ATOM      3  C   LIG    1       -0.039   1.041  -2.499  0.00  0.00    +0.280 C 
ATOM      4  N   LIG    1        1.377   1.431  -2.447  0.00  0.00    -0.610 N 
ATOM      5  C   LIG    1        2.170   1.058  -1.268  0.00  0.00    +0.300 C 
ATOM      6  C   LIG    1        1.938   2.116  -3.463  0.00  0.00    +0.570 C 
ATOM      7  O   LIG    1        3.079   2.523  -3.365  0.00  0.00    -0.520 OA
ATOM      8  C   LIG    1        1.450   1.558  -0.012  0.00  0.00    +0.020 C 
ENDROOT
BRANCH   1  17
ATOM      9  C   LIG    1       -1.202   0.673   2.179  0.00  0.00    +0.290 A 
ATOM     10  N   LIG    1       -1.726   1.402   3.120  0.00  0.00    -0.490 NA
ATOM     11  C   LIG    1       -1.569   2.717   2.820  0.00  0.00    +0.050 A 
ATOM     12  C   LIG    1       -1.936   3.902   3.461  0.00  0.00    +0.070 A 
ATOM     13  C   LIG    1       -1.630   5.107   2.893  0.00  0.00    +0.000 A 
ATOM     14  C   LIG    1       -0.956   5.167   1.682  0.00  0.00    +0.030 A 
ATOM     15  C   LIG    1       -0.584   4.010   1.031  0.00  0.00    +0.010 A 
ATOM     16  C   LIG    1       -0.886   2.778   1.593  0.00  0.00    +0.050 A 
ATOM     17  N   LIG    1       -0.665   1.468   1.215  0.00  0.00    -0.480 N 
BRANCH   9  19
ATOM     18  C   LIG    1        0.075  -1.341   2.859  0.00  0.00    +0.040 C 
ATOM     19  C   LIG    1       -1.188  -0.834   2.160  0.00  0.00    +0.130 C 
ENDBRANCH   9  19
ENDBRANCH   1  17
BRANCH   6  20
ATOM     20  C   LIG    1        1.165   2.374  -4.697  0.00  0.00    -0.190 A 
ATOM     21  C   LIG    1        0.569   1.318  -5.397  0.00  0.00    +0.100 A 
ATOM     22  C   LIG    1       -0.145   1.613  -6.546  0.00  0.00    -0.040 A 
ATOM     23  C   LIG    1       -0.245   2.928  -6.962  0.00  0.00    +0.290 A 
ATOM     24  N   LIG    1        0.328   3.903  -6.282  0.00  0.00    -0.480 NA
ATOM     25  C   LIG    1        1.012   3.674  -5.180  0.00  0.00    +0.180 A 
ATOM     26  C   LIG    1        1.641   4.825  -4.438  0.00  0.00    +0.130 C 
ENDBRANCH   6  20
TORSDOF 3
