REMARK  Name = ZINCrH000004umpX.0
REMARK                            x       y       z     vdW  Elec       q    Type
REMARK                         _______ _______ _______ _____ _____    ______ ____
ROOT
ATOM      1  C   LIG    1        6.744   4.548   2.130  0.00  0.00    -0.130 A 
ATOM      2  C   LIG    1        7.154   5.209   0.969  0.00  0.00    +0.120 A 
ATOM      3  C   LIG    1        8.439   5.693   0.872  0.00  0.00    +0.030 A 
ATOM      4  C   LIG    1        9.333   5.515   1.925  0.00  0.00    +0.250 A 
ATOM      5  C   LIG    1        8.928   4.853   3.081  0.00  0.00    -0.060 A 
ATOM      6  C   LIG    1        7.644   4.371   3.186  0.00  0.00    +0.180 A 
ENDROOT
BRANCH   1   8
ATOM      7  O   LIG    1        5.011   3.454   3.248  0.00  0.00    -0.520 OA
ATOM      8  C   LIG    1        5.366   4.033   2.240  0.00  0.00    +0.560 C 
ATOM      9  N   LIG    1        4.500   4.204   1.221  0.00  0.00    -0.720 N 
ATOM     10  H   LIG    1        4.782   4.666   0.417  0.00  0.00    +0.400 HD
BRANCH   9  11
ATOM     11  C   LIG    1        3.131   3.693   1.330  0.00  0.00    +0.290 C 
BRANCH  11  12
ATOM     12  C   LIG    1        2.362   4.017   0.048  0.00  0.00    +0.100 C 
BRANCH  12  13
ATOM     13  C   LIG    1        0.954   3.491   0.160  0.00  0.00    +0.130 A 
ATOM     14  C   LIG    1       -0.112   4.348  -0.031  0.00  0.00    -0.030 A 
ATOM     15  C   LIG    1       -1.404   3.854   0.074  0.00  0.00    +0.070 A 
ATOM     16  C   LIG    1       -1.574   2.509   0.363  0.00  0.00    -0.030 A 
ATOM     17  C   LIG    1       -0.459   1.713   0.545  0.00  0.00    +0.270 A 
ATOM     18  N   LIG    1        0.755   2.217   0.438  0.00  0.00    -0.480 NA
ENDBRANCH  12  13
ENDBRANCH  11  12
ENDBRANCH   9  11
ENDBRANCH   1   8
BRANCH   5  19
ATOM     19  N   LIG    1        9.881   4.666   4.198  0.00  0.00    +0.030 N 
ATOM     20  O   LIG    1       10.984   5.181   4.150  0.00  0.00    -0.130 OA
ATOM     21  O   LIG    1        9.563   3.998   5.165  0.00  0.00    -0.160 OA
ENDBRANCH   5  19
BRANCH   4  22
ATOM     22  N   LIG    1       10.632   6.001   1.822  0.00  0.00    -0.700 N 
ATOM     23  H   LIG    1       10.813   6.940   1.988  0.00  0.00    +0.420 HD
BRANCH  22  24
ATOM     24  C   LIG    1       11.675   5.138   1.478  0.00  0.00    +0.220 A 
ATOM     25  C   LIG    1       11.408   3.809   1.173  0.00  0.00    -0.080 A 
ATOM     26  C   LIG    1       12.441   2.960   0.829  0.00  0.00    +0.050 A 
ATOM     27  C   LIG    1       13.742   3.429   0.798  0.00  0.00    -0.040 A 
ATOM     28  C   LIG    1       14.013   4.749   1.108  0.00  0.00    +0.060 A 
ATOM     29  C   LIG    1       12.984   5.605   1.447  0.00  0.00    -0.040 A 
ENDBRANCH  22  24
ENDBRANCH   4  22
TORSDOF 7
