REMARK  Name = ZINCkj000005jOp6.2
REMARK                            x       y       z     vdW  Elec       q    Type
REMARK                         _______ _______ _______ _____ _____    ______ ____
ROOT
ATOM      1  N   LIG    1       -1.163  -1.942   0.893  0.00  0.00    -0.380 N 
ATOM      2  C   LIG    1       -0.852  -1.492   2.256  0.00  0.00    +0.330 C 
ATOM      3  H   LIG    1       -0.420  -2.536   0.557  0.00  0.00    +0.420 HD
ENDROOT
BRANCH   1   5
ATOM      4  C   LIG    1       -1.617  -1.243  -1.410  0.00  0.00    +0.100 C 
ATOM      5  C   LIG    1       -1.293  -0.775   0.010  0.00  0.00    +0.230 C 
BRANCH   5   6
ATOM      6  C   LIG    1        0.002  -0.004   0.002  0.00  0.00    -0.150 A 
ATOM      7  C   LIG    1       -0.017   1.378   0.010  0.00  0.00    +0.090 A 
ATOM      8  C   LIG    1        1.170   2.086   0.002  0.00  0.00    +0.010 A 
ATOM      9  C   LIG    1        2.379   1.410  -0.013  0.00  0.00    +0.130 A 
ATOM     10  C   LIG    1        2.396   0.026  -0.020  0.00  0.00    +0.010 A 
ATOM     11  F   LIG    1        3.540   2.101  -0.019  0.00  0.00    -0.120 F 
ATOM     12  C   LIG    1        1.208  -0.680  -0.013  0.00  0.00    +0.040 A 
ENDBRANCH   5   6
ENDBRANCH   1   5
BRANCH   1  13
ATOM     13  C   LIG    1       -2.425  -2.693   0.901  0.00  0.00    +0.330 C 
BRANCH  13  14
ATOM     14  C   LIG    1       -2.254  -3.954   1.708  0.00  0.00    +0.540 C 
ATOM     15  N   LIG    1       -3.288  -4.806   1.854  0.00  0.00    -0.570 N 
ATOM     16  C   LIG    1       -3.252  -6.068   2.608  0.00  0.00    +0.300 C 
ATOM     17  C   LIG    1       -4.679  -6.630   2.454  0.00  0.00    +0.280 C 
ATOM     18  N   LIG    1       -5.364  -5.630   1.623  0.00  0.00    -0.710 N 
ATOM     19  H   LIG    1       -6.288  -5.679   1.332  0.00  0.00    +0.450 HD
ATOM     20  C   LIG    1       -4.511  -4.640   1.332  0.00  0.00    +0.700 C 
ATOM     21  O   LIG    1       -4.817  -3.678   0.655  0.00  0.00    -0.560 OA
ATOM     22  O   LIG    1       -1.186  -4.203   2.225  0.00  0.00    -0.490 OA
ENDBRANCH  13  14
ENDBRANCH   1  13
TORSDOF 4
