REMARK  Name = ZINCpe00000MJIZu.0
REMARK                            x       y       z     vdW  Elec       q    Type
REMARK                         _______ _______ _______ _____ _____    ______ ____
ROOT
ATOM      1  C   LIG    1       -2.477   0.931   0.015  0.00  0.00    +0.070 C 
ENDROOT
BRANCH   1   6
ATOM      2  C   LIG    1       -5.544   3.038  -3.691  0.00  0.00    +0.110 C 
ATOM      3  C   LIG    1       -6.131   2.070  -2.696  0.00  0.00    +0.520 C 
ATOM      4  N   LIG    1       -5.447   1.754  -1.579  0.00  0.00    -0.560 N 
ATOM      5  C   LIG    1       -4.178   2.362  -1.171  0.00  0.00    +0.280 C 
ATOM      6  C   LIG    1       -3.808   1.673   0.153  0.00  0.00    +0.050 C 
ATOM      7  C   LIG    1       -4.934   0.695   0.401  0.00  0.00    -0.130 A 
ATOM      8  C   LIG    1       -5.149  -0.197   1.433  0.00  0.00    +0.060 A 
ATOM      9  C   LIG    1       -6.275  -0.998   1.436  0.00  0.00    -0.010 A 
ATOM     10  C   LIG    1       -7.189  -0.904   0.403  0.00  0.00    +0.040 A 
ATOM     11  C   LIG    1       -6.979  -0.015  -0.630  0.00  0.00    +0.010 A 
ATOM     12  C   LIG    1       -5.844   0.797  -0.640  0.00  0.00    +0.150 A 
ATOM     13  O   LIG    1       -7.220   1.576  -2.901  0.00  0.00    -0.520 OA
ENDBRANCH   1   6
BRANCH   1  14
ATOM     14  C   LIG    1       -1.337   1.945  -0.096  0.00  0.00    +0.080 C 
BRANCH  14  15
ATOM     15  C   LIG    1       -0.017   1.217  -0.109  0.00  0.00    +0.520 C 
ATOM     16  N   LIG    1        1.134   1.911  -0.206  0.00  0.00    -0.490 N 
ATOM     17  H   LIG    1        1.113   2.879  -0.265  0.00  0.00    +0.420 HD
ATOM     18  O   LIG    1        0.008   0.007  -0.036  0.00  0.00    -0.510 OA
BRANCH  16  19
ATOM     19  N   LIG    1        2.360   1.234  -0.224  0.00  0.00    -0.430 N 
ATOM     20  C   LIG    1        3.336   1.151   0.877  0.00  0.00    +0.330 C 
ATOM     21  C   LIG    1        4.452   0.303   0.300  0.00  0.00    +0.530 C 
ATOM     22  N   LIG    1        4.072   0.006  -0.958  0.00  0.00    -0.570 N 
ATOM     23  C   LIG    1        4.865  -0.800  -1.889  0.00  0.00    +0.350 C 
ATOM     24  O   LIG    1        5.477  -0.033   0.854  0.00  0.00    -0.460 OA
ATOM     25  C   LIG    1        2.880   0.539  -1.252  0.00  0.00    +0.710 C 
ATOM     26  O   LIG    1        2.329   0.408  -2.327  0.00  0.00    -0.520 OA
ENDBRANCH  16  19
ENDBRANCH  14  15
ENDBRANCH   1  14
TORSDOF 4
