REMARK  Name = ZINCpe000000YTTH.0
REMARK                            x       y       z     vdW  Elec       q    Type
REMARK                         _______ _______ _______ _____ _____    ______ ____
ROOT
ATOM      1  N   LIG    1        2.909   4.244  -4.367  0.00  0.00    -0.510 NA
ATOM      2  C   LIG    1        1.886   4.872  -3.520  0.00  0.00    +0.170 C 
ATOM      3  C   LIG    1        2.524   5.317  -2.199  0.00  0.00    +0.310 C 
ATOM      4  N   LIG    1        3.205   4.161  -1.597  0.00  0.00    -0.990 NA
ATOM      5  C   LIG    1        4.150   3.399  -2.428  0.00  0.00    +0.310 C 
ATOM      6  C   LIG    1        3.444   3.027  -3.742  0.00  0.00    +0.170 C 
ENDROOT
BRANCH   4   7
ATOM      7  S   LIG    1        2.922   3.732  -0.023  0.00  0.00    +2.690 S 
ATOM      8  O   LIG    1        4.063   3.001   0.406  0.00  0.00    -0.940 OA
ATOM      9  O   LIG    1        2.457   4.903   0.635  0.00  0.00    -0.940 OA
BRANCH   7  10
ATOM     10  C   LIG    1        1.575   2.596  -0.026  0.00  0.00    -0.760 A 
ATOM     11  C   LIG    1        1.816   1.237  -0.137  0.00  0.00    +0.230 A 
ATOM     12  C   LIG    1        0.757   0.345  -0.139  0.00  0.00    -0.030 A 
ATOM     13  C   LIG    1       -0.540   0.811  -0.036  0.00  0.00    +0.140 A 
ATOM     14  C   LIG    1       -0.781   2.167   0.081  0.00  0.00    -0.030 A 
ATOM     15  F   LIG    1        3.083   0.782  -0.243  0.00  0.00    -0.110 F 
ATOM     16  C   LIG    1        0.276   3.061   0.083  0.00  0.00    +0.230 A 
ATOM     17  F   LIG    1        0.040   4.386   0.192  0.00  0.00    -0.110 F 
ENDBRANCH   7  10
ENDBRANCH   4   7
BRANCH   1  18
ATOM     18  C   LIG    1        2.381   3.959  -5.707  0.00  0.00    +0.260 C 
BRANCH  18  20
ATOM     19  O   LIG    1        0.899   2.560  -4.518  0.00  0.00    -0.540 OA
ATOM     20  C   LIG    1        1.281   2.934  -5.606  0.00  0.00    +0.490 C 
ATOM     21  N   LIG    1        0.722   2.433  -6.725  0.00  0.00    -0.620 N 
ATOM     22  C   LIG    1        1.082   2.801  -8.102  0.00  0.00    +0.240 C 
ATOM     23  C   LIG    1        0.166   1.996  -9.047  0.00  0.00    +0.040 C 
ATOM     24  C   LIG    1       -1.046   1.651  -8.142  0.00  0.00    +0.040 C 
ATOM     25  C   LIG    1       -0.358   1.430  -6.772  0.00  0.00    +0.250 C 
ENDBRANCH  18  20
ENDBRANCH   1  18
TORSDOF 4
