REMARK  Name = ZINCpk00000kTbKO.0
REMARK                            x       y       z     vdW  Elec       q    Type
REMARK                         _______ _______ _______ _____ _____    ______ ____
ROOT
ATOM      1  C   LIG    1        0.729   8.079   2.084  0.00  0.00    +0.100 C 
ATOM      2  C   LIG    1        0.692   7.423   3.467  0.00  0.00    +0.050 C 
ATOM      3  C   LIG    1        0.898   5.913   3.323  0.00  0.00    +0.020 C 
ATOM      4  C   LIG    1       -0.242   5.325   2.478  0.00  0.00    +0.270 C 
ATOM      5  N   LIG    1       -0.300   6.050   1.202  0.00  0.00    -0.600 N 
ATOM      6  C   LIG    1       -0.261   5.383   0.031  0.00  0.00    +0.570 C 
ATOM      7  O   LIG    1       -0.315   5.995  -1.020  0.00  0.00    -0.520 OA
ATOM      8  C   LIG    1       -0.407   7.515   1.226  0.00  0.00    +0.300 C 
ENDROOT
BRANCH   6   9
ATOM      9  C   LIG    1       -0.154   3.917   0.023  0.00  0.00    -0.090 A 
ATOM     10  C   LIG    1       -1.291   3.122   0.029  0.00  0.00    +0.110 A 
ATOM     11  C   LIG    1       -1.200   1.731   0.017  0.00  0.00    +0.040 A 
ATOM     12  C   LIG    1       -0.013   1.076   0.008  0.00  0.00    +0.110 A 
ATOM     13  C   LIG    1        1.204   1.791   0.000  0.00  0.00    +0.090 A 
ATOM     14  N   LIG    1        2.481   1.450  -0.013  0.00  0.00    -0.280 NA
ATOM     15  N   LIG    1        3.260   2.614  -0.014  0.00  0.00    -0.420 N 
ATOM     16  H   LIG    1        4.229   2.635  -0.022  0.00  0.00    +0.450 HD
ATOM     17  C   LIG    1        2.463   3.695  -0.001  0.00  0.00    +0.280 A 
ATOM     18  F   LIG    1       -2.509   3.706   0.043  0.00  0.00    -0.130 F 
ATOM     19  C   LIG    1        1.159   3.261   0.008  0.00  0.00    -0.170 A 
ENDBRANCH   6   9
BRANCH   1  23
ATOM     20  C   LIG    1        0.877  13.028   1.285  0.00  0.00    +0.360 C 
ATOM     21  N   LIG    1        0.616  11.721   1.893  0.00  0.00    -0.420 NA
ATOM     22  N   LIG    1        0.979  10.466   1.379  0.00  0.00    -0.320 NA
ATOM     23  C   LIG    1        0.558   9.569   2.230  0.00  0.00    +0.250 C 
ATOM     24  N   LIG    1       -0.052  10.182   3.245  0.00  0.00    -0.580 NA
ATOM     25  C   LIG    1       -0.021  11.484   3.060  0.00  0.00    +0.530 C 
BRANCH  25  26
ATOM     26  N   LIG    1       -0.552  12.440   3.907  0.00  0.00    -0.820 NA
ATOM     27  H   LIG    1       -0.994  12.170   4.727  0.00  0.00    +0.420 HD
ATOM     28  H   LIG    1       -0.483  13.381   3.680  0.00  0.00    +0.410 HD
ENDBRANCH  25  26
ENDBRANCH   1  23
TORSDOF 3
