REMARK  Name = ZINCpe000000WgZe.0
REMARK                            x       y       z     vdW  Elec       q    Type
REMARK                         _______ _______ _______ _____ _____    ______ ____
ROOT
ATOM      1  C   LIG    1        4.198   2.414   2.205  0.00  0.00    +0.570 C 
ATOM      2  N   LIG    1        3.452   2.294   1.089  0.00  0.00    -0.720 N 
ATOM      3  H   LIG    1        3.793   2.617   0.240  0.00  0.00    +0.400 HD
ATOM      4  O   LIG    1        3.771   2.010   3.269  0.00  0.00    -0.530 OA
ENDROOT
BRANCH   1   7
ATOM      5  C   LIG    1        7.562   3.743   3.222  0.00  0.00    +0.140 A 
ATOM      6  C   LIG    1        6.310   3.161   3.290  0.00  0.00    -0.020 A 
ATOM      7  C   LIG    1        5.535   3.036   2.135  0.00  0.00    -0.060 A 
ATOM      8  C   LIG    1        6.030   3.496   0.912  0.00  0.00    -0.060 A 
ATOM      9  C   LIG    1        7.280   4.082   0.850  0.00  0.00    +0.140 A 
ATOM     10  C   LIG    1        8.051   4.205   2.003  0.00  0.00    +0.060 A 
BRANCH   5  12
ATOM     11  C   LIG    1        7.753   3.370   5.563  0.00  0.00    +0.250 C 
ATOM     12  O   LIG    1        8.317   3.865   4.347  0.00  0.00    -0.300 OA
ENDBRANCH   5  12
BRANCH   9  13
ATOM     13  O   LIG    1        7.760   4.534  -0.340  0.00  0.00    -0.300 OA
ATOM     14  C   LIG    1        6.917   4.376  -1.482  0.00  0.00    +0.250 C 
ENDBRANCH   9  13
BRANCH  10  15
ATOM     15  O   LIG    1        9.282   4.777   1.938  0.00  0.00    -0.310 OA
ATOM     16  C   LIG    1       10.388   3.909   1.683  0.00  0.00    +0.240 C 
ENDBRANCH  10  15
ENDBRANCH   1   7
BRANCH   2  17
ATOM     17  C   LIG    1        2.125   1.677   1.158  0.00  0.00    +0.230 C 
ATOM     18  C   LIG    1        2.263   0.156   1.052  0.00  0.00    +0.010 C 
ATOM     19  C   LIG    1        0.880  -0.492   1.159  0.00  0.00    +0.020 C 
ATOM     20  C   LIG    1        0.002  -0.004   0.002  0.00  0.00    +0.300 C 
ATOM     21  N   LIG    1       -0.018   1.465   0.010  0.00  0.00    -1.000 NA
ATOM     22  C   LIG    1        1.261   2.189   0.002  0.00  0.00    +0.290 C 
BRANCH  21  23
ATOM     23  S   LIG    1       -1.454   2.289   0.021  0.00  0.00    +2.610 S 
ATOM     24  O   LIG    1       -2.377   1.394  -0.584  0.00  0.00    -0.950 OA
ATOM     25  O   LIG    1       -1.145   3.540  -0.579  0.00  0.00    -0.950 OA
ATOM     26  C   LIG    1       -1.838   2.505   1.781  0.00  0.00    -0.280 C 
ENDBRANCH  21  23
ENDBRANCH   2  17
TORSDOF 6
