REMARK  Name = ZINCqH00000098tk.0
REMARK                            x       y       z     vdW  Elec       q    Type
REMARK                         _______ _______ _______ _____ _____    ______ ____
ROOT
ATOM      1  N   LIG    1        4.935  -4.091   1.642  0.00  0.00    -0.730 N 
ATOM      2  H   LIG    1        4.277  -4.388   2.289  0.00  0.00    +0.400 HD
ATOM      3  C   LIG    1        4.766  -2.920   0.997  0.00  0.00    +0.520 C 
ATOM      4  O   LIG    1        5.590  -2.549   0.188  0.00  0.00    -0.540 OA
ENDROOT
BRANCH   1   6
ATOM      5  C   LIG    1        7.284  -4.441   2.228  0.00  0.00    +0.040 C 
ATOM      6  C   LIG    1        6.114  -4.917   1.365  0.00  0.00    +0.280 C 
BRANCH   6   7
ATOM      7  C   LIG    1        5.806  -6.356   1.686  0.00  0.00    -0.070 A 
ATOM      8  C   LIG    1        6.268  -7.362   0.858  0.00  0.00    +0.060 A 
ATOM      9  C   LIG    1        5.987  -8.684   1.151  0.00  0.00    +0.030 A 
ATOM     10  C   LIG    1        5.242  -9.001   2.273  0.00  0.00    +0.070 A 
ATOM     11  C   LIG    1        4.778  -7.992   3.103  0.00  0.00    +0.070 A 
ATOM     12  F   LIG    1        4.050  -8.299   4.199  0.00  0.00    -0.130 F 
ATOM     13  F   LIG    1        4.967 -10.292   2.559  0.00  0.00    -0.130 F 
ATOM     14  C   LIG    1        5.065  -6.670   2.810  0.00  0.00    +0.020 A 
ENDBRANCH   6   7
ENDBRANCH   1   6
BRANCH   3  15
ATOM     15  C   LIG    1        3.554  -2.071   1.282  0.00  0.00    +0.060 C 
BRANCH  15  16
ATOM     16  C   LIG    1        3.605  -0.805   0.425  0.00  0.00    +0.080 C 
BRANCH  16  17
ATOM     17  C   LIG    1        2.374   0.056   0.714  0.00  0.00    +0.000 C 
ATOM     18  C   LIG    1        2.491   1.380  -0.042  0.00  0.00    +0.110 C 
ATOM     19  C   LIG    1        1.173   2.109   0.002  0.00  0.00    -0.120 A 
ATOM     20  C   LIG    1        1.148   3.489   0.027  0.00  0.00    +0.050 A 
ATOM     21  C   LIG    1       -0.061   4.160   0.050  0.00  0.00    -0.010 A 
ATOM     22  C   LIG    1       -1.248   3.451   0.047  0.00  0.00    +0.040 A 
ATOM     23  C   LIG    1       -1.230   2.070   0.031  0.00  0.00    -0.020 A 
ATOM     24  C   LIG    1       -0.017   1.393   0.010  0.00  0.00    +0.160 A 
ATOM     25  N   LIG    1        0.002  -0.004   0.002  0.00  0.00    -0.660 N 
ATOM     26  H   LIG    1       -0.810  -0.494  -0.199  0.00  0.00    +0.410 HD
ATOM     27  C   LIG    1        1.135  -0.676   0.271  0.00  0.00    +0.520 C 
ATOM     28  O   LIG    1        1.159  -1.883   0.156  0.00  0.00    -0.520 OA
ENDBRANCH  16  17
ENDBRANCH  15  16
ENDBRANCH   3  15
TORSDOF 5
