REMARK  Name = ZINC650000002JvZ.0
REMARK                            x       y       z     vdW  Elec       q    Type
REMARK                         _______ _______ _______ _____ _____    ______ ____
ROOT
ATOM      1  C   LIG    1        2.192   0.804   0.604  0.00  0.00    +0.150 C 
ATOM      2  C   LIG    1        1.480  -0.451   0.029  0.00  0.00    +0.030 C 
ATOM      3  C   LIG    1        0.002  -0.004   0.002  0.00  0.00    +0.200 C 
ATOM      4  O   LIG    1       -0.017   1.428   0.010  0.00  0.00    -0.380 OA
ATOM      5  C   LIG    1        1.326   1.937  -0.000  0.00  0.00    +0.180 C 
ENDROOT
BRANCH   1   6
ATOM      6  O   LIG    1        3.542   0.886   0.142  0.00  0.00    -0.550 OA
ATOM      7  H   LIG    1        4.026   1.653   0.476  0.00  0.00    +0.380 HD
ENDBRANCH   1   6
TORSDOF 1
