REMARK  Name = ZINCvU00000009Bt.0
REMARK                            x       y       z     vdW  Elec       q    Type
REMARK                         _______ _______ _______ _____ _____    ______ ____
ROOT
ATOM      1  O   LIG    1       -5.361  -3.059   0.034  0.00  0.00    -0.480 OA
ATOM      2  C   LIG    1       -5.727  -1.900   0.044  0.00  0.00    +0.570 C 
ATOM      3  N   LIG    1       -4.817  -0.905   0.041  0.00  0.00    -0.620 N 
ATOM      4  H   LIG    1       -5.110   0.020   0.049  0.00  0.00    +0.420 HD
ENDROOT
BRANCH   3   5
ATOM      5  C   LIG    1       -3.465  -1.204   0.027  0.00  0.00    +0.290 A 
ATOM      6  N   LIG    1       -2.515  -0.331   0.024  0.00  0.00    -0.500 NA
ATOM      7  C   LIG    1       -1.254  -0.774   0.009  0.00  0.00    +0.120 A 
ATOM      8  C   LIG    1       -1.159  -2.163  -0.001  0.00  0.00    -0.220 A 
ATOM      9  C   LIG    1        0.092  -2.797  -0.016  0.00  0.00    +0.060 A 
ATOM     10  C   LIG    1        1.251  -2.098  -0.022  0.00  0.00    +0.050 A 
ATOM     11  C   LIG    1        1.236  -0.689  -0.013  0.00  0.00    -0.040 A 
ATOM     12  C   LIG    1        2.431   0.050  -0.020  0.00  0.00    +0.030 A 
ATOM     13  C   LIG    1        2.380   1.411  -0.012  0.00  0.00    +0.020 A 
ATOM     14  C   LIG    1        1.161   2.083   0.002  0.00  0.00    +0.010 A 
ATOM     15  C   LIG    1       -0.017   1.395   0.010  0.00  0.00    +0.040 A 
ATOM     16  C   LIG    1        0.002  -0.004   0.002  0.00  0.00    -0.010 A 
ATOM     17  S   LIG    1       -2.792  -2.828   0.010  0.00  0.00    +0.210 S 
ENDBRANCH   3   5
BRANCH   2  18
ATOM     18  C   LIG    1       -7.170  -1.581   0.059  0.00  0.00    -0.150 A 
ATOM     19  C   LIG    1       -7.593  -0.251   0.076  0.00  0.00    +0.130 A 
ATOM     20  C   LIG    1       -8.941   0.040   0.085  0.00  0.00    +0.030 A 
ATOM     21  C   LIG    1       -9.874  -0.984   0.087  0.00  0.00    +0.080 A 
ATOM     22  C   LIG    1       -9.460  -2.306   0.076  0.00  0.00    -0.680 A 
ATOM     23 CL   LIG    1      -11.569  -0.609   0.105  0.00  0.00    -0.020 Cl
ATOM     24  C   LIG    1       -8.115  -2.609   0.062  0.00  0.00    +0.230 A 
BRANCH  22  25
ATOM     25  S   LIG    1      -10.653  -3.601   0.080  0.00  0.00    +2.710 S 
ATOM     26  O   LIG    1       -9.923  -4.820   0.102  0.00  0.00    -0.940 OA
ATOM     27  O   LIG    1      -11.598  -3.280  -0.931  0.00  0.00    -0.930 OA
BRANCH  25  28
ATOM     28  N   LIG    1      -11.464  -3.517   1.522  0.00  0.00    -1.010 NA
ATOM     29  C   LIG    1      -11.086  -4.214   2.760  0.00  0.00    +0.270 C 
ATOM     30  C   LIG    1      -12.141  -3.857   3.828  0.00  0.00    +0.030 C 
ATOM     31  C   LIG    1      -13.368  -3.439   2.974  0.00  0.00    +0.040 C 
ATOM     32  C   LIG    1      -12.688  -2.734   1.775  0.00  0.00    +0.270 C 
ENDBRANCH  25  28
ENDBRANCH  22  25
ENDBRANCH   2  18
TORSDOF 4
