REMARK  Name = ZINCtV000002LI9s.0
REMARK                            x       y       z     vdW  Elec       q    Type
REMARK                         _______ _______ _______ _____ _____    ______ ____
ROOT
ATOM      1  C   LIG    1        1.815  -2.700  -1.310  0.00  0.00    -0.090 A 
ATOM      2  C   LIG    1        3.128  -2.395  -1.620  0.00  0.00    +0.070 A 
ATOM      3  C   LIG    1        3.678  -2.832  -2.809  0.00  0.00    +0.010 A 
ATOM      4  C   LIG    1        2.912  -3.579  -3.695  0.00  0.00    +0.160 A 
ATOM      5  C   LIG    1        1.594  -3.884  -3.382  0.00  0.00    +0.060 A 
ATOM      6  C   LIG    1        1.050  -3.449  -2.188  0.00  0.00    -0.000 A 
ATOM      7 CL   LIG    1       -0.595  -3.837  -1.792  0.00  0.00    -0.050 Cl
ENDROOT
BRANCH   4   8
ATOM      8  N   LIG    1        3.467  -4.021  -4.900  0.00  0.00    -0.660 N 
ATOM      9  H   LIG    1        4.395  -4.301  -4.932  0.00  0.00    +0.410 HD
ATOM     10  C   LIG    1        2.712  -4.060  -6.015  0.00  0.00    +0.550 C 
ATOM     11  O   LIG    1        1.528  -3.789  -5.958  0.00  0.00    -0.490 OA
BRANCH  10  12
ATOM     12  C   LIG    1        3.323  -4.431  -7.309  0.00  0.00    -0.090 A 
ATOM     13  C   LIG    1        4.683  -4.737  -7.380  0.00  0.00    +0.050 A 
ATOM     14  C   LIG    1        5.246  -5.088  -8.589  0.00  0.00    +0.050 A 
ATOM     15  C   LIG    1        4.468  -5.126  -9.733  0.00  0.00    +0.050 A 
ATOM     16  C   LIG    1        3.120  -4.819  -9.671  0.00  0.00    +0.070 A 
ATOM     17  C   LIG    1        2.544  -4.472  -8.467  0.00  0.00    -0.130 A 
BRANCH  17  18
ATOM     18  C   LIG    1        1.076  -4.137  -8.401  0.00  0.00    +0.510 C 
ATOM     19  F   LIG    1        0.917  -2.828  -7.933  0.00  0.00    -0.160 F 
ATOM     20  F   LIG    1        0.433  -5.024  -7.531  0.00  0.00    -0.160 F 
ATOM     21  F   LIG    1        0.515  -4.247  -9.678  0.00  0.00    -0.180 F 
ENDBRANCH  17  18
ENDBRANCH  10  12
ENDBRANCH   4   8
BRANCH   1  22
ATOM     22  C   LIG    1        1.218  -2.222  -0.012  0.00  0.00    +0.220 C 
BRANCH  22  23
ATOM     23  C   LIG    1        1.121  -0.718  -0.028  0.00  0.00    -0.080 A 
ATOM     24  C   LIG    1        2.271   0.049  -0.003  0.00  0.00    +0.010 A 
ATOM     25  C   LIG    1        2.183   1.428  -0.018  0.00  0.00    +0.010 A 
ATOM     26  C   LIG    1        0.944   2.041  -0.058  0.00  0.00    +0.020 A 
ATOM     27  C   LIG    1       -0.206   1.274  -0.081  0.00  0.00    +0.010 A 
ATOM     28  C   LIG    1       -0.117  -0.105  -0.067  0.00  0.00    +0.030 A 
ENDBRANCH  22  23
BRANCH  22  30
ATOM     29  N   LIG    1        2.734  -2.975   1.972  0.00  0.00    -0.410 NA
ATOM     30  C   LIG    1        2.074  -2.647   1.108  0.00  0.00    +0.210 C 
ENDBRANCH  22  30
ENDBRANCH   1  22
TORSDOF 6
