REMARK  Name = ZINCpk00000y6yXG.0
REMARK                            x       y       z     vdW  Elec       q    Type
REMARK                         _______ _______ _______ _____ _____    ______ ____
ROOT
ATOM      1  C   LIG    1        5.913   0.775   0.630  0.00  0.00    +0.560 A 
ATOM      2  N   LIG    1        4.643   0.756   1.026  0.00  0.00    -0.590 NA
ATOM      3  C   LIG    1        3.670   0.814   0.134  0.00  0.00    +0.420 A 
ATOM      4  N   LIG    1        3.954   0.886  -1.155  0.00  0.00    -0.580 NA
ATOM      5  C   LIG    1        5.222   0.911  -1.559  0.00  0.00    +0.560 A 
ATOM      6  N   LIG    1        6.203   0.852  -0.665  0.00  0.00    -0.630 NA
ENDROOT
BRANCH   1  10
ATOM      7  C   LIG    1        9.238  -0.392   2.897  0.00  0.00    +0.160 C 
ATOM      8  C   LIG    1        9.341   0.826   1.976  0.00  0.00    +0.050 C 
ATOM      9  C   LIG    1        8.244   0.748   0.911  0.00  0.00    +0.230 C 
ATOM     10  N   LIG    1        6.929   0.714   1.562  0.00  0.00    -0.460 N 
ATOM     11  C   LIG    1        6.789  -0.473   2.416  0.00  0.00    +0.220 C 
ATOM     12  C   LIG    1        7.842  -0.431   3.526  0.00  0.00    +0.020 C 
BRANCH   7  13
ATOM     13  O   LIG    1       10.223  -0.296   3.928  0.00  0.00    -0.560 OA
ATOM     14  H   LIG    1       10.216  -1.036   4.550  0.00  0.00    +0.380 HD
ENDBRANCH   7  13
ENDBRANCH   1  10
BRANCH   5  15
ATOM     15  N   LIG    1        5.517   0.992  -2.904  0.00  0.00    -0.450 N 
ATOM     16  C   LIG    1        4.881   2.167  -3.513  0.00  0.00    +0.220 C 
ATOM     17  C   LIG    1        5.109   2.146  -5.026  0.00  0.00    +0.020 C 
ATOM     18  C   LIG    1        6.613   2.151  -5.311  0.00  0.00    +0.160 C 
ATOM     19  C   LIG    1        7.258   0.943  -4.626  0.00  0.00    +0.050 C 
ATOM     20  C   LIG    1        6.969   1.000  -3.125  0.00  0.00    +0.230 C 
BRANCH  18  21
ATOM     21  O   LIG    1        6.832   2.073  -6.721  0.00  0.00    -0.560 OA
ATOM     22  H   LIG    1        6.449   2.808  -7.220  0.00  0.00    +0.380 HD
ENDBRANCH  18  21
ENDBRANCH   5  15
BRANCH   3  23
ATOM     23  C   LIG    1        2.232   0.792   0.586  0.00  0.00    +0.080 C 
ATOM     24  C   LIG    1        1.453   1.995  -0.001  0.00  0.00    +0.040 C 
ATOM     25  C   LIG    1       -0.019   1.534   0.011  0.00  0.00    +0.020 C 
ATOM     26  C   LIG    1        0.002  -0.004   0.002  0.00  0.00    +0.020 C 
ATOM     27  C   LIG    1        1.486  -0.425  -0.014  0.00  0.00    +0.040 C 
ENDBRANCH   3  23
TORSDOF 5
