REMARK  Name = ZINCrD0000075XUy.0
REMARK                            x       y       z     vdW  Elec       q    Type
REMARK                         _______ _______ _______ _____ _____    ______ ____
ROOT
ATOM      1  O   LIG    1       -6.318   2.101   1.581  0.00  0.00    -0.520 OA
ATOM      2  C   LIG    1       -5.162   2.048   1.205  0.00  0.00    +0.710 C 
ATOM      3  N   LIG    1       -4.426   0.923   1.199  0.00  0.00    -0.730 N 
ATOM      4  H   LIG    1       -4.683   0.048   1.524  0.00  0.00    +0.440 HD
ATOM      5  C   LIG    1       -3.123   1.279   0.599  0.00  0.00    +0.180 C 
ATOM      6  C   LIG    1       -3.213   2.764   0.407  0.00  0.00    +0.540 C 
ATOM      7  O   LIG    1       -2.363   3.545   0.036  0.00  0.00    -0.450 OA
ATOM      8  C   LIG    1       -2.016   0.868   1.563  0.00  0.00    +0.060 C 
ATOM      9  C   LIG    1       -0.704   1.566   1.269  0.00  0.00    +0.020 C 
ATOM     10  C   LIG    1       -0.013   1.086   0.008  0.00  0.00    +0.020 C 
ATOM     11  C   LIG    1       -0.740   1.588  -1.238  0.00  0.00    +0.070 C 
ATOM     12  C   LIG    1       -1.906   0.670  -1.539  0.00  0.00    -0.050 A 
ATOM     13  C   LIG    1       -1.838  -0.060  -2.721  0.00  0.00    +0.010 A 
ATOM     14  C   LIG    1       -2.866  -0.911  -3.074  0.00  0.00    +0.030 A 
ATOM     15  C   LIG    1       -3.964  -1.035  -2.245  0.00  0.00    +0.010 A 
ATOM     16  C   LIG    1       -4.024  -0.315  -1.069  0.00  0.00    +0.030 A 
ATOM     17  C   LIG    1       -2.984   0.540  -0.713  0.00  0.00    -0.100 A 
ATOM     18  N   LIG    1       -4.479   3.103   0.749  0.00  0.00    -0.580 N 
ENDROOT
BRANCH  18  19
ATOM     19  C   LIG    1       -5.021   4.459   0.643  0.00  0.00    +0.350 C 
BRANCH  19  20
ATOM     20  C   LIG    1       -5.649   4.651  -0.740  0.00  0.00    +0.200 C 
BRANCH  20  21
ATOM     21  O   LIG    1       -6.774   3.782  -0.876  0.00  0.00    -0.300 OA
BRANCH  21  22
ATOM     22  C   LIG    1       -7.450   3.828  -2.055  0.00  0.00    +0.120 A 
ATOM     23  C   LIG    1       -7.040   4.696  -3.057  0.00  0.00    -0.040 A 
ATOM     24  C   LIG    1       -7.725   4.738  -4.256  0.00  0.00    +0.030 A 
ATOM     25  C   LIG    1       -8.825   3.921  -4.455  0.00  0.00    +0.060 A 
ATOM     26  C   LIG    1       -9.239   3.059  -3.454  0.00  0.00    +0.030 A 
ATOM     27  F   LIG    1       -9.496   3.967  -5.626  0.00  0.00    -0.140 F 
ATOM     28  C   LIG    1       -8.553   3.010  -2.256  0.00  0.00    +0.020 A 
ENDBRANCH  21  22
ENDBRANCH  20  21
ENDBRANCH  19  20
ENDBRANCH  18  19
TORSDOF 4
