REMARK  Name = ZINCpk000000mNXx.0
REMARK                            x       y       z     vdW  Elec       q    Type
REMARK                         _______ _______ _______ _____ _____    ______ ____
ROOT
ATOM      1  C   LIG    1        0.330   3.714   2.441  0.00  0.00    +0.340 C 
ENDROOT
BRANCH   1   2
ATOM      2  N   LIG    1       -0.687   3.005   1.660  0.00  0.00    -0.740 N 
ATOM      3  H   LIG    1       -1.593   2.932   1.996  0.00  0.00    +0.400 HD
ATOM      4  C   LIG    1       -0.362   2.454   0.473  0.00  0.00    +0.710 C 
ATOM      5  N   LIG    1       -1.317   1.884  -0.289  0.00  0.00    -0.630 N 
ATOM      6  C   LIG    1       -2.737   1.939   0.094  0.00  0.00    +0.280 C 
ATOM      7  C   LIG    1       -3.498   2.690  -1.000  0.00  0.00    +0.260 C 
ATOM      8  N   LIG    1       -3.121   2.202  -2.320  0.00  0.00    -0.720 N 
ATOM      9  H   LIG    1       -3.741   2.353  -3.050  0.00  0.00    +0.400 HD
ATOM     10  C   LIG    1       -1.981   1.562  -2.595  0.00  0.00    +0.510 C 
ATOM     11  O   LIG    1       -1.740   1.274  -3.749  0.00  0.00    -0.530 OA
ATOM     12  C   LIG    1       -0.982   1.182  -1.537  0.00  0.00    +0.260 C 
ATOM     13  C   LIG    1        0.423   1.585  -1.990  0.00  0.00    +0.090 C 
ATOM     14  O   LIG    1        0.792   2.470   0.091  0.00  0.00    -0.570 OA
ENDBRANCH   1   2
BRANCH   1  17
ATOM     15  C   LIG    1       -1.422   5.969   4.911  0.00  0.00    -0.060 A 
ATOM     16  C   LIG    1       -0.851   5.492   3.746  0.00  0.00    +0.010 A 
ATOM     17  C   LIG    1       -0.286   4.231   3.715  0.00  0.00    -0.070 A 
ATOM     18  C   LIG    1       -0.280   3.445   4.852  0.00  0.00    -0.040 A 
ATOM     19  C   LIG    1       -0.846   3.918   6.025  0.00  0.00    +0.110 A 
ATOM     20  C   LIG    1       -1.419   5.186   6.055  0.00  0.00    +0.080 A 
BRANCH  19  21
ATOM     21  O   LIG    1       -0.841   3.146   7.144  0.00  0.00    -0.300 OA
ATOM     22  C   LIG    1       -0.235   1.856   7.040  0.00  0.00    +0.240 C 
ENDBRANCH  19  21
BRANCH  20  23
ATOM     23  O   LIG    1       -1.975   5.656   7.204  0.00  0.00    -0.320 OA
ATOM     24  C   LIG    1       -3.378   5.447   7.378  0.00  0.00    +0.230 C 
ENDBRANCH  20  23
BRANCH  15  25
ATOM     25  C   LIG    1       -2.042   7.342   4.940  0.00  0.00    +0.110 C 
BRANCH  25  27
ATOM     26  C   LIG    1       -0.727   9.386   4.700  0.00  0.00    +0.010 C 
ATOM     27  C   LIG    1       -1.026   8.341   5.432  0.00  0.00    -0.030 C 
ENDBRANCH  25  27
ENDBRANCH  15  25
ENDBRANCH   1  17
TORSDOF 6
