REMARK  Name = ZINCrH000004nC5t.0
REMARK                            x       y       z     vdW  Elec       q    Type
REMARK                         _______ _______ _______ _____ _____    ______ ____
ROOT
ATOM      1  N   LIG    1       -3.484   6.242  -0.452  0.00  0.00    -0.570 N 
ATOM      2  C   LIG    1       -2.353   5.670   0.286  0.00  0.00    +0.310 C 
ATOM      3  C   LIG    1       -2.569   4.140   0.252  0.00  0.00    +0.010 C 
ATOM      4  C   LIG    1       -3.419   3.970  -1.029  0.00  0.00    +0.090 C 
ATOM      5  C   LIG    1       -4.098   5.311  -1.204  0.00  0.00    +0.530 C 
ATOM      6  O   LIG    1       -5.056   5.517  -1.918  0.00  0.00    -0.510 OA
ENDROOT
BRANCH   1  12
ATOM      7  C   LIG    1       -4.803   7.995   0.572  0.00  0.00    +0.140 A 
ATOM      8  C   LIG    1       -5.185   9.325   0.636  0.00  0.00    -0.070 A 
ATOM      9  C   LIG    1       -4.646  10.243  -0.246  0.00  0.00    +0.060 A 
ATOM     10  C   LIG    1       -3.726   9.838  -1.194  0.00  0.00    -0.020 A 
ATOM     11  C   LIG    1       -3.335   8.513  -1.262  0.00  0.00    +0.060 A 
ATOM     12  C   LIG    1       -3.875   7.586  -0.383  0.00  0.00    +0.110 A 
BRANCH   7  14
ATOM     13  C   LIG    1       -6.277   7.582   2.392  0.00  0.00    +0.250 C 
ATOM     14  O   LIG    1       -5.332   7.091   1.440  0.00  0.00    -0.310 OA
ENDBRANCH   7  14
ENDBRANCH   1  12
BRANCH   3  15
ATOM     15  C   LIG    1       -1.255   3.412   0.128  0.00  0.00    +0.530 C 
ATOM     16  N   LIG    1       -1.237   2.069   0.019  0.00  0.00    -0.670 N 
ATOM     17  H   LIG    1       -2.070   1.577  -0.057  0.00  0.00    +0.420 HD
ATOM     18  O   LIG    1       -0.215   4.035   0.127  0.00  0.00    -0.500 OA
BRANCH  16  19
ATOM     19  C   LIG    1       -0.017   1.384   0.015  0.00  0.00    +0.180 A 
ATOM     20  C   LIG    1        0.126   0.222  -0.732  0.00  0.00    -0.010 A 
ATOM     21  C   LIG    1        1.330  -0.455  -0.728  0.00  0.00    +0.090 A 
ATOM     22  C   LIG    1        2.392   0.023   0.017  0.00  0.00    -0.200 A 
ATOM     23  C   LIG    1        2.252   1.180   0.762  0.00  0.00    +0.090 A 
ATOM     24  C   LIG    1        1.051   1.861   0.763  0.00  0.00    +0.030 A 
BRANCH  22  25
ATOM     25  C   LIG    1        3.704  -0.719   0.019  0.00  0.00    +0.510 C 
ATOM     26  F   LIG    1        4.752   0.188   0.213  0.00  0.00    -0.180 F 
ATOM     27  F   LIG    1        3.873  -1.370  -1.208  0.00  0.00    -0.180 F 
ATOM     28  F   LIG    1        3.705  -1.662   1.052  0.00  0.00    -0.180 F 
ENDBRANCH  22  25
ENDBRANCH  16  19
ENDBRANCH   3  15
TORSDOF 5
