REMARK  Name = ZINCvU0000000GeB.0
REMARK                            x       y       z     vdW  Elec       q    Type
REMARK                         _______ _______ _______ _____ _____    ______ ____
ROOT
ATOM      1  N   LIG    1        2.445   7.017  -1.710  0.00  0.00    -0.640 N 
ATOM      2  H   LIG    1        3.277   6.750  -1.205  0.00  0.00    +0.360 HD
ENDROOT
BRANCH   1  12
ATOM      3  C   LIG    1        0.961   9.048  -1.567  0.00  0.00    +0.120 C 
ATOM      4  C   LIG    1        1.315   9.292  -3.011  0.00  0.00    -0.010 A 
ATOM      5  C   LIG    1        0.798  10.367  -3.671  0.00  0.00    +0.010 A 
ATOM      6  C   LIG    1        1.116  10.605  -5.005  0.00  0.00    +0.100 A 
ATOM      7  C   LIG    1        1.952   9.772  -5.687  0.00  0.00    -0.090 A 
ATOM      8  C   LIG    1        2.504   8.653  -5.040  0.00  0.00    +0.180 A 
ATOM      9  N   LIG    1        3.327   7.822  -5.692  0.00  0.00    -0.460 NA
ATOM     10  C   LIG    1        3.855   6.773  -5.114  0.00  0.00    +0.370 A 
ATOM     11  C   LIG    1        3.587   6.460  -3.772  0.00  0.00    -0.130 A 
ATOM     12  C   LIG    1        2.733   7.289  -3.030  0.00  0.00    +0.230 A 
ATOM     13 BR   LIG    1        2.366  10.120  -7.499  0.00  0.00    -0.020 Br
ATOM     14  C   LIG    1        2.173   8.412  -3.685  0.00  0.00    -0.090 A 
BRANCH  11  15
ATOM     15  C   LIG    1        4.180   5.305  -3.166  0.00  0.00    +0.240 C 
ATOM     16  N   LIG    1        4.650   4.389  -2.686  0.00  0.00    -0.390 NA
ENDBRANCH  11  15
ENDBRANCH   1  12
BRANCH   1  17
ATOM     17  C   LIG    1        1.408   5.982  -1.600  0.00  0.00    +0.180 C 
BRANCH  17  18
ATOM     18  C   LIG    1        1.115   5.708  -0.123  0.00  0.00    +0.310 C 
BRANCH  18  19
ATOM     19  N   LIG    1        0.082   4.675  -0.014  0.00  0.00    -0.600 N 
BRANCH  19  20
ATOM     20  C   LIG    1        0.442   3.334   0.048  0.00  0.00    +0.400 A 
ATOM     21  C   LIG    1        1.787   2.985   0.112  0.00  0.00    -0.110 A 
ATOM     22  C   LIG    1        2.132   1.646   0.173  0.00  0.00    +0.100 A 
ATOM     23  C   LIG    1        1.117   0.699   0.169  0.00  0.00    -0.100 A 
ATOM     24  C   LIG    1       -0.198   1.117   0.098  0.00  0.00    +0.310 A 
ATOM     25  N   LIG    1       -0.497   2.401   0.046  0.00  0.00    -0.540 NA
ENDBRANCH  19  20
BRANCH  19  26
ATOM     26  C   LIG    1       -1.332   5.056   0.030  0.00  0.00    +0.350 C 
BRANCH  26  27
ATOM     27  C   LIG    1       -1.751   5.271   1.461  0.00  0.00    -0.110 A 
ATOM     28  C   LIG    1       -2.256   4.217   2.199  0.00  0.00    +0.040 A 
ATOM     29  C   LIG    1       -2.636   4.412   3.514  0.00  0.00    +0.000 A 
ATOM     30  C   LIG    1       -2.519   5.664   4.088  0.00  0.00    +0.000 A 
ATOM     31  C   LIG    1       -2.019   6.720   3.349  0.00  0.00    +0.000 A 
ATOM     32  C   LIG    1       -1.634   6.523   2.035  0.00  0.00    +0.010 A 
ENDBRANCH  26  27
ENDBRANCH  19  26
ENDBRANCH  18  19
ENDBRANCH  17  18
ENDBRANCH   1  17
TORSDOF 8
