REMARK  Name = ZINCvU0000000B6M.1
REMARK                            x       y       z     vdW  Elec       q    Type
REMARK                         _______ _______ _______ _____ _____    ______ ____
ROOT
ATOM      1  C   LIG    1        3.071  10.975   3.572  0.00  0.00    +0.530 C 
ATOM      2  N   LIG    1        4.209  10.578   4.176  0.00  0.00    -0.660 N 
ATOM      3  H   LIG    1        4.378   9.634   4.319  0.00  0.00    +0.410 HD
ATOM      4  O   LIG    1        2.826  12.158   3.457  0.00  0.00    -0.510 OA
ENDROOT
BRANCH   2   5
ATOM      5  C   LIG    1        5.147  11.530   4.597  0.00  0.00    +0.110 A 
ATOM      6  C   LIG    1        6.504  11.243   4.532  0.00  0.00    +0.010 A 
ATOM      7  C   LIG    1        7.429  12.182   4.942  0.00  0.00    +0.010 A 
ATOM      8  C   LIG    1        7.002  13.410   5.431  0.00  0.00    +0.110 A 
ATOM      9  C   LIG    1        5.644  13.695   5.502  0.00  0.00    -0.030 A 
ATOM     10  C   LIG    1        4.720  12.757   5.086  0.00  0.00    +0.050 A 
BRANCH   8  11
ATOM     11  N   LIG    1        7.939  14.360   5.852  0.00  0.00    -0.500 N 
ATOM     12  C   LIG    1        7.283  15.459   6.594  0.00  0.00    +0.180 C 
ATOM     13  C   LIG    1        8.196  16.631   6.831  0.00  0.00    +0.040 C 
ATOM     14  C   LIG    1        7.990  17.650   5.691  0.00  0.00    +0.000 C 
ATOM     15  C   LIG    1        8.680  17.256   4.468  0.00  0.00    +0.000 C 
ATOM     16  C   LIG    1        8.171  15.907   3.920  0.00  0.00    -0.010 C 
ATOM     17  C   LIG    1        8.792  14.799   4.726  0.00  0.00    +0.210 C 
ENDBRANCH   8  11
ENDBRANCH   2   5
BRANCH   1  18
ATOM     18  C   LIG    1        2.103   9.950   3.040  0.00  0.00    +0.110 C 
BRANCH  18  19
ATOM     19  S   LIG    1        0.685  10.790   2.292  0.00  0.00    +0.100 S 
BRANCH  19  24
ATOM     20  C   LIG    1       -0.874   7.346   1.410  0.00  0.00    +0.280 A 
ATOM     21  N   LIG    1       -1.826   8.101   0.911  0.00  0.00    -0.290 NA
ATOM     22  N   LIG    1       -1.447   9.435   1.132  0.00  0.00    -0.460 N 
ATOM     23  H   LIG    1       -1.943  10.229   0.877  0.00  0.00    +0.450 HD
ATOM     24  C   LIG    1       -0.256   9.395   1.769  0.00  0.00    +0.250 A 
ATOM     25  N   LIG    1        0.075   8.134   1.936  0.00  0.00    -0.530 NA
BRANCH  20  29
ATOM     26  C   LIG    1       -0.822   3.094   1.383  0.00  0.00    -0.060 A 
ATOM     27  C   LIG    1        0.224   3.792   1.959  0.00  0.00    +0.010 A 
ATOM     28  C   LIG    1        0.215   5.172   1.966  0.00  0.00    +0.060 A 
ATOM     29  C   LIG    1       -0.856   5.862   1.400  0.00  0.00    -0.030 A 
ATOM     30  C   LIG    1       -1.909   5.153   0.826  0.00  0.00    +0.050 A 
ATOM     31  C   LIG    1       -1.887   3.773   0.820  0.00  0.00    +0.010 A 
BRANCH  26  33
ATOM     32  C   LIG    1       -0.116   1.093   0.100  0.00  0.00    +0.030 C 
ATOM     33  C   LIG    1       -0.804   1.587   1.374  0.00  0.00    +0.050 C 
ENDBRANCH  26  33
ENDBRANCH  20  29
ENDBRANCH  19  24
ENDBRANCH  18  19
ENDBRANCH   1  18
TORSDOF 7
