REMARK  Name = ZINCvU0000000B6M.0
REMARK                            x       y       z     vdW  Elec       q    Type
REMARK                         _______ _______ _______ _____ _____    ______ ____
ROOT
ATOM      1  C   LIG    1       -1.122   1.728   0.058  0.00  0.00    +0.540 C 
ATOM      2  N   LIG    1       -0.011   0.966   0.007  0.00  0.00    -0.660 N 
ATOM      3  H   LIG    1       -0.087  -0.001  -0.013  0.00  0.00    +0.410 HD
ATOM      4  O   LIG    1       -1.031   2.936   0.011  0.00  0.00    -0.500 OA
ENDROOT
BRANCH   2   5
ATOM      5  C   LIG    1        1.253   1.571  -0.022  0.00  0.00    +0.110 A 
ATOM      6  C   LIG    1        1.434   2.767  -0.703  0.00  0.00    +0.050 A 
ATOM      7  C   LIG    1        2.678   3.366  -0.728  0.00  0.00    +0.010 A 
ATOM      8  C   LIG    1        3.750   2.766  -0.082  0.00  0.00    +0.110 A 
ATOM      9  C   LIG    1        3.570   1.566   0.595  0.00  0.00    -0.030 A 
ATOM     10  C   LIG    1        2.325   0.970   0.624  0.00  0.00    +0.020 A 
BRANCH   8  11
ATOM     11  N   LIG    1        5.012   3.369  -0.112  0.00  0.00    -0.500 N 
ATOM     12  C   LIG    1        6.056   2.441   0.378  0.00  0.00    +0.190 C 
ATOM     13  C   LIG    1        7.375   3.122   0.621  0.00  0.00    +0.040 C 
ATOM     14  C   LIG    1        7.444   3.540   2.105  0.00  0.00    +0.000 C 
ATOM     15  C   LIG    1        6.678   4.753   2.371  0.00  0.00    +0.000 C 
ATOM     16  C   LIG    1        5.178   4.576   2.055  0.00  0.00    -0.010 C 
ATOM     17  C   LIG    1        4.988   4.684   0.567  0.00  0.00    +0.220 C 
ENDBRANCH   8  11
ENDBRANCH   2   5
BRANCH   1  18
ATOM     18  C   LIG    1       -2.477   1.078   0.173  0.00  0.00    +0.100 C 
BRANCH  18  19
ATOM     19  S   LIG    1       -3.760   2.359   0.218  0.00  0.00    +0.120 S 
BRANCH  19  22
ATOM     20  C   LIG    1       -7.360   0.959   0.512  0.00  0.00    +0.350 A 
ATOM     21  N   LIG    1       -6.479   1.935   0.419  0.00  0.00    -0.500 NA
ATOM     22  C   LIG    1       -5.248   1.425   0.351  0.00  0.00    +0.200 A 
ATOM     23  N   LIG    1       -5.325   0.115   0.395  0.00  0.00    -0.320 NA
ATOM     24  N   LIG    1       -6.686  -0.212   0.505  0.00  0.00    -0.470 N 
ATOM     25  H   LIG    1       -7.067  -1.103   0.560  0.00  0.00    +0.440 HD
BRANCH  20  29
ATOM     26  C   LIG    1      -11.575   1.414   0.785  0.00  0.00    -0.060 A 
ATOM     27  C   LIG    1      -10.767   2.533   0.692  0.00  0.00    +0.010 A 
ATOM     28  C   LIG    1       -9.397   2.391   0.603  0.00  0.00    +0.080 A 
ATOM     29  C   LIG    1       -8.828   1.117   0.607  0.00  0.00    -0.050 A 
ATOM     30  C   LIG    1       -9.650  -0.006   0.696  0.00  0.00    +0.030 A 
ATOM     31  C   LIG    1      -11.018   0.148   0.789  0.00  0.00    +0.010 A 
BRANCH  26  33
ATOM     32  C   LIG    1      -13.674   1.582  -0.526  0.00  0.00    +0.030 C 
ATOM     33  C   LIG    1      -13.071   1.576   0.880  0.00  0.00    +0.070 C 
ENDBRANCH  26  33
ENDBRANCH  20  29
ENDBRANCH  19  22
ENDBRANCH  18  19
ENDBRANCH   1  18
TORSDOF 7
