REMARK  Name = ZINCqH00000506pj.0
REMARK                            x       y       z     vdW  Elec       q    Type
REMARK                         _______ _______ _______ _____ _____    ______ ____
ROOT
ATOM      1  C   LIG    1        2.457   1.002  -0.016  0.00  0.00    +0.140 C 
ENDROOT
BRANCH   1   2
ATOM      2  C   LIG    1        3.751   1.773  -0.024  0.00  0.00    +0.470 C 
ATOM      3  O   LIG    1        3.735   2.981  -0.018  0.00  0.00    -0.510 OA
BRANCH   2   4
ATOM      4  O   LIG    1        4.923   1.117  -0.039  0.00  0.00    -0.340 OA
BRANCH   4   5
ATOM      5  C   LIG    1        6.130   1.925  -0.046  0.00  0.00    +0.250 C 
BRANCH   5   6
ATOM      6  C   LIG    1        7.337   1.023  -0.062  0.00  0.00    +0.420 C 
ATOM      7  O   LIG    1        7.194  -0.182  -0.068  0.00  0.00    -0.430 OA
BRANCH   6  11
ATOM      8  C   LIG    1       10.793   4.717  -0.076  0.00  0.00    +0.150 C 
ATOM      9  C   LIG    1       10.233   3.318  -0.077  0.00  0.00    -0.200 A 
ATOM     10  C   LIG    1        8.940   3.024  -0.067  0.00  0.00    +0.040 A 
ATOM     11  C   LIG    1        8.682   1.601  -0.072  0.00  0.00    -0.200 A 
ATOM     12  C   LIG    1        9.823   0.853  -0.082  0.00  0.00    -0.130 A 
ATOM     13  C   LIG    1        9.860  -0.653  -0.084  0.00  0.00    +0.160 C 
ATOM     14  S   LIG    1       11.202   1.855  -0.095  0.00  0.00    +0.200 S 
ENDBRANCH   6  11
ENDBRANCH   5   6
ENDBRANCH   4   5
ENDBRANCH   2   4
ENDBRANCH   1   2
BRANCH   1  15
ATOM     15  C   LIG    1        1.280   1.980   0.001  0.00  0.00    +0.090 C 
BRANCH  15  16
ATOM     16  C   LIG    1       -0.014   1.209   0.009  0.00  0.00    +0.520 C 
ATOM     17  N   LIG    1       -1.191   1.867   0.018  0.00  0.00    -0.720 N 
ATOM     18  H   LIG    1       -1.204   2.837   0.023  0.00  0.00    +0.400 HD
ATOM     19  O   LIG    1        0.002  -0.004   0.002  0.00  0.00    -0.540 OA
BRANCH  17  20
ATOM     20  C   LIG    1       -2.449   1.117   0.020  0.00  0.00    +0.280 C 
ATOM     21  C   LIG    1       -2.816   0.740   1.456  0.00  0.00    +0.040 C 
BRANCH  20  22
ATOM     22  C   LIG    1       -3.543   1.969  -0.571  0.00  0.00    -0.090 A 
ATOM     23  C   LIG    1       -3.610   3.316  -0.266  0.00  0.00    +0.000 A 
ATOM     24  C   LIG    1       -4.611   4.099  -0.811  0.00  0.00    +0.000 A 
ATOM     25  C   LIG    1       -5.549   3.533  -1.654  0.00  0.00    +0.000 A 
ATOM     26  C   LIG    1       -5.484   2.186  -1.955  0.00  0.00    +0.020 A 
ATOM     27  C   LIG    1       -4.481   1.404  -1.413  0.00  0.00    +0.020 A 
ENDBRANCH  20  22
ENDBRANCH  17  20
ENDBRANCH  15  16
ENDBRANCH   1  15
TORSDOF 9
