REMARK  Name = ZINCrH000004nfiu.0
REMARK                            x       y       z     vdW  Elec       q    Type
REMARK                         _______ _______ _______ _____ _____    ______ ____
ROOT
ATOM      1  C   LIG    1        4.769   3.946  -0.566  0.00  0.00    +0.560 C 
ATOM      2  N   LIG    1        4.765   5.287  -0.699  0.00  0.00    -0.620 N 
ATOM      3  H   LIG    1        3.935   5.780  -0.608  0.00  0.00    +0.420 HD
ATOM      4  O   LIG    1        5.810   3.327  -0.680  0.00  0.00    -0.440 OA
ENDROOT
BRANCH   1   9
ATOM      5  C   LIG    1       -1.242   3.059   0.292  0.00  0.00    +0.130 A 
ATOM      6  C   LIG    1       -0.128   3.801   0.018  0.00  0.00    +0.000 A 
ATOM      7  C   LIG    1        1.131   3.179  -0.002  0.00  0.00    -0.080 A 
ATOM      8  C   LIG    1        2.299   3.910  -0.278  0.00  0.00    +0.120 A 
ATOM      9  C   LIG    1        3.511   3.228  -0.281  0.00  0.00    -0.180 A 
ATOM     10  C   LIG    1        3.527   1.848  -0.011  0.00  0.00    +0.210 A 
ATOM     11  N   LIG    1        2.427   1.187   0.245  0.00  0.00    -0.460 NA
ATOM     12  C   LIG    1        4.843   1.113  -0.015  0.00  0.00    +0.160 C 
ATOM     13  C   LIG    1        1.233   1.789   0.262  0.00  0.00    +0.130 A 
ATOM     14  C   LIG    1        0.064   1.059   0.538  0.00  0.00    +0.090 A 
ATOM     15  C   LIG    1       -1.143   1.688   0.545  0.00  0.00    -0.020 A 
BRANCH   5  17
ATOM     16  C   LIG    1       -3.588   2.831   0.603  0.00  0.00    +0.240 C 
ATOM     17  O   LIG    1       -2.461   3.660   0.311  0.00  0.00    -0.310 OA
ENDBRANCH   5  17
ENDBRANCH   1   9
BRANCH   2  18
ATOM     18  C   LIG    1        5.947   5.962  -0.967  0.00  0.00    +0.210 A 
ATOM     19  N   LIG    1        7.118   5.410  -1.111  0.00  0.00    -0.260 NA
ATOM     20  N   LIG    1        8.098   6.169  -1.353  0.00  0.00    -0.210 NA
ATOM     21  C   LIG    1        7.836   7.445  -1.435  0.00  0.00    +0.040 A 
ATOM     22  S   LIG    1        6.105   7.655  -1.169  0.00  0.00    +0.190 S 
BRANCH  21  23
ATOM     23  C   LIG    1        8.812   8.519  -1.709  0.00  0.00    +0.190 A 
ATOM     24  C   LIG    1       10.156   8.200  -1.906  0.00  0.00    +0.030 A 
ATOM     25  C   LIG    1       11.059   9.217  -2.161  0.00  0.00    +0.080 A 
ATOM     26  C   LIG    1       10.589  10.522  -2.211  0.00  0.00    -0.020 A 
ATOM     27  C   LIG    1        9.244  10.768  -2.007  0.00  0.00    +0.280 A 
ATOM     28  N   LIG    1        8.403   9.782  -1.770  0.00  0.00    -0.470 NA
ENDBRANCH  21  23
ENDBRANCH   2  18
TORSDOF 4
