REMARK  Name = ZINCqH0000050xFd.0
REMARK                            x       y       z     vdW  Elec       q    Type
REMARK                         _______ _______ _______ _____ _____    ______ ____
ROOT
ATOM      1  C   LIG    1        3.857   1.853   1.984  0.00  0.00    +0.520 C 
ATOM      2  N   LIG    1        3.288   2.334   0.861  0.00  0.00    -0.600 N 
ATOM      3  C   LIG    1        3.442   3.747   0.489  0.00  0.00    +0.270 C 
ATOM      4  C   LIG    1        3.983   3.824  -0.942  0.00  0.00    +0.020 C 
ATOM      5  C   LIG    1        3.068   3.026  -1.873  0.00  0.00    -0.010 C 
ATOM      6  C   LIG    1        3.053   1.558  -1.440  0.00  0.00    +0.040 C 
ATOM      7  C   LIG    1        3.586   3.129  -3.309  0.00  0.00    +0.030 C 
ATOM      8  C   LIG    1        2.501   1.455  -0.015  0.00  0.00    +0.360 C 
ATOM      9  O   LIG    1        3.645   0.711   2.330  0.00  0.00    -0.530 OA
ENDROOT
BRANCH   8  10
ATOM     10  C   LIG    1        1.058   1.887   0.001  0.00  0.00    -0.020 A 
ATOM     11  C   LIG    1       -0.009   1.067   0.004  0.00  0.00    -0.050 A 
ATOM     12  C   LIG    1       -1.158   1.890   0.015  0.00  0.00    -0.060 A 
ATOM     13  C   LIG    1       -0.725   3.164   0.026  0.00  0.00    +0.160 A 
ATOM     14  O   LIG    1        0.618   3.156   0.014  0.00  0.00    -0.170 OA
ENDBRANCH   8  10
BRANCH   1  15
ATOM     15  C   LIG    1        4.756   2.736   2.811  0.00  0.00    +0.240 C 
ATOM     16  C   LIG    1        3.908   3.572   3.771  0.00  0.00    +0.060 C 
BRANCH  15  18
ATOM     17  C   LIG    1        6.870   2.409   3.978  0.00  0.00    +0.570 C 
ATOM     18  N   LIG    1        5.686   1.904   3.578  0.00  0.00    -0.710 N 
ATOM     19  H   LIG    1        5.450   0.989   3.798  0.00  0.00    +0.410 HD
ATOM     20  O   LIG    1        7.165   3.556   3.703  0.00  0.00    -0.530 OA
BRANCH  17  26
ATOM     21  C   LIG    1       11.230   1.861   6.342  0.00  0.00    +0.090 C 
ATOM     22  C   LIG    1        9.906   1.301   5.892  0.00  0.00    -0.090 A 
ATOM     23  C   LIG    1        9.566  -0.003   6.204  0.00  0.00    +0.040 A 
ATOM     24  C   LIG    1        8.351  -0.525   5.794  0.00  0.00    +0.010 A 
ATOM     25  C   LIG    1        7.469   0.255   5.076  0.00  0.00    +0.040 A 
ATOM     26  C   LIG    1        7.808   1.570   4.753  0.00  0.00    -0.130 A 
ATOM     27  C   LIG    1        9.034   2.090   5.169  0.00  0.00    +0.080 A 
ENDBRANCH  17  26
ENDBRANCH  15  18
ENDBRANCH   1  15
TORSDOF 4
