REMARK  Name = ZINCrg00000fRyyJ.0
REMARK                            x       y       z     vdW  Elec       q    Type
REMARK                         _______ _______ _______ _____ _____    ______ ____
ROOT
ATOM      1  C   LIG    1       -1.055   0.663   2.924  0.00  0.00    +0.530 C 
ATOM      2  N   LIG    1       -1.194   1.913   2.439  0.00  0.00    -0.610 N 
ATOM      3  C   LIG    1       -0.283   2.420   1.404  0.00  0.00    +0.270 C 
ATOM      4  C   LIG    1        0.323   3.740   1.878  0.00  0.00    +0.020 C 
ATOM      5  C   LIG    1       -0.800   4.708   2.256  0.00  0.00    +0.240 C 
ATOM      6  C   LIG    1       -1.624   4.114   3.401  0.00  0.00    +0.030 C 
ATOM      7  C   LIG    1       -2.256   2.797   2.941  0.00  0.00    +0.280 C 
ATOM      8  O   LIG    1       -1.863   0.227   3.716  0.00  0.00    -0.520 OA
ENDROOT
BRANCH   5   9
ATOM      9  N   LIG    1       -0.221   5.985   2.682  0.00  0.00    -1.110 NA
ATOM     10  H   LIG    1        0.065   6.105   3.601  0.00  0.00    +0.420 HD
BRANCH   9  11
ATOM     11  S   LIG    1       -0.055   7.222   1.594  0.00  0.00    +2.720 S 
ATOM     12  O   LIG    1        0.557   6.663   0.440  0.00  0.00    -0.950 OA
ATOM     13  O   LIG    1        0.496   8.317   2.313  0.00  0.00    -0.950 OA
BRANCH  11  14
ATOM     14  C   LIG    1       -1.677   7.712   1.109  0.00  0.00    -0.800 A 
ATOM     15  C   LIG    1       -2.411   8.647   1.713  0.00  0.00    +0.170 A 
ATOM     16  C   LIG    1       -3.658   8.862   1.153  0.00  0.00    -0.010 A 
ATOM     17  C   LIG    1       -3.937   8.102   0.093  0.00  0.00    +0.010 A 
ATOM     18  S   LIG    1       -2.572   7.048  -0.252  0.00  0.00    +0.210 S 
ENDBRANCH  11  14
ENDBRANCH   9  11
ENDBRANCH   5   9
BRANCH   1  19
ATOM     19  C   LIG    1        0.104  -0.192   2.482  0.00  0.00    +0.260 C 
BRANCH  19  25
ATOM     20  C   LIG    1       -2.599  -0.147   0.891  0.00  0.00    +0.320 C 
ATOM     21  N   LIG    1       -1.314  -0.636   0.385  0.00  0.00    -0.450 N 
ATOM     22  C   LIG    1       -1.080  -1.152  -0.841  0.00  0.00    +0.400 A 
ATOM     23  N   LIG    1        0.182  -1.473  -0.925  0.00  0.00    -0.490 NA
ATOM     24  C   LIG    1        0.790  -1.186   0.236  0.00  0.00    +0.170 A 
ATOM     25  C   LIG    1       -0.129  -0.661   1.069  0.00  0.00    -0.060 A 
ENDBRANCH  19  25
BRANCH  19  26
ATOM     26  N   LIG    1        0.222  -1.355   3.371  0.00  0.00    -0.510 NA
ATOM     27  C   LIG    1        1.534  -2.000   3.224  0.00  0.00    +0.200 C 
ATOM     28  C   LIG    1       -0.866  -2.314   3.131  0.00  0.00    +0.200 C 
ENDBRANCH  19  26
ENDBRANCH   1  19
TORSDOF 6
