REMARK  Name = ZINCrg000000ryYJ.0
REMARK                            x       y       z     vdW  Elec       q    Type
REMARK                         _______ _______ _______ _____ _____    ______ ____
ROOT
ATOM      1  C   LIG    1        0.054   1.419  -0.167  0.00  0.00    +0.520 C 
ATOM      2  N   LIG    1        0.932   2.279  -0.719  0.00  0.00    -0.610 N 
ATOM      3  C   LIG    1        2.362   1.946  -0.788  0.00  0.00    +0.280 C 
ATOM      4  C   LIG    1        2.815   2.052  -2.254  0.00  0.00    +0.300 C 
ATOM      5  N   LIG    1        2.362   3.341  -2.793  0.00  0.00    -0.990 NA
ATOM      6  C   LIG    1        0.932   3.676  -2.719  0.00  0.00    +0.300 C 
ATOM      7  C   LIG    1        0.478   3.569  -1.258  0.00  0.00    +0.260 C 
ATOM      8  O   LIG    1        0.423   0.320   0.188  0.00  0.00    -0.530 OA
ENDROOT
BRANCH   5   9
ATOM      9  S   LIG    1        3.441   4.399  -3.470  0.00  0.00    +2.730 S 
ATOM     10  O   LIG    1        2.694   5.226  -4.351  0.00  0.00    -0.920 OA
ATOM     11  O   LIG    1        4.554   3.621  -3.891  0.00  0.00    -0.920 OA
BRANCH   9  12
ATOM     12  C   LIG    1        4.026   5.446  -2.179  0.00  0.00    -0.310 A 
ATOM     13  N   LIG    1        3.490   6.583  -1.822  0.00  0.00    -0.210 NA
ATOM     14  N   LIG    1        4.263   7.081  -0.761  0.00  0.00    -0.460 N 
ATOM     15  H   LIG    1        4.121   7.909  -0.276  0.00  0.00    +0.450 HD
ATOM     16  C   LIG    1        5.245   6.185  -0.555  0.00  0.00    +0.500 A 
ATOM     17  N   LIG    1        5.090   5.209  -1.413  0.00  0.00    -0.470 NA
ENDBRANCH   9  12
ENDBRANCH   5   9
BRANCH   1  19
ATOM     18  C   LIG    1       -1.511   2.796   1.177  0.00  0.00    +0.040 C 
ATOM     19  C   LIG    1       -1.389   1.821   0.004  0.00  0.00    -0.010 C 
BRANCH  19  20
ATOM     20  C   LIG    1       -2.235   0.578   0.283  0.00  0.00    +0.050 C 
BRANCH  20  21
ATOM     21  C   LIG    1       -3.714   0.968   0.333  0.00  0.00    +0.080 C 
BRANCH  21  22
ATOM     22  C   LIG    1       -4.548  -0.257   0.608  0.00  0.00    -0.050 A 
ATOM     23  C   LIG    1       -5.027  -1.016  -0.442  0.00  0.00    +0.000 A 
ATOM     24  C   LIG    1       -5.788  -2.143  -0.191  0.00  0.00    +0.040 A 
ATOM     25  C   LIG    1       -6.079  -2.505   1.111  0.00  0.00    -0.030 A 
ATOM     26  C   LIG    1       -5.604  -1.742   2.164  0.00  0.00    +0.100 A 
ATOM     27  F   LIG    1       -5.887  -2.095   3.437  0.00  0.00    -0.140 F 
ATOM     28  C   LIG    1       -4.837  -0.617   1.911  0.00  0.00    -0.020 A 
ENDBRANCH  21  22
ENDBRANCH  20  21
ENDBRANCH  19  20
ENDBRANCH   1  19
TORSDOF 6
