REMARK  Name = ZINCpe000000X3f4.0
REMARK                            x       y       z     vdW  Elec       q    Type
REMARK                         _______ _______ _______ _____ _____    ______ ____
ROOT
ATOM      1  N   LIG    1       -2.473  -0.352   0.010  0.00  0.00    -0.700 N 
ATOM      2  H   LIG    1       -1.640  -0.819  -0.164  0.00  0.00    +0.410 HD
ATOM      3  C   LIG    1       -2.466   0.976   0.239  0.00  0.00    +0.550 C 
ATOM      4  O   LIG    1       -3.509   1.561   0.456  0.00  0.00    -0.530 OA
ENDROOT
BRANCH   3   5
ATOM      5  C   LIG    1       -1.192   1.720   0.226  0.00  0.00    -0.130 A 
ATOM      6  C   LIG    1        0.009   1.053  -0.024  0.00  0.00    +0.050 A 
ATOM      7  C   LIG    1        1.196   1.755  -0.040  0.00  0.00    +0.000 A 
ATOM      8  C   LIG    1        1.207   3.120   0.194  0.00  0.00    +0.040 A 
ATOM      9  C   LIG    1        0.030   3.796   0.447  0.00  0.00    +0.010 A 
ATOM     10  C   LIG    1       -1.179   3.106   0.469  0.00  0.00    +0.060 A 
BRANCH  10  11
ATOM     11  C   LIG    1       -2.444   3.827   0.741  0.00  0.00    -0.210 A 
ATOM     12  C   LIG    1       -2.680   4.680   1.782  0.00  0.00    +0.240 A 
ATOM     13  N   LIG    1       -3.946   5.124   1.665  0.00  0.00    -0.480 N 
ATOM     14  H   LIG    1       -4.388   5.746   2.264  0.00  0.00    +0.440 HD
ATOM     15  N   LIG    1       -4.518   4.529   0.534  0.00  0.00    -0.310 NA
ATOM     16  C   LIG    1       -3.626   3.753  -0.023  0.00  0.00    +0.320 A 
ENDBRANCH  10  11
ENDBRANCH   3   5
BRANCH   1  17
ATOM     17  C   LIG    1       -3.738  -1.091   0.023  0.00  0.00    +0.250 C 
BRANCH  17  23
ATOM     18  C   LIG    1       -6.754  -3.686  -1.569  0.00  0.00    +0.050 C 
ATOM     19  C   LIG    1       -5.457  -2.885  -1.445  0.00  0.00    +0.100 C 
ATOM     20  C   LIG    1       -4.586  -3.126  -2.681  0.00  0.00    +0.230 C 
ATOM     21  O   LIG    1       -3.344  -2.436  -2.526  0.00  0.00    -0.380 OA
ATOM     22  C   LIG    1       -2.605  -2.833  -1.367  0.00  0.00    +0.240 C 
ATOM     23  C   LIG    1       -3.455  -2.588  -0.118  0.00  0.00    +0.070 C 
ATOM     24  N   LIG    1       -4.726  -3.317  -0.245  0.00  0.00    -0.520 NA
ATOM     25  C   LIG    1       -5.549  -3.155   0.960  0.00  0.00    +0.200 C 
BRANCH  23  26
ATOM     26  C   LIG    1       -2.703  -3.084   1.119  0.00  0.00    +0.200 C 
BRANCH  26  27
ATOM     27  O   LIG    1       -1.468  -2.377   1.241  0.00  0.00    -0.570 OA
ATOM     28  H   LIG    1       -0.937  -2.640   2.005  0.00  0.00    +0.390 HD
ENDBRANCH  26  27
ENDBRANCH  23  26
ENDBRANCH  17  23
ENDBRANCH   1  17
TORSDOF 6
