REMARK  Name = ZINCpk00000FekBY.0
REMARK                            x       y       z     vdW  Elec       q    Type
REMARK                         _______ _______ _______ _____ _____    ______ ____
ROOT
ATOM      1  C   LIG    1        6.170   1.724   1.911  0.00  0.00    +0.580 C 
ATOM      2  N   LIG    1        4.953   1.822   1.340  0.00  0.00    -0.610 N 
ATOM      3  C   LIG    1        4.741   2.692   0.175  0.00  0.00    +0.300 C 
ATOM      4  C   LIG    1        3.579   3.644   0.476  0.00  0.00    +0.070 C 
ATOM      5  C   LIG    1        2.349   2.829   0.884  0.00  0.00    +0.230 C 
ATOM      6  C   LIG    1        2.662   2.032   2.152  0.00  0.00    +0.020 C 
ATOM      7  C   LIG    1        3.813   1.062   1.871  0.00  0.00    +0.270 C 
ATOM      8  O   LIG    1        7.106   2.356   1.460  0.00  0.00    -0.510 OA
ENDROOT
BRANCH   1  15
ATOM      9  C   LIG    1        7.435  -1.450   6.897  0.00  0.00    +0.100 A 
ATOM     10  C   LIG    1        6.421  -2.279   6.420  0.00  0.00    -0.030 A 
ATOM     11  C   LIG    1        5.768  -1.982   5.246  0.00  0.00    +0.040 A 
ATOM     12  C   LIG    1        6.117  -0.846   4.523  0.00  0.00    +0.080 A 
ATOM     13  N   LIG    1        5.656  -0.302   3.345  0.00  0.00    -0.580 N 
ATOM     14  H   LIG    1        4.948  -0.670   2.792  0.00  0.00    +0.420 HD
ATOM     15  C   LIG    1        6.366   0.852   3.079  0.00  0.00    +0.030 A 
ATOM     16  C   LIG    1        7.278   1.052   4.066  0.00  0.00    +0.050 A 
ATOM     17  C   LIG    1        7.141  -0.004   5.000  0.00  0.00    -0.080 A 
ATOM     18  C   LIG    1        7.798  -0.319   6.197  0.00  0.00    +0.040 A 
BRANCH   9  20
ATOM     19  C   LIG    1        7.646  -2.944   8.735  0.00  0.00    +0.230 C 
ATOM     20  O   LIG    1        8.070  -1.759   8.059  0.00  0.00    -0.320 OA
ENDBRANCH   9  20
ENDBRANCH   1  15
BRANCH   5  21
ATOM     21  C   LIG    1        1.194   3.760   1.147  0.00  0.00    -0.020 A 
ATOM     22  N   LIG    1        1.197   5.070   1.054  0.00  0.00    -0.260 NA
ATOM     23  N   LIG    1        0.026   5.508   1.358  0.00  0.00    -0.240 N 
ATOM     24  H   LIG    1       -0.227   6.444   1.364  0.00  0.00    +0.470 HD
ATOM     25  N   LIG    1       -0.764   4.535   1.646  0.00  0.00    -0.280 NA
ATOM     26  C   LIG    1       -0.099   3.407   1.541  0.00  0.00    +0.190 A 
ENDBRANCH   5  21
BRANCH   5  27
ATOM     27  O   LIG    1        2.004   1.928  -0.171  0.00  0.00    -0.540 OA
ATOM     28  H   LIG    1        1.231   1.378   0.019  0.00  0.00    +0.380 HD
ENDBRANCH   5  27
TORSDOF 4
