REMARK  Name = ZINCpk00000FekBY.1
REMARK                            x       y       z     vdW  Elec       q    Type
REMARK                         _______ _______ _______ _____ _____    ______ ____
ROOT
ATOM      1  C   LIG    1        2.346   7.794   1.976  0.00  0.00    +0.580 C 
ATOM      2  N   LIG    1        1.882   6.671   1.393  0.00  0.00    -0.610 N 
ATOM      3  C   LIG    1        0.985   6.747   0.231  0.00  0.00    +0.300 C 
ATOM      4  C   LIG    1       -0.273   5.925   0.524  0.00  0.00    +0.070 C 
ATOM      5  C   LIG    1        0.132   4.502   0.914  0.00  0.00    +0.220 C 
ATOM      6  C   LIG    1        0.989   4.542   2.181  0.00  0.00    +0.010 C 
ATOM      7  C   LIG    1        2.262   5.348   1.906  0.00  0.00    +0.270 C 
ATOM      8  O   LIG    1        2.026   8.883   1.540  0.00  0.00    -0.510 OA
ENDROOT
BRANCH   1  15
ATOM      9  C   LIG    1        5.767   7.975   6.956  0.00  0.00    +0.100 A 
ATOM     10  C   LIG    1        6.248   6.763   6.463  0.00  0.00    -0.030 A 
ATOM     11  C   LIG    1        5.763   6.245   5.284  0.00  0.00    +0.040 A 
ATOM     12  C   LIG    1        4.785   6.932   4.571  0.00  0.00    +0.080 A 
ATOM     13  N   LIG    1        4.124   6.672   3.392  0.00  0.00    -0.580 N 
ATOM     14  H   LIG    1        4.259   5.893   2.829  0.00  0.00    +0.420 HD
ATOM     15  C   LIG    1        3.239   7.702   3.141  0.00  0.00    +0.030 A 
ATOM     16  C   LIG    1        3.328   8.619   4.140  0.00  0.00    +0.050 A 
ATOM     17  C   LIG    1        4.295   8.157   5.065  0.00  0.00    -0.080 A 
ATOM     18  C   LIG    1        4.798   8.672   6.267  0.00  0.00    +0.040 A 
BRANCH   9  20
ATOM     19  C   LIG    1        7.260   7.700   8.787  0.00  0.00    +0.230 C 
ATOM     20  O   LIG    1        6.257   8.472   8.123  0.00  0.00    -0.320 OA
ENDBRANCH   9  20
ENDBRANCH   1  15
BRANCH   5  21
ATOM     21  C   LIG    1       -1.106   3.680   1.170  0.00  0.00    -0.050 A 
ATOM     22  C   LIG    1       -1.152   2.378   1.536  0.00  0.00    +0.150 A 
ATOM     23  N   LIG    1       -2.463   2.065   1.651  0.00  0.00    -0.390 N 
ATOM     24  H   LIG    1       -2.821   1.198   1.901  0.00  0.00    +0.450 HD
ATOM     25  N   LIG    1       -3.154   3.113   1.367  0.00  0.00    -0.070 NA
ATOM     26  N   LIG    1       -2.374   4.095   1.082  0.00  0.00    -0.250 NA
ENDBRANCH   5  21
BRANCH   5  27
ATOM     27  O   LIG    1        0.882   3.912  -0.150  0.00  0.00    -0.540 OA
ATOM     28  H   LIG    1        1.172   3.007   0.028  0.00  0.00    +0.380 HD
ENDBRANCH   5  27
TORSDOF 4
