REMARK  Name = ZINCtV00000voUcr.0
REMARK                            x       y       z     vdW  Elec       q    Type
REMARK                         _______ _______ _______ _____ _____    ______ ____
ROOT
ATOM      1  C   LIG    1       -7.852   1.225   0.681  0.00  0.00    +0.180 A 
ATOM      2  C   LIG    1       -7.226   0.003   0.476  0.00  0.00    -0.010 A 
ATOM      3  C   LIG    1       -5.940  -0.038  -0.024  0.00  0.00    +0.100 A 
ATOM      4  C   LIG    1       -5.273   1.143  -0.323  0.00  0.00    +0.090 A 
ATOM      5  C   LIG    1       -5.897   2.365  -0.113  0.00  0.00    +0.040 A 
ATOM      6  C   LIG    1       -7.185   2.406   0.382  0.00  0.00    -0.020 A 
ENDROOT
BRANCH   1   7
ATOM      7  N   LIG    1       -9.156   1.267   1.188  0.00  0.00    -0.680 N 
ATOM      8  H   LIG    1       -9.824   0.645   0.860  0.00  0.00    +0.420 HD
BRANCH   7  14
ATOM      9  C   LIG    1      -10.824   2.354   2.564  0.00  0.00    +0.070 A 
ATOM     10  C   LIG    1      -11.154   3.285   3.535  0.00  0.00    -0.040 A 
ATOM     11  C   LIG    1      -10.167   4.065   4.110  0.00  0.00    -0.010 A 
ATOM     12  C   LIG    1       -8.849   3.919   3.718  0.00  0.00    +0.020 A 
ATOM     13  C   LIG    1       -8.510   2.988   2.754  0.00  0.00    -0.020 A 
ATOM     14  C   LIG    1       -9.495   2.206   2.169  0.00  0.00    +0.170 A 
BRANCH   9  16
ATOM     15  C   LIG    1      -13.132   1.794   2.452  0.00  0.00    +0.250 C 
ATOM     16  O   LIG    1      -11.793   1.587   1.998  0.00  0.00    -0.320 OA
ENDBRANCH   9  16
ENDBRANCH   7  14
ENDBRANCH   1   7
BRANCH   4  17
ATOM     17  N   LIG    1       -3.968   1.101  -0.832  0.00  0.00    -0.620 N 
ATOM     18  H   LIG    1       -3.318   1.766  -0.555  0.00  0.00    +0.410 HD
BRANCH  17  19
ATOM     19  C   LIG    1       -3.615   0.137  -1.705  0.00  0.00    +0.550 C 
ATOM     20  S   LIG    1       -4.799  -0.938  -2.317  0.00  0.00    -0.580 S 
BRANCH  19  21
ATOM     21  N   LIG    1       -2.331   0.019  -2.096  0.00  0.00    -0.630 N 
ATOM     22  H   LIG    1       -1.651   0.592  -1.709  0.00  0.00    +0.410 HD
BRANCH  21  23
ATOM     23  C   LIG    1       -1.977  -0.935  -3.060  0.00  0.00    +0.120 A 
ATOM     24  C   LIG    1       -2.505  -2.217  -2.993  0.00  0.00    +0.110 A 
ATOM     25  C   LIG    1       -2.161  -3.156  -3.946  0.00  0.00    +0.020 A 
ATOM     26  C   LIG    1       -1.277  -2.821  -4.963  0.00  0.00    -0.090 A 
ATOM     27  C   LIG    1       -0.744  -1.539  -5.026  0.00  0.00    +0.050 A 
ATOM     28  C   LIG    1       -1.093  -0.599  -4.077  0.00  0.00    +0.030 A 
BRANCH  26  29
ATOM     29  S   LIG    1       -0.831  -4.021  -6.174  0.00  0.00    -0.090 S 
BRANCH  29  30
ATOM     30  C   LIG    1       -1.768  -5.486  -5.661  0.00  0.00    +0.430 C 
ATOM     31  F   LIG    1       -3.136  -5.193  -5.673  0.00  0.00    -0.180 F 
ATOM     32  F   LIG    1       -1.383  -5.857  -4.368  0.00  0.00    -0.180 F 
ENDBRANCH  29  30
ENDBRANCH  26  29
ENDBRANCH  21  23
ENDBRANCH  19  21
ENDBRANCH  17  19
ENDBRANCH   4  17
TORSDOF 9
