REMARK  Name = ZINCvU00000007WK.0
REMARK                            x       y       z     vdW  Elec       q    Type
REMARK                         _______ _______ _______ _____ _____    ______ ____
ROOT
ATOM      1  C   LIG    1       -5.975   4.319   0.900  0.00  0.00    +0.070 C 
ATOM      2  C   LIG    1       -4.967   3.976  -0.198  0.00  0.00    +0.140 C 
ATOM      3  C   LIG    1       -5.420   2.700  -0.915  0.00  0.00    +0.150 C 
ATOM      4  S   LIG    1       -4.049   1.530  -0.671  0.00  0.00    -0.150 S 
ATOM      5  C   LIG    1       -3.024   2.628   0.258  0.00  0.00    +0.390 C 
ATOM      6  N   LIG    1       -1.847   2.337   0.738  0.00  0.00    -0.490 NA
ATOM      7  C   LIG    1       -4.929   5.123  -1.210  0.00  0.00    +0.090 C 
ATOM      8  N   LIG    1       -3.657   3.829   0.395  0.00  0.00    -0.540 N 
ATOM      9  C   LIG    1       -3.082   4.846   1.068  0.00  0.00    +0.570 C 
ATOM     10  O   LIG    1       -2.106   4.639   1.764  0.00  0.00    -0.430 OA
ENDROOT
BRANCH   9  11
ATOM     11  C   LIG    1       -3.634   6.207   0.959  0.00  0.00    -0.210 A 
ATOM     12  C   LIG    1       -4.933   6.414   0.480  0.00  0.00    +0.140 A 
ATOM     13  C   LIG    1       -5.402   7.712   0.392  0.00  0.00    -0.080 A 
ATOM     14  C   LIG    1       -4.589   8.760   0.786  0.00  0.00    +0.320 A 
ATOM     15  N   LIG    1       -3.370   8.545   1.240  0.00  0.00    -0.490 NA
ATOM     16  C   LIG    1       -2.868   7.324   1.340  0.00  0.00    +0.160 A 
BRANCH  16  17
ATOM     17  S   LIG    1       -1.232   7.096   1.953  0.00  0.00    +0.130 S 
BRANCH  17  18
ATOM     18  C   LIG    1       -0.679   8.769   1.981  0.00  0.00    -0.160 A 
ATOM     19  C   LIG    1       -0.067   9.318   0.861  0.00  0.00    +0.060 A 
ATOM     20  C   LIG    1        0.359  10.632   0.884  0.00  0.00    +0.000 A 
ATOM     21  C   LIG    1        0.189  11.396   2.024  0.00  0.00    +0.040 A 
ATOM     22  C   LIG    1       -0.415  10.850   3.142  0.00  0.00    +0.000 A 
ATOM     23  C   LIG    1       -0.849   9.540   3.124  0.00  0.00    +0.080 A 
ENDBRANCH  17  18
ENDBRANCH  16  17
ENDBRANCH   9  11
BRANCH   6  24
ATOM     24  C   LIG    1       -1.425   0.939   0.843  0.00  0.00    +0.230 C 
BRANCH  24  25
ATOM     25  C   LIG    1       -0.237   0.693  -0.090  0.00  0.00    +0.070 C 
BRANCH  25  26
ATOM     26  C   LIG    1        0.197  -0.746   0.018  0.00  0.00    -0.080 A 
ATOM     27  C   LIG    1        1.155  -1.111   0.946  0.00  0.00    +0.010 A 
ATOM     28  C   LIG    1        1.550  -2.431   1.049  0.00  0.00    +0.000 A 
ATOM     29  C   LIG    1        0.996  -3.385   0.216  0.00  0.00    +0.000 A 
ATOM     30  C   LIG    1        0.042  -3.020  -0.715  0.00  0.00    +0.000 A 
ATOM     31  C   LIG    1       -0.357  -1.700  -0.814  0.00  0.00    +0.000 A 
ENDBRANCH  25  26
ENDBRANCH  24  25
ENDBRANCH   6  24
TORSDOF 6
