REMARK  Name = ZINCtV00000L6kzW.0
REMARK                            x       y       z     vdW  Elec       q    Type
REMARK                         _______ _______ _______ _____ _____    ______ ____
ROOT
ATOM      1  C   LIG    1       -7.485  -2.486  -0.005  0.00  0.00    +0.180 C 
ATOM      2  C   LIG    1       -6.288  -1.664   0.399  0.00  0.00    +0.140 A 
ATOM      3  N   LIG    1       -6.242  -0.831   1.410  0.00  0.00    -0.300 NA
ATOM      4  N   LIG    1       -4.970  -0.252   1.471  0.00  0.00    -0.330 N 
ATOM      5  C   LIG    1       -4.413   0.667   2.323  0.00  0.00    +0.430 A 
ATOM      6  C   LIG    1       -3.104   1.052   2.122  0.00  0.00    -0.060 A 
ATOM      7  C   LIG    1       -2.387   0.498   1.062  0.00  0.00    +0.230 A 
ATOM      8  N   LIG    1       -2.955  -0.377   0.261  0.00  0.00    -0.460 NA
ATOM      9  C   LIG    1       -4.222  -0.765   0.445  0.00  0.00    +0.300 A 
ATOM     10  C   LIG    1       -5.045  -1.663  -0.245  0.00  0.00    -0.210 A 
ENDROOT
BRANCH  10  11
ATOM     11  C   LIG    1       -4.671  -2.463  -1.434  0.00  0.00    +0.020 A 
ATOM     12  C   LIG    1       -4.370  -1.828  -2.639  0.00  0.00    +0.040 A 
ATOM     13  C   LIG    1       -4.017  -2.578  -3.742  0.00  0.00    +0.020 A 
ATOM     14  C   LIG    1       -3.971  -3.959  -3.657  0.00  0.00    -0.040 A 
ATOM     15  C   LIG    1       -4.275  -4.595  -2.465  0.00  0.00    +0.020 A 
ATOM     16 CL   LIG    1       -3.534  -4.897  -5.051  0.00  0.00    -0.070 Cl
ATOM     17  C   LIG    1       -4.624  -3.855  -1.355  0.00  0.00    +0.040 A 
ENDBRANCH  10  11
BRANCH   7  18
ATOM     18  C   LIG    1       -0.956   0.910   0.830  0.00  0.00    -0.020 C 
ATOM     19  C   LIG    1       -0.894   2.417   0.574  0.00  0.00    +0.050 C 
ATOM     20  C   LIG    1       -0.120   0.567   2.064  0.00  0.00    +0.050 C 
ATOM     21  C   LIG    1       -0.402   0.163  -0.386  0.00  0.00    +0.050 C 
ENDBRANCH   7  18
BRANCH   5  22
ATOM     22  N   LIG    1       -5.149   1.196   3.362  0.00  0.00    -0.670 N 
ATOM     23  H   LIG    1       -4.840   1.095   4.276  0.00  0.00    +0.430 HD
BRANCH  22  24
ATOM     24  C   LIG    1       -6.341   1.879   3.098  0.00  0.00    +0.180 A 
ATOM     25  C   LIG    1       -6.702   2.168   1.789  0.00  0.00    -0.010 A 
ATOM     26  C   LIG    1       -7.882   2.837   1.530  0.00  0.00    +0.030 A 
ATOM     27  C   LIG    1       -8.700   3.230   2.577  0.00  0.00    +0.070 A 
ATOM     28  C   LIG    1       -8.339   2.947   3.884  0.00  0.00    +0.030 A 
ATOM     29  F   LIG    1       -9.851   3.889   2.322  0.00  0.00    -0.140 F 
ATOM     30  C   LIG    1       -7.163   2.274   4.146  0.00  0.00    +0.010 A 
ENDBRANCH  22  24
ENDBRANCH   5  22
TORSDOF 4
