REMARK  Name = ZINCrg00000SjSDy.0
REMARK                            x       y       z     vdW  Elec       q    Type
REMARK                         _______ _______ _______ _____ _____    ______ ____
ROOT
ATOM      1  N   LIG    1        4.566   2.424  -0.029  0.00  0.00    -0.450 N 
ATOM      2  C   LIG    1        4.662   1.045  -0.038  0.00  0.00    +0.080 A 
ATOM      3  C   LIG    1        3.430   0.544  -0.028  0.00  0.00    +0.190 A 
ATOM      4  N   LIG    1        2.531   1.596  -0.014  0.00  0.00    -0.350 N 
ATOM      5  C   LIG    1        1.188   1.940   0.001  0.00  0.00    -0.180 A 
ATOM      6  C   LIG    1       -0.015   1.215   0.009  0.00  0.00    +0.600 A 
ATOM      7  N   LIG    1       -1.188   1.880   0.018  0.00  0.00    -0.550 N 
ATOM      8  C   LIG    1       -1.224   3.223   0.032  0.00  0.00    +0.710 A 
ATOM      9  N   LIG    1       -0.097   3.960   0.025  0.00  0.00    -0.510 N 
ATOM     10  C   LIG    1       -0.177   5.423   0.033  0.00  0.00    +0.350 C 
ATOM     11  O   LIG    1       -2.301   3.788   0.046  0.00  0.00    -0.530 OA
ATOM     12  O   LIG    1        0.002  -0.004   0.002  0.00  0.00    -0.520 OA
ATOM     13  C   LIG    1        1.141   3.334   0.009  0.00  0.00    +0.380 A 
ATOM     14  N   LIG    1        2.395   3.776   0.000  0.00  0.00    -0.510 NA
ATOM     15  C   LIG    1        5.940   0.248  -0.055  0.00  0.00    +0.180 C 
ATOM     16  C   LIG    1        3.236   2.752  -0.014  0.00  0.00    +0.450 A 
ENDROOT
BRANCH   1  17
ATOM     17  C   LIG    1        5.687   3.367  -0.034  0.00  0.00    +0.430 C 
BRANCH  17  18
ATOM     18  C   LIG    1        6.058   3.698  -1.457  0.00  0.00    +0.440 C 
ATOM     19  O   LIG    1        5.448   3.197  -2.372  0.00  0.00    -0.490 OA
BRANCH  18  20
ATOM     20  O   LIG    1        7.065   4.548  -1.707  0.00  0.00    -0.350 OA
BRANCH  20  22
ATOM     21  C   LIG    1        8.536   5.805  -3.187  0.00  0.00    +0.070 C 
ATOM     22  C   LIG    1        7.367   4.821  -3.101  0.00  0.00    +0.200 C 
ENDBRANCH  20  22
ENDBRANCH  18  20
ENDBRANCH  17  18
ENDBRANCH   1  17
BRANCH   7  23
ATOM     23  C   LIG    1       -2.444   1.125   0.019  0.00  0.00    +0.310 C 
BRANCH  23  24
ATOM     24  C   LIG    1       -2.874   0.855   1.462  0.00  0.00    +0.010 C 
BRANCH  24  25
ATOM     25  C   LIG    1       -4.186   0.067   1.463  0.00  0.00    -0.020 C 
ATOM     26  C   LIG    1       -4.681  -0.097   2.902  0.00  0.00    +0.010 C 
ATOM     27  C   LIG    1       -3.953  -1.313   0.845  0.00  0.00    +0.030 C 
ENDBRANCH  24  25
ENDBRANCH  23  24
ENDBRANCH   7  23
TORSDOF 7
