REMARK  Name = ZINCrg000000rVdh.0
REMARK                            x       y       z     vdW  Elec       q    Type
REMARK                         _______ _______ _______ _____ _____    ______ ____
ROOT
ATOM      1  C   LIG    1        0.069  -0.117   0.187  0.00  0.00    +0.600 C 
ATOM      2  N   LIG    1       -1.097  -0.792   0.172  0.00  0.00    -0.720 N 
ATOM      3  H   LIG    1       -1.935  -0.316   0.285  0.00  0.00    +0.400 HD
ATOM      4  O   LIG    1        1.120  -0.714   0.045  0.00  0.00    -0.510 OA
ENDROOT
BRANCH   1   7
ATOM      5  C   LIG    1        2.564   1.548   0.247  0.00  0.00    +0.140 C 
ATOM      6  C   LIG    1        1.173   2.106   0.405  0.00  0.00    +0.070 A 
ATOM      7  C   LIG    1        0.072   1.337   0.374  0.00  0.00    -0.300 A 
ATOM      8  S   LIG    1       -1.362   2.326   0.582  0.00  0.00    +0.250 S 
ATOM      9  C   LIG    1       -0.435   3.754   0.717  0.00  0.00    +0.050 A 
ATOM     10  N   LIG    1       -0.819   5.062   0.910  0.00  0.00    -0.590 N 
ATOM     11  H   LIG    1       -1.762   5.274   0.996  0.00  0.00    +0.430 HD
ATOM     12  C   LIG    1        0.087   6.050   0.981  0.00  0.00    +0.650 A 
ATOM     13  N   LIG    1        1.369   5.839   0.875  0.00  0.00    -0.580 NA
ATOM     14  C   LIG    1        1.862   4.604   0.685  0.00  0.00    +0.550 A 
ATOM     15  O   LIG    1        3.065   4.424   0.588  0.00  0.00    -0.470 OA
ATOM     16  C   LIG    1        0.919   3.466   0.596  0.00  0.00    -0.240 A 
ENDBRANCH   1   7
BRANCH   2  17
ATOM     17  C   LIG    1       -1.101  -2.245  -0.015  0.00  0.00    +0.250 C 
ATOM     18  C   LIG    1       -1.228  -2.604  -1.519  0.00  0.00    +0.060 C 
ATOM     19  C   LIG    1       -2.759  -2.506  -1.734  0.00  0.00    +0.270 C 
ATOM     20  N   LIG    1       -3.349  -3.028  -0.487  0.00  0.00    -0.600 N 
ATOM     21  C   LIG    1       -2.370  -2.872   0.599  0.00  0.00    +0.280 C 
BRANCH  20  22
ATOM     22  C   LIG    1       -4.615  -3.573  -0.360  0.00  0.00    +0.270 A 
ATOM     23  C   LIG    1       -5.079  -3.979   0.878  0.00  0.00    -0.240 A 
ATOM     24  C   LIG    1       -6.367  -4.527   0.976  0.00  0.00    +0.530 A 
ATOM     25  N   LIG    1       -7.124  -4.648  -0.132  0.00  0.00    -0.520 N 
ATOM     26  H   LIG    1       -8.015  -5.027  -0.067  0.00  0.00    +0.440 HD
ATOM     27  N   LIG    1       -6.637  -4.232  -1.375  0.00  0.00    -0.180 NA
ATOM     28  O   LIG    1       -6.798  -4.893   2.058  0.00  0.00    -0.530 OA
ATOM     29 CL   LIG    1       -4.083  -3.812   2.290  0.00  0.00    -0.030 Cl
ATOM     30  C   LIG    1       -5.446  -3.714  -1.492  0.00  0.00    +0.270 A 
ENDBRANCH  20  22
ENDBRANCH   2  17
TORSDOF 3
