REMARK  Name = ZINCvU0000000EmF.1
REMARK                            x       y       z     vdW  Elec       q    Type
REMARK                         _______ _______ _______ _____ _____    ______ ____
ROOT
ATOM      1  N   LIG    1       -0.880   1.617  -1.183  0.00  0.00    -0.540 N 
ATOM      2  C   LIG    1       -0.532   0.899   0.052  0.00  0.00    +0.250 C 
ATOM      3  C   LIG    1       -1.537   1.282   1.143  0.00  0.00    +0.170 C 
ATOM      4  N   LIG    1       -1.588   2.746   1.264  0.00  0.00    -0.510 NA
ATOM      5  C   LIG    1       -2.067   3.371   0.024  0.00  0.00    +0.170 C 
ATOM      6  C   LIG    1       -1.081   3.072  -1.109  0.00  0.00    +0.320 C 
ENDROOT
BRANCH   4   7
ATOM      7  C   LIG    1       -2.413   3.151   2.410  0.00  0.00    +0.280 C 
ATOM      8  C   LIG    1       -1.786   2.671   3.696  0.00  0.00    -0.080 A 
ATOM      9  C   LIG    1       -0.569   2.936   4.288  0.00  0.00    +0.050 A 
ATOM     10  C   LIG    1       -0.244   2.347   5.497  0.00  0.00    +0.020 A 
ATOM     11  C   LIG    1       -1.139   1.492   6.115  0.00  0.00    +0.020 A 
ATOM     12  C   LIG    1       -2.361   1.218   5.528  0.00  0.00    +0.020 A 
ATOM     13  C   LIG    1       -2.695   1.810   4.309  0.00  0.00    -0.060 A 
ATOM     14  C   LIG    1       -3.914   1.700   3.471  0.00  0.00    -0.050 A 
ATOM     15  C   LIG    1       -5.091   0.972   3.651  0.00  0.00    +0.020 A 
ATOM     16  C   LIG    1       -6.096   1.042   2.708  0.00  0.00    +0.020 A 
ATOM     17  C   LIG    1       -5.941   1.830   1.582  0.00  0.00    +0.020 A 
ATOM     18  C   LIG    1       -4.776   2.554   1.396  0.00  0.00    +0.020 A 
ATOM     19  C   LIG    1       -3.768   2.491   2.334  0.00  0.00    -0.120 A 
ENDBRANCH   4   7
BRANCH   1  21
ATOM     20  C   LIG    1       -0.731  -0.336  -2.467  0.00  0.00    +0.150 C 
ATOM     21  N   LIG    1       -1.019   0.932  -2.398  0.00  0.00    -0.210 NA
BRANCH  20  23
ATOM     22  C   LIG    1       -0.693  -2.371  -3.732  0.00  0.00    +0.060 C 
ATOM     23  C   LIG    1       -0.991  -1.058  -3.660  0.00  0.00    +0.020 C 
BRANCH  22  29
ATOM     24  C   LIG    1       -0.655  -4.487  -5.048  0.00  0.00    +0.140 A 
ATOM     25  C   LIG    1       -0.913  -5.182  -6.218  0.00  0.00    -0.080 A 
ATOM     26  C   LIG    1       -1.472  -4.531  -7.302  0.00  0.00    +0.050 A 
ATOM     27  C   LIG    1       -1.778  -3.183  -7.229  0.00  0.00    -0.030 A 
ATOM     28  C   LIG    1       -1.534  -2.476  -6.071  0.00  0.00    +0.060 A 
ATOM     29  C   LIG    1       -0.963  -3.120  -4.969  0.00  0.00    -0.090 A 
BRANCH  24  31
ATOM     30  C   LIG    1        0.181  -6.516  -4.137  0.00  0.00    +0.250 C 
ATOM     31  O   LIG    1       -0.106  -5.125  -3.983  0.00  0.00    -0.310 OA
ENDBRANCH  24  31
ENDBRANCH  22  29
ENDBRANCH  20  23
ENDBRANCH   1  21
TORSDOF 5
