REMARK  Name = ZINCpe000000UylP.1
REMARK                            x       y       z     vdW  Elec       q    Type
REMARK                         _______ _______ _______ _____ _____    ______ ____
ROOT
ATOM      1  C   LIG    1       -0.016   1.091   2.429  0.00  0.00    +0.250 C 
ENDROOT
BRANCH   1   2
ATOM      2  C   LIG    1       -0.125  -0.409   2.520  0.00  0.00    +0.520 C 
ATOM      3  N   LIG    1        0.432  -1.064   3.557  0.00  0.00    -0.610 N 
ATOM      4  C   LIG    1        1.150  -0.329   4.608  0.00  0.00    +0.280 C 
ATOM      5  C   LIG    1        0.561  -0.714   5.969  0.00  0.00    +0.040 C 
ATOM      6  C   LIG    1        0.603  -2.236   6.126  0.00  0.00    +0.020 C 
ATOM      7  C   LIG    1       -0.245  -2.887   5.031  0.00  0.00    +0.260 C 
ATOM      8  C   LIG    1        0.329  -2.526   3.662  0.00  0.00    +0.290 C 
ATOM      9  O   LIG    1       -0.715  -1.027   1.659  0.00  0.00    -0.510 OA
BRANCH   7  10
ATOM     10  N   LIG    1       -0.231  -4.342   5.201  0.00  0.00    -0.370 N 
ATOM     11  C   LIG    1        0.710  -5.187   4.730  0.00  0.00    +0.220 A 
ATOM     12  C   LIG    1        0.360  -6.441   5.099  0.00  0.00    -0.120 A 
ATOM     13  C   LIG    1       -0.836  -6.359   5.821  0.00  0.00    +0.230 A 
ATOM     14  N   LIG    1       -1.188  -5.101   5.887  0.00  0.00    -0.290 NA
ENDBRANCH   7  10
ENDBRANCH   1   2
BRANCH   1  16
ATOM     15  C   LIG    1       -0.013   1.086   0.008  0.00  0.00    +0.260 C 
ATOM     16  N   LIG    1       -0.700   1.560   1.217  0.00  0.00    -0.450 N 
BRANCH  16  17
ATOM     17  C   LIG    1       -0.815   2.939   1.213  0.00  0.00    +0.430 A 
ATOM     18  C   LIG    1       -1.433   3.606   0.143  0.00  0.00    -0.060 A 
ATOM     19  N   LIG    1       -2.012   3.214  -1.018  0.00  0.00    -0.460 NA
ATOM     20  C   LIG    1       -2.438   4.260  -1.665  0.00  0.00    +0.500 A 
ATOM     21  N   LIG    1       -2.170   5.390  -0.951  0.00  0.00    -0.580 N 
ATOM     22  H   LIG    1       -2.384   6.299  -1.213  0.00  0.00    +0.430 HD
ATOM     23  C   LIG    1       -1.526   5.007   0.199  0.00  0.00    +0.290 A 
ATOM     24  N   LIG    1       -1.020   5.646   1.248  0.00  0.00    -0.540 NA
ATOM     25  C   LIG    1       -0.444   4.979   2.226  0.00  0.00    +0.560 A 
ATOM     26  N   LIG    1       -0.339   3.663   2.221  0.00  0.00    -0.570 NA
ENDBRANCH  16  17
ENDBRANCH   1  16
TORSDOF 4
