REMARK  Name = ZINCpe000000UylP.2
REMARK                            x       y       z     vdW  Elec       q    Type
REMARK                         _______ _______ _______ _____ _____    ______ ____
ROOT
ATOM      1  C   LIG    1        1.438   5.735   0.017  0.00  0.00    +0.340 C 
ENDROOT
BRANCH   1   2
ATOM      2  C   LIG    1        1.872   5.970  -1.407  0.00  0.00    +0.500 C 
ATOM      3  N   LIG    1        3.050   6.572  -1.662  0.00  0.00    -0.610 N 
ATOM      4  C   LIG    1        3.923   7.006  -0.562  0.00  0.00    +0.270 C 
ATOM      5  C   LIG    1        5.317   6.407  -0.773  0.00  0.00    +0.040 C 
ATOM      6  C   LIG    1        5.825   6.787  -2.165  0.00  0.00    +0.020 C 
ATOM      7  C   LIG    1        4.886   6.211  -3.228  0.00  0.00    +0.260 C 
ATOM      8  C   LIG    1        3.490   6.802  -3.045  0.00  0.00    +0.290 C 
ATOM      9  O   LIG    1        1.161   5.616  -2.324  0.00  0.00    -0.520 OA
BRANCH   7  10
ATOM     10  N   LIG    1        5.392   6.548  -4.561  0.00  0.00    -0.370 N 
ATOM     11  C   LIG    1        5.160   7.696  -5.231  0.00  0.00    +0.220 A 
ATOM     12  C   LIG    1        5.800   7.616  -6.421  0.00  0.00    -0.120 A 
ATOM     13  C   LIG    1        6.445   6.376  -6.479  0.00  0.00    +0.230 A 
ATOM     14  N   LIG    1        6.206   5.737  -5.363  0.00  0.00    -0.290 NA
ENDBRANCH   7  10
ENDBRANCH   1   2
BRANCH   1  16
ATOM     15  C   LIG    1       -1.096   5.868   0.042  0.00  0.00    +0.340 C 
ATOM     16  N   LIG    1        0.133   5.070   0.026  0.00  0.00    -0.540 N 
BRANCH  16  17
ATOM     17  C   LIG    1        0.060   3.700   0.020  0.00  0.00    +0.540 A 
ATOM     18  C   LIG    1       -1.187   3.052   0.029  0.00  0.00    -0.110 A 
ATOM     19  N   LIG    1       -2.469   3.453   0.043  0.00  0.00    -0.500 NA
ATOM     20  C   LIG    1       -3.234   2.382   0.045  0.00  0.00    +0.400 A 
ATOM     21  N   LIG    1       -2.486   1.285   0.032  0.00  0.00    -0.540 NA
ATOM     22  C   LIG    1       -1.210   1.640   0.017  0.00  0.00    +0.220 A 
ATOM     23  N   LIG    1       -0.011   0.966   0.007  0.00  0.00    -0.540 N 
ATOM     24  H   LIG    1        0.002  -0.004   0.002  0.00  0.00    +0.430 HD
ATOM     25  C   LIG    1        1.142   1.656   0.000  0.00  0.00    +0.650 A 
ATOM     26  N   LIG    1        1.175   2.963   0.006  0.00  0.00    -0.580 NA
ENDBRANCH  16  17
ENDBRANCH   1  16
TORSDOF 4
