REMARK  Name = ZINCpe000000UylP.0
REMARK                            x       y       z     vdW  Elec       q    Type
REMARK                         _______ _______ _______ _____ _____    ______ ____
ROOT
ATOM      1  C   LIG    1       -0.801   1.903  -1.118  0.00  0.00    +0.270 C 
ENDROOT
BRANCH   1   2
ATOM      2  C   LIG    1       -1.006   3.386  -0.943  0.00  0.00    +0.520 C 
ATOM      3  N   LIG    1       -1.702   4.083  -1.863  0.00  0.00    -0.610 N 
ATOM      4  C   LIG    1       -2.267   3.411  -3.041  0.00  0.00    +0.280 C 
ATOM      5  C   LIG    1       -3.763   3.730  -3.120  0.00  0.00    +0.040 C 
ATOM      6  C   LIG    1       -3.959   5.247  -3.107  0.00  0.00    +0.020 C 
ATOM      7  C   LIG    1       -3.411   5.824  -1.800  0.00  0.00    +0.260 C 
ATOM      8  C   LIG    1       -1.915   5.528  -1.703  0.00  0.00    +0.290 C 
ATOM      9  O   LIG    1       -0.544   3.952   0.025  0.00  0.00    -0.520 OA
BRANCH   7  10
ATOM     10  N   LIG    1       -3.628   7.272  -1.775  0.00  0.00    -0.370 N 
ATOM     11  C   LIG    1       -2.820   8.206  -2.320  0.00  0.00    +0.220 A 
ATOM     12  C   LIG    1       -3.371   9.418  -2.081  0.00  0.00    -0.120 A 
ATOM     13  C   LIG    1       -4.556   9.219  -1.365  0.00  0.00    +0.230 A 
ATOM     14  N   LIG    1       -4.714   7.933  -1.186  0.00  0.00    -0.290 NA
ENDBRANCH   7  10
ENDBRANCH   1   2
BRANCH   1  16
ATOM     15  C   LIG    1        1.347   1.926  -0.001  0.00  0.00    +0.250 C 
ATOM     16  N   LIG    1       -0.017   1.381   0.010  0.00  0.00    -0.460 N 
BRANCH  16  17
ATOM     17  C   LIG    1        0.002  -0.004   0.002  0.00  0.00    +0.400 A 
ATOM     18  C   LIG    1        0.691  -0.714   0.987  0.00  0.00    -0.080 A 
ATOM     19  N   LIG    1        1.444  -0.377   2.091  0.00  0.00    -0.570 N 
ATOM     20  H   LIG    1        1.642   0.521   2.401  0.00  0.00    +0.430 HD
ATOM     21  C   LIG    1        1.856  -1.531   2.662  0.00  0.00    +0.540 A 
ATOM     22  N   LIG    1        1.408  -2.551   1.984  0.00  0.00    -0.490 NA
ATOM     23  C   LIG    1        0.681  -2.118   0.936  0.00  0.00    +0.310 A 
ATOM     24  N   LIG    1        0.012  -2.719  -0.053  0.00  0.00    -0.500 NA
ATOM     25  C   LIG    1       -0.623  -2.008  -0.959  0.00  0.00    +0.540 A 
ATOM     26  N   LIG    1       -0.641  -0.688  -0.941  0.00  0.00    -0.560 NA
ENDBRANCH  16  17
ENDBRANCH   1  16
TORSDOF 4
