REMARK  Name = ZINCtV00001bB3qs.0
REMARK                            x       y       z     vdW  Elec       q    Type
REMARK                         _______ _______ _______ _____ _____    ______ ____
ROOT
ATOM      1  C   LIG    1        2.571  -4.371  -0.156  0.00  0.00    +0.140 C 
ATOM      2  C   LIG    1        3.933  -5.017  -0.117  0.00  0.00    +0.200 A 
ATOM      3  N   LIG    1        4.019  -6.322  -0.124  0.00  0.00    -0.470 NA
ATOM      4  C   LIG    1        5.199  -6.956  -0.091  0.00  0.00    +0.150 A 
ATOM      5  C   LIG    1        5.260  -8.360  -0.100  0.00  0.00    +0.070 A 
ATOM      6  C   LIG    1        6.469  -8.985  -0.066  0.00  0.00    +0.050 A 
ATOM      7  C   LIG    1        7.654  -8.255  -0.022  0.00  0.00    -0.030 A 
ATOM      8  C   LIG    1        7.633  -6.891  -0.013  0.00  0.00    +0.060 A 
ATOM      9 CL   LIG    1        9.176  -9.090   0.019  0.00  0.00    -0.060 Cl
ATOM     10  C   LIG    1        6.405  -6.216  -0.047  0.00  0.00    -0.090 A 
ATOM     11  C   LIG    1        6.345  -4.801  -0.043  0.00  0.00    +0.060 A 
ATOM     12  C   LIG    1        5.076  -4.202  -0.074  0.00  0.00    -0.190 A 
ENDROOT
BRANCH  11  13
ATOM     13  C   LIG    1        7.575  -3.983  -0.003  0.00  0.00    -0.070 A 
ATOM     14  C   LIG    1        7.910  -3.166  -1.085  0.00  0.00    +0.040 A 
ATOM     15  C   LIG    1        9.058  -2.402  -1.039  0.00  0.00    +0.020 A 
ATOM     16  C   LIG    1        9.882  -2.451   0.072  0.00  0.00    +0.030 A 
ATOM     17  C   LIG    1        9.558  -3.262   1.145  0.00  0.00    +0.010 A 
ATOM     18  C   LIG    1        8.411  -4.028   1.115  0.00  0.00    +0.040 A 
ENDBRANCH  11  13
BRANCH  12  19
ATOM     19  C   LIG    1        4.944  -2.732  -0.068  0.00  0.00    +0.450 C 
ATOM     20  O   LIG    1        4.831  -2.126  -1.118  0.00  0.00    -0.440 OA
BRANCH  19  21
ATOM     21  C   LIG    1        4.949  -2.025   1.162  0.00  0.00    -0.120 C 
ATOM     22  C   LIG    1        4.932  -0.673   1.165  0.00  0.00    +0.160 C 
BRANCH  22  23
ATOM     23  C   LIG    1        4.937   0.059   2.438  0.00  0.00    -0.120 A 
ATOM     24  C   LIG    1        4.960  -0.638   3.651  0.00  0.00    +0.050 A 
ATOM     25  C   LIG    1        4.965   0.056   4.841  0.00  0.00    +0.000 A 
ATOM     26  C   LIG    1        4.948   1.441   4.843  0.00  0.00    +0.050 A 
ATOM     27  C   LIG    1        4.925   2.143   3.653  0.00  0.00    -0.020 A 
ATOM     28  C   LIG    1        4.920   1.464   2.446  0.00  0.00    +0.140 A 
BRANCH  28  29
ATOM     29  O   LIG    1        4.898   2.152   1.276  0.00  0.00    -0.490 OA
ATOM     30  H   LIG    1        4.008   2.341   0.947  0.00  0.00    +0.400 HD
ENDBRANCH  28  29
ENDBRANCH  22  23
ENDBRANCH  19  21
ENDBRANCH  12  19
TORSDOF 5
