REMARK  Name = ZINCrg00000AOkNj.0
REMARK                            x       y       z     vdW  Elec       q    Type
REMARK                         _______ _______ _______ _____ _____    ______ ____
ROOT
ATOM      1  N   LIG    1        2.008   5.017   3.892  0.00  0.00    -0.720 N 
ATOM      2  H   LIG    1        2.623   4.279   4.027  0.00  0.00    +0.400 HD
ATOM      3  C   LIG    1        1.548   5.712   4.951  0.00  0.00    +0.710 C 
ATOM      4  N   LIG    1        1.943   5.383   6.197  0.00  0.00    -0.730 N 
ATOM      5  H   LIG    1        2.559   4.645   6.331  0.00  0.00    +0.400 HD
ATOM      6  O   LIG    1        0.776   6.637   4.783  0.00  0.00    -0.570 OA
ENDROOT
BRANCH   4   7
ATOM      7  C   LIG    1        1.443   6.139   7.348  0.00  0.00    +0.290 C 
ATOM      8  C   LIG    1        2.442   6.030   8.500  0.00  0.00    +0.110 C 
ATOM      9  C   LIG    1        2.402   4.641   9.078  0.00  0.00    -0.130 A 
ATOM     10  C   LIG    1        3.550   4.075   9.597  0.00  0.00    +0.050 A 
ATOM     11  C   LIG    1        3.506   2.815  10.165  0.00  0.00    -0.010 A 
ATOM     12  C   LIG    1        2.312   2.120  10.220  0.00  0.00    +0.050 A 
ATOM     13  C   LIG    1        1.162   2.678   9.696  0.00  0.00    -0.020 A 
ATOM     14  C   LIG    1        1.207   3.934   9.108  0.00  0.00    +0.170 A 
ATOM     15  N   LIG    1        0.046   4.497   8.569  0.00  0.00    -0.550 N 
ATOM     16  C   LIG    1       -1.256   3.900   8.873  0.00  0.00    +0.310 C 
ATOM     17  C   LIG    1        0.112   5.579   7.775  0.00  0.00    +0.500 C 
ATOM     18  O   LIG    1       -0.911   6.111   7.399  0.00  0.00    -0.500 OA
ENDBRANCH   4   7
BRANCH   1  21
ATOM     19  N   LIG    1        1.888   3.657   1.389  0.00  0.00    -0.470 NA
ATOM     20  C   LIG    1        0.669   4.333   1.871  0.00  0.00    +0.160 C 
ATOM     21  C   LIG    1        1.578   5.375   2.538  0.00  0.00    +0.260 C 
ATOM     22  C   LIG    1        2.566   4.966   1.437  0.00  0.00    +0.180 C 
BRANCH  19  23
ATOM     23  C   LIG    1        1.724   3.199   0.003  0.00  0.00    +0.290 C 
BRANCH  23  28
ATOM     24  C   LIG    1        1.699  -1.841  -0.025  0.00  0.00    +0.220 C 
ATOM     25  C   LIG    1        1.241  -0.405  -0.012  0.00  0.00    +0.190 A 
ATOM     26  N   LIG    1        0.002  -0.004   0.002  0.00  0.00    -0.490 NA
ATOM     27  C   LIG    1       -0.016   1.341   0.009  0.00  0.00    +0.150 A 
ATOM     28  C   LIG    1        1.258   1.766  -0.001  0.00  0.00    -0.040 A 
ATOM     29  O   LIG    1        2.042   0.669  -0.014  0.00  0.00    -0.200 OA
ENDBRANCH  23  28
ENDBRANCH  19  23
ENDBRANCH   1  21
TORSDOF 4
