REMARK  Name = ZINCpe00000VVGkS.0
REMARK                            x       y       z     vdW  Elec       q    Type
REMARK                         _______ _______ _______ _____ _____    ______ ____
ROOT
ATOM      1  N   LIG    1       -0.724   1.573  -1.181  0.00  0.00    -0.470 N 
ATOM      2  C   LIG    1       -0.013   1.086   0.008  0.00  0.00    +0.210 C 
ATOM      3  C   LIG    1       -0.731   1.581   1.268  0.00  0.00    +0.290 C 
ATOM      4  N   LIG    1       -0.872   3.042   1.182  0.00  0.00    -0.620 N 
ATOM      5  C   LIG    1       -1.452   3.615  -0.042  0.00  0.00    +0.310 C 
ATOM      6  C   LIG    1       -0.480   3.835   2.199  0.00  0.00    +0.520 C 
ATOM      7  O   LIG    1       -0.603   5.039   2.111  0.00  0.00    -0.530 OA
ATOM      8  C   LIG    1       -0.705   3.040  -1.250  0.00  0.00    +0.200 C 
ENDROOT
BRANCH   1  13
ATOM      9  C   LIG    1       -0.203   0.779  -4.729  0.00  0.00    +0.050 A 
ATOM     10  C   LIG    1        0.866  -0.115  -4.588  0.00  0.00    -0.010 A 
ATOM     11  C   LIG    1        1.345  -0.397  -3.326  0.00  0.00    +0.310 A 
ATOM     12  N   LIG    1        0.812   0.162  -2.256  0.00  0.00    -0.500 NA
ATOM     13  C   LIG    1       -0.199   1.013  -2.340  0.00  0.00    +0.320 A 
ATOM     14  C   LIG    1       -0.745   1.347  -3.574  0.00  0.00    +0.010 A 
BRANCH   9  16
ATOM     15  N   LIG    1       -1.147   1.351  -7.047  0.00  0.00    -0.390 NA
ATOM     16  C   LIG    1       -0.730   1.098  -6.022  0.00  0.00    +0.250 C 
ENDBRANCH   9  16
ENDBRANCH   1  13
BRANCH   6  17
ATOM     17  C   LIG    1        0.112   3.227   3.444  0.00  0.00    +0.040 C 
BRANCH  17  18
ATOM     18  C   LIG    1        0.470   4.338   4.434  0.00  0.00    +0.310 C 
BRANCH  18  19
ATOM     19  N   LIG    1        1.045   3.747   5.644  0.00  0.00    -0.700 N 
ATOM     20  H   LIG    1        1.144   2.784   5.714  0.00  0.00    +0.410 HD
BRANCH  19  21
ATOM     21  C   LIG    1        1.448   4.561   6.688  0.00  0.00    +0.560 A 
ATOM     22  N   LIG    1        1.311   5.874   6.574  0.00  0.00    -0.570 NA
ATOM     23  C   LIG    1        1.680   6.680   7.555  0.00  0.00    +0.360 A 
ATOM     24  C   LIG    1        2.227   6.137   8.707  0.00  0.00    -0.150 A 
ATOM     25  C   LIG    1        2.361   4.760   8.791  0.00  0.00    +0.360 A 
ATOM     26  N   LIG    1        1.966   4.010   7.776  0.00  0.00    -0.570 NA
ENDBRANCH  19  21
ENDBRANCH  18  19
ENDBRANCH  17  18
ENDBRANCH   6  17
TORSDOF 6
