REMARK  Name = ZINCrD000000AI6G.1
REMARK                            x       y       z     vdW  Elec       q    Type
REMARK                         _______ _______ _______ _____ _____    ______ ____
ROOT
ATOM      1  O   LIG    1       -5.960   7.122  -0.331  0.00  0.00    -0.590 OA
ATOM      2  C   LIG    1       -4.933   7.778  -0.339  0.00  0.00    +0.550 C 
ENDROOT
BRANCH   2   3
ATOM      3  N   LIG    1       -4.991   9.110  -0.437  0.00  0.00    -0.610 NA
ATOM      4  C   LIG    1       -6.171   9.720  -0.526  0.00  0.00    +0.480 A 
ATOM      5  C   LIG    1       -6.384  11.107  -0.628  0.00  0.00    -0.010 A 
ATOM      6  C   LIG    1       -7.728  11.326  -0.700  0.00  0.00    +0.220 A 
ATOM      7  N   LIG    1       -8.373  10.115  -0.637  0.00  0.00    -0.480 N 
ATOM      8  H   LIG    1       -9.333   9.979  -0.663  0.00  0.00    +0.450 HD
ATOM      9  N   LIG    1       -7.402   9.109  -0.528  0.00  0.00    -0.470 N 
ATOM     10  H   LIG    1       -7.570   8.156  -0.466  0.00  0.00    +0.460 HD
BRANCH   6  11
ATOM     11  C   LIG    1       -8.382  12.647  -0.820  0.00  0.00    +0.170 A 
ATOM     12  C   LIG    1       -9.773  12.727  -0.878  0.00  0.00    -0.020 A 
ATOM     13  C   LIG    1      -10.371  13.972  -0.990  0.00  0.00    +0.070 A 
ATOM     14  C   LIG    1       -9.558  15.094  -1.040  0.00  0.00    -0.010 A 
ATOM     15  C   LIG    1       -8.183  14.941  -0.978  0.00  0.00    +0.290 A 
ATOM     16  N   LIG    1       -7.640  13.748  -0.867  0.00  0.00    -0.450 NA
ENDBRANCH   6  11
ENDBRANCH   2   3
BRANCH   2  17
ATOM     17  C   LIG    1       -3.619   7.099  -0.241  0.00  0.00    +0.010 A 
ATOM     18  C   LIG    1       -3.558   5.711  -0.140  0.00  0.00    +0.330 A 
ATOM     19  N   LIG    1       -2.387   5.106  -0.057  0.00  0.00    -0.490 NA
ATOM     20  C   LIG    1       -1.270   5.821  -0.061  0.00  0.00    +0.290 A 
ATOM     21  C   LIG    1       -1.331   7.212  -0.163  0.00  0.00    +0.240 A 
ATOM     22  N   LIG    1       -2.497   7.815  -0.250  0.00  0.00    -0.340 NA
BRANCH  20  23
ATOM     23  O   LIG    1       -0.069   5.201   0.029  0.00  0.00    -0.240 OA
BRANCH  23  24
ATOM     24  C   LIG    1       -0.049   3.842   0.005  0.00  0.00    +0.090 A 
ATOM     25  C   LIG    1       -0.351   3.163  -1.167  0.00  0.00    +0.000 A 
ATOM     26  C   LIG    1       -0.330   1.782  -1.188  0.00  0.00    +0.020 A 
ATOM     27  C   LIG    1       -0.009   1.076  -0.043  0.00  0.00    +0.020 A 
ATOM     28  C   LIG    1        0.287   1.751   1.127  0.00  0.00    +0.020 A 
ATOM     29  C   LIG    1        0.273   3.132   1.153  0.00  0.00    +0.020 A 
ENDBRANCH  23  24
ENDBRANCH  20  23
ENDBRANCH   2  17
TORSDOF 5
