REMARK  Name = ZINCqH0000007UhJ.0
REMARK                            x       y       z     vdW  Elec       q    Type
REMARK                         _______ _______ _______ _____ _____    ______ ____
ROOT
ATOM      1  C   LIG    1       -2.057   2.972   3.594  0.00  0.00    +0.600 C 
ATOM      2  N   LIG    1       -2.603   3.755   4.546  0.00  0.00    -0.630 N 
ATOM      3  H   LIG    1       -2.565   4.720   4.460  0.00  0.00    +0.430 HD
ATOM      4  O   LIG    1       -2.105   1.762   3.701  0.00  0.00    -0.440 OA
ENDROOT
BRANCH   2   5
ATOM      5  C   LIG    1       -3.220   3.179   5.649  0.00  0.00    +0.270 A 
ATOM      6  N   LIG    1       -3.330   1.908   5.857  0.00  0.00    -0.470 NA
ATOM      7  C   LIG    1       -3.946   1.516   6.965  0.00  0.00    +0.100 A 
ATOM      8  C   LIG    1       -4.383   2.539   7.720  0.00  0.00    -0.240 A 
ATOM      9  C   LIG    1       -5.122   2.402   9.030  0.00  0.00    +0.130 C 
ATOM     10  C   LIG    1       -4.938   0.972   9.548  0.00  0.00    -0.010 C 
ATOM     11  C   LIG    1       -5.254  -0.012   8.417  0.00  0.00    +0.030 C 
ATOM     12  C   LIG    1       -5.887   0.724  10.722  0.00  0.00    +0.030 C 
ATOM     13  C   LIG    1       -4.153   0.060   7.357  0.00  0.00    +0.130 C 
ATOM     14  S   LIG    1       -3.950   4.048   6.926  0.00  0.00    +0.120 S 
ENDBRANCH   2   5
BRANCH   1  19
ATOM     15  C   LIG    1       -0.787   2.893   1.346  0.00  0.00    +0.080 A 
ATOM     16  C   LIG    1       -0.322   3.861   0.516  0.00  0.00    +0.090 A 
ATOM     17  N   LIG    1       -0.654   5.058   1.071  0.00  0.00    -0.210 N 
ATOM     18  N   LIG    1       -1.278   4.874   2.179  0.00  0.00    -0.230 NA
ATOM     19  C   LIG    1       -1.403   3.583   2.423  0.00  0.00    -0.020 A 
BRANCH  17  20
ATOM     20  C   LIG    1       -0.354   6.310   0.518  0.00  0.00    +0.130 A 
ATOM     21  C   LIG    1        0.332   6.392  -0.687  0.00  0.00    +0.010 A 
ATOM     22  C   LIG    1        0.622   7.627  -1.232  0.00  0.00    +0.050 A 
ATOM     23  C   LIG    1        0.239   8.782  -0.574  0.00  0.00    +0.010 A 
ATOM     24  C   LIG    1       -0.440   8.704   0.628  0.00  0.00    +0.040 A 
ATOM     25  C   LIG    1       -0.738   7.471   1.175  0.00  0.00    +0.030 A 
ENDBRANCH  17  20
BRANCH  15  27
ATOM     26  C   LIG    1       -0.013   1.086   0.008  0.00  0.00    +0.250 C 
ATOM     27  O   LIG    1       -0.682   1.547   1.184  0.00  0.00    -0.270 OA
ENDBRANCH  15  27
ENDBRANCH   1  19
TORSDOF 4
