REMARK  Name = ZINCvU00000009qg.0
REMARK                            x       y       z     vdW  Elec       q    Type
REMARK                         _______ _______ _______ _____ _____    ______ ____
ROOT
ATOM      1  C   LIG    1        0.002  -0.004   0.002  0.00  0.00    +0.150 A 
ATOM      2  N   LIG    1       -0.016   1.310   0.009  0.00  0.00    -0.280 NA
ATOM      3  N   LIG    1        1.184   1.769   0.000  0.00  0.00    -0.250 NA
ATOM      4  C   LIG    1        2.045   0.775  -0.013  0.00  0.00    +0.260 A 
ATOM      5  N   LIG    1        1.313  -0.392  -0.013  0.00  0.00    -0.450 N 
ENDROOT
BRANCH   4   6
ATOM      6  C   LIG    1        3.512   0.887  -0.027  0.00  0.00    +0.040 A 
ATOM      7  C   LIG    1        4.226   2.010  -0.319  0.00  0.00    +0.030 A 
ATOM      8  C   LIG    1        5.587   1.666  -0.209  0.00  0.00    -0.050 A 
ATOM      9  C   LIG    1        5.639   0.363   0.131  0.00  0.00    +0.190 A 
ATOM     10  O   LIG    1        4.384  -0.105   0.240  0.00  0.00    -0.180 OA
ENDBRANCH   4   6
BRANCH   1  11
ATOM     11  S   LIG    1       -1.403  -1.068   0.010  0.00  0.00    +0.090 S 
BRANCH  11  13
ATOM     12  C   LIG    1       -2.701   0.964  -1.274  0.00  0.00    +0.090 C 
ATOM     13  C   LIG    1       -2.729   0.163   0.029  0.00  0.00    +0.020 C 
BRANCH  13  14
ATOM     14  C   LIG    1       -4.059  -0.533   0.162  0.00  0.00    +0.530 C 
ATOM     15  N   LIG    1       -5.136   0.149   0.598  0.00  0.00    -0.650 N 
ATOM     16  H   LIG    1       -5.056   1.089   0.825  0.00  0.00    +0.420 HD
ATOM     17  O   LIG    1       -4.159  -1.708  -0.122  0.00  0.00    -0.450 OA
BRANCH  15  18
ATOM     18  C   LIG    1       -6.367  -0.495   0.721  0.00  0.00    +0.380 A 
ATOM     19  N   LIG    1       -6.471  -1.776   0.404  0.00  0.00    -0.450 NA
ATOM     20  C   LIG    1       -7.615  -2.425   0.511  0.00  0.00    +0.340 A 
ATOM     21  C   LIG    1       -8.756  -1.783   0.951  0.00  0.00    -0.110 A 
ATOM     22  C   LIG    1       -8.691  -0.437   1.288  0.00  0.00    +0.130 A 
ATOM     23 CL   LIG    1      -10.255  -2.648   1.080  0.00  0.00    -0.040 Cl
ATOM     24  C   LIG    1       -7.476   0.215   1.171  0.00  0.00    -0.120 A 
ATOM     25 CL   LIG    1       -7.336   1.897   1.578  0.00  0.00    -0.040 Cl
ENDBRANCH  15  18
ENDBRANCH  13  14
ENDBRANCH  11  13
ENDBRANCH   1  11
BRANCH   5  26
ATOM     26  C   LIG    1        1.830  -1.763  -0.026  0.00  0.00    +0.360 C 
BRANCH  26  27
ATOM     27  C   LIG    1        1.994  -2.224  -1.451  0.00  0.00    -0.130 A 
ATOM     28  C   LIG    1        0.951  -2.864  -2.094  0.00  0.00    +0.040 A 
ATOM     29  C   LIG    1        1.099  -3.283  -3.403  0.00  0.00    +0.010 A 
ATOM     30  C   LIG    1        2.294  -3.072  -4.065  0.00  0.00    +0.030 A 
ATOM     31  C   LIG    1        3.339  -2.437  -3.420  0.00  0.00    +0.010 A 
ATOM     32  C   LIG    1        3.189  -2.013  -2.113  0.00  0.00    +0.030 A 
ENDBRANCH  26  27
ENDBRANCH   5  26
TORSDOF 7
