REMARK  Name = ZINCqH0000050qZn.0
REMARK                            x       y       z     vdW  Elec       q    Type
REMARK                         _______ _______ _______ _____ _____    ______ ____
ROOT
ATOM      1  C   LIG    1       -7.754  -1.892   2.352  0.00  0.00    +0.090 C 
ATOM      2  C   LIG    1       -6.441  -1.189   2.123  0.00  0.00    -0.030 A 
ATOM      3  C   LIG    1       -5.934  -1.075   0.842  0.00  0.00    +0.040 A 
ATOM      4  C   LIG    1       -4.733  -0.427   0.628  0.00  0.00    -0.010 A 
ATOM      5  C   LIG    1       -4.029   0.101   1.703  0.00  0.00    +0.190 A 
ATOM      6  C   LIG    1       -4.542  -0.016   2.989  0.00  0.00    +0.050 A 
ATOM      7  C   LIG    1       -5.745  -0.660   3.195  0.00  0.00    -0.630 A 
ENDROOT
BRANCH   7   8
ATOM      8  S   LIG    1       -6.396  -0.809   4.826  0.00  0.00    +2.690 S 
ATOM      9  O   LIG    1       -5.481  -0.144   5.686  0.00  0.00    -0.950 OA
ATOM     10  O   LIG    1       -6.765  -2.171   4.988  0.00  0.00    -0.950 OA
BRANCH   8  11
ATOM     11  N   LIG    1       -7.802   0.065   4.874  0.00  0.00    -0.990 NA
ATOM     12  C   LIG    1       -7.724   1.492   5.091  0.00  0.00    +0.290 C 
ATOM     13  C   LIG    1       -7.757   1.797   6.603  0.00  0.00    +0.010 C 
ATOM     14  C   LIG    1       -9.100   1.542   7.146  0.00  0.00    +0.000 C 
ATOM     15  C   LIG    1       -9.555   0.089   7.041  0.00  0.00    +0.010 C 
ATOM     16  C   LIG    1      -10.161  -0.148   5.680  0.00  0.00    +0.020 C 
ATOM     17  C   LIG    1       -9.084  -0.646   4.700  0.00  0.00    +0.270 C 
ENDBRANCH   8  11
ENDBRANCH   7   8
BRANCH   5  18
ATOM     18  N   LIG    1       -2.812   0.752   1.491  0.00  0.00    -0.750 N 
ATOM     19  H   LIG    1       -2.324   1.124   2.242  0.00  0.00    +0.400 HD
BRANCH  18  20
ATOM     20  C   LIG    1       -2.273   0.874   0.134  0.00  0.00    +0.330 C 
BRANCH  20  21
ATOM     21  C   LIG    1       -0.961   1.613   0.179  0.00  0.00    -0.130 A 
ATOM     22  C   LIG    1        0.226   0.922   0.337  0.00  0.00    +0.280 A 
ATOM     23  N   LIG    1        1.380   1.560   0.372  0.00  0.00    -0.450 NA
ATOM     24  C   LIG    1        1.451   2.872   0.265  0.00  0.00    +0.250 A 
ATOM     25  C   LIG    1        0.304   3.632   0.110  0.00  0.00    +0.050 A 
ATOM     26  F   LIG    1        0.384   4.976   0.001  0.00  0.00    -0.130 F 
ATOM     27  C   LIG    1       -0.929   2.995   0.069  0.00  0.00    +0.060 A 
ENDBRANCH  20  21
ENDBRANCH  18  20
ENDBRANCH   5  18
TORSDOF 5
