REMARK  Name = ZINCpe000000ZnhH.0
REMARK                            x       y       z     vdW  Elec       q    Type
REMARK                         _______ _______ _______ _____ _____    ______ ____
ROOT
ATOM      1  C   LIG    1        1.284  -2.580  -4.003  0.00  0.00    +0.120 A 
ATOM      2  C   LIG    1        1.532  -1.513  -4.857  0.00  0.00    +0.120 A 
ATOM      3  C   LIG    1        1.139  -0.238  -4.500  0.00  0.00    +0.000 A 
ATOM      4  C   LIG    1        0.494  -0.024  -3.294  0.00  0.00    +0.180 A 
ATOM      5  C   LIG    1        0.250  -1.085  -2.438  0.00  0.00    -0.700 A 
ATOM      6  F   LIG    1        0.105   1.223  -2.949  0.00  0.00    -0.120 F 
ATOM      7  C   LIG    1        0.641  -2.362  -2.792  0.00  0.00    +0.140 A 
ENDROOT
BRANCH   1  10
ATOM      8  O   LIG    1        3.517  -3.109  -5.352  0.00  0.00    -0.500 OA
ATOM      9  C   LIG    1        2.800  -4.056  -5.091  0.00  0.00    +0.580 C 
ATOM     10  N   LIG    1        1.681  -3.872  -4.363  0.00  0.00    -0.650 N 
ATOM     11  H   LIG    1        1.150  -4.637  -4.089  0.00  0.00    +0.430 HD
BRANCH   9  12
ATOM     12  C   LIG    1        3.158  -5.410  -5.571  0.00  0.00    +0.020 A 
ATOM     13  C   LIG    1        4.316  -5.602  -6.324  0.00  0.00    +0.310 A 
ATOM     14  N   LIG    1        4.631  -6.812  -6.750  0.00  0.00    -0.440 NA
ATOM     15  C   LIG    1        3.850  -7.838  -6.464  0.00  0.00    +0.260 A 
ATOM     16  C   LIG    1        2.697  -7.651  -5.715  0.00  0.00    +0.230 A 
ATOM     17  N   LIG    1        2.378  -6.448  -5.281  0.00  0.00    -0.410 NA
ENDBRANCH   9  12
ENDBRANCH   1  10
BRANCH   5  18
ATOM     18  S   LIG    1       -0.566  -0.808  -0.901  0.00  0.00    +2.690 S 
ATOM     19  O   LIG    1       -1.709  -0.015  -1.192  0.00  0.00    -0.940 OA
ATOM     20  O   LIG    1       -0.640  -2.070  -0.253  0.00  0.00    -0.940 OA
BRANCH  18  21
ATOM     21  N   LIG    1        0.434   0.134   0.022  0.00  0.00    -1.000 NA
ATOM     22  C   LIG    1        0.352   1.603  -0.029  0.00  0.00    +0.280 C 
ATOM     23  C   LIG    1        1.763   2.158  -0.257  0.00  0.00    +0.220 C 
ATOM     24  O   LIG    1        2.650   1.606   0.718  0.00  0.00    -0.370 OA
ATOM     25  C   LIG    1        2.790   0.185   0.643  0.00  0.00    +0.220 C 
ATOM     26  C   LIG    1        1.432  -0.472   0.918  0.00  0.00    +0.280 C 
ENDBRANCH  18  21
ENDBRANCH   5  18
TORSDOF 4
