REMARK  Name = ZINCpe00000MJIBC.0
REMARK                            x       y       z     vdW  Elec       q    Type
REMARK                         _______ _______ _______ _____ _____    ______ ____
ROOT
ATOM      1  C   LIG    1       -2.012  -2.829  -1.298  0.00  0.00    -0.010 C 
ATOM      2  C   LIG    1       -1.546  -1.364  -1.402  0.00  0.00    +0.060 C 
ATOM      3  C   LIG    1       -1.215  -0.907   0.033  0.00  0.00    +0.110 C 
ATOM      4  C   LIG    1       -0.917  -2.222   0.795  0.00  0.00    +0.020 C 
ATOM      5  C   LIG    1       -1.952  -3.206   0.196  0.00  0.00    +0.180 C 
ENDROOT
BRANCH   3   6
ATOM      6  C   LIG    1       -0.004  -0.010   0.035  0.00  0.00    +0.320 A 
ATOM      7  N   LIG    1       -0.018   1.299   0.037  0.00  0.00    -0.560 NA
ATOM      8  C   LIG    1        1.235   1.764   0.038  0.00  0.00    +0.480 A 
ATOM      9  N   LIG    1        2.064   0.747   0.037  0.00  0.00    -0.370 NA
ATOM     10  N   LIG    1        1.277  -0.416   0.035  0.00  0.00    -0.480 N 
ATOM     11  H   LIG    1        1.596  -1.332   0.034  0.00  0.00    +0.440 HD
BRANCH   8  12
ATOM     12  N   LIG    1        1.601   3.111   0.040  0.00  0.00    -0.600 N 
ATOM     13  C   LIG    1        3.018   3.485   0.041  0.00  0.00    +0.310 C 
ATOM     14  C   LIG    1        0.570   4.151   0.041  0.00  0.00    +0.300 C 
ENDBRANCH   8  12
ENDBRANCH   3   6
BRANCH   5  15
ATOM     15  O   LIG    1       -3.229  -3.023   0.810  0.00  0.00    -0.550 OA
ATOM     16  H   LIG    1       -3.236  -3.190   1.762  0.00  0.00    +0.380 HD
ENDBRANCH   5  15
BRANCH   1  17
ATOM     17  C   LIG    1       -3.447  -2.957  -1.814  0.00  0.00    +0.290 C 
BRANCH  17  19
ATOM     18  C   LIG    1       -5.084  -4.719  -2.204  0.00  0.00    +0.600 C 
ATOM     19  N   LIG    1       -3.851  -4.365  -1.791  0.00  0.00    -0.710 N 
ATOM     20  H   LIG    1       -3.231  -5.042  -1.478  0.00  0.00    +0.400 HD
ATOM     21  O   LIG    1       -5.893  -3.863  -2.507  0.00  0.00    -0.520 OA
BRANCH  18  24
ATOM     22  C   LIG    1       -6.740  -6.315  -0.065  0.00  0.00    +0.120 C 
ATOM     23  C   LIG    1       -6.175  -6.848  -1.356  0.00  0.00    -0.110 A 
ATOM     24  C   LIG    1       -5.449  -6.137  -2.288  0.00  0.00    -0.050 A 
ATOM     25  N   LIG    1       -5.136  -6.999  -3.315  0.00  0.00    -0.430 N 
ATOM     26  C   LIG    1       -5.645  -8.221  -3.026  0.00  0.00    +0.180 A 
ATOM     27  C   LIG    1       -4.375  -6.653  -4.518  0.00  0.00    +0.320 C 
ATOM     28  C   LIG    1       -6.289  -8.157  -1.835  0.00  0.00    -0.060 A 
ENDBRANCH  18  24
ENDBRANCH  17  19
ENDBRANCH   1  17
TORSDOF 6
