REMARK  Name = ZINCqH0000000tjJ.0
REMARK                            x       y       z     vdW  Elec       q    Type
REMARK                         _______ _______ _______ _____ _____    ______ ____
ROOT
ATOM      1  N   LIG    1        3.459   1.339  -1.369  0.00  0.00    -0.670 N 
ATOM      2  H   LIG    1        3.914   1.920  -0.739  0.00  0.00    +0.410 HD
ATOM      3  C   LIG    1        2.134   1.122  -1.251  0.00  0.00    +0.520 C 
ATOM      4  O   LIG    1        1.549   0.471  -2.091  0.00  0.00    -0.500 OA
ENDROOT
BRANCH   1   8
ATOM      5  C   LIG    1        5.605  -0.487  -4.443  0.00  0.00    +0.130 A 
ATOM      6  C   LIG    1        5.969   0.777  -3.998  0.00  0.00    +0.010 A 
ATOM      7  C   LIG    1        5.259   1.381  -2.980  0.00  0.00    +0.000 A 
ATOM      8  C   LIG    1        4.180   0.726  -2.402  0.00  0.00    +0.130 A 
ATOM      9  C   LIG    1        3.819  -0.540  -2.844  0.00  0.00    +0.040 A 
ATOM     10  C   LIG    1        4.526  -1.143  -3.865  0.00  0.00    +0.040 A 
BRANCH   5  13
ATOM     11  C   LIG    1        6.441  -2.447  -7.548  0.00  0.00    +0.110 C 
ATOM     12  C   LIG    1        5.686  -1.872  -6.377  0.00  0.00    +0.510 C 
ATOM     13  N   LIG    1        6.325  -1.100  -5.477  0.00  0.00    -0.680 N 
ATOM     14  H   LIG    1        7.283  -0.968  -5.544  0.00  0.00    +0.410 HD
ATOM     15  O   LIG    1        4.503  -2.105  -6.246  0.00  0.00    -0.520 OA
ENDBRANCH   5  13
ENDBRANCH   1   8
BRANCH   3  16
ATOM     16  C   LIG    1        1.380   1.688  -0.075  0.00  0.00    +0.100 C 
BRANCH  16  17
ATOM     17  C   LIG    1       -0.096   1.299  -0.181  0.00  0.00    +0.070 C 
ATOM     18  S   LIG    1       -0.834   2.094  -1.640  0.00  0.00    -0.030 S 
ATOM     19  C   LIG    1       -0.995   3.767  -1.093  0.00  0.00    -0.140 A 
ATOM     20  C   LIG    1       -0.927   4.802  -2.011  0.00  0.00    +0.110 A 
ATOM     21  C   LIG    1       -1.078   6.111  -1.588  0.00  0.00    +0.030 A 
ATOM     22  C   LIG    1       -1.302   6.381  -0.250  0.00  0.00    -0.000 A 
ATOM     23  C   LIG    1       -1.365   5.351   0.670  0.00  0.00    +0.010 A 
ATOM     24 CL   LIG    1       -1.503   8.023   0.277  0.00  0.00    -0.050 Cl
ATOM     25  C   LIG    1       -1.196   4.033   0.262  0.00  0.00    +0.170 A 
ATOM     26  N   LIG    1       -1.257   3.014   1.208  0.00  0.00    -0.650 N 
ATOM     27  H   LIG    1       -1.649   3.237   2.067  0.00  0.00    +0.420 HD
ATOM     28  C   LIG    1       -0.831   1.765   1.048  0.00  0.00    +0.530 C 
ATOM     29  O   LIG    1       -1.043   0.964   1.934  0.00  0.00    -0.500 OA
ENDBRANCH  16  17
ENDBRANCH   3  16
TORSDOF 4
