REMARK  Name = ZINCqH0000001ALK.0
REMARK                            x       y       z     vdW  Elec       q    Type
REMARK                         _______ _______ _______ _____ _____    ______ ____
ROOT
ATOM      1  N   LIG    1       -0.490   3.123   5.775  0.00  0.00    -0.740 N 
ATOM      2  H   LIG    1       -1.459   3.071   5.794  0.00  0.00    +0.390 HD
ATOM      3  C   LIG    1        0.181   2.789   4.656  0.00  0.00    +0.710 C 
ATOM      4  N   LIG    1       -0.492   2.381   3.562  0.00  0.00    -0.750 N 
ATOM      5  H   LIG    1       -1.461   2.329   3.580  0.00  0.00    +0.400 HD
ATOM      6  O   LIG    1        1.395   2.855   4.632  0.00  0.00    -0.580 OA
ENDROOT
BRANCH   1   7
ATOM      7  C   LIG    1        0.242   3.567   6.964  0.00  0.00    +0.310 C 
BRANCH   7   8
ATOM      8  C   LIG    1       -0.654   4.431   7.813  0.00  0.00    -0.100 A 
ATOM      9  C   LIG    1       -1.986   4.098   7.971  0.00  0.00    +0.050 A 
ATOM     10  C   LIG    1       -2.808   4.887   8.754  0.00  0.00    -0.010 A 
ATOM     11  C   LIG    1       -2.299   6.018   9.370  0.00  0.00    +0.100 A 
ATOM     12  C   LIG    1       -0.965   6.353   9.206  0.00  0.00    -0.010 A 
ATOM     13  F   LIG    1       -3.102   6.794  10.130  0.00  0.00    -0.140 F 
ATOM     14  C   LIG    1       -0.144   5.559   8.428  0.00  0.00    +0.070 A 
ENDBRANCH   7   8
BRANCH   7  16
ATOM     15  C   LIG    1        1.453   2.809   9.014  0.00  0.00    +0.030 C 
ATOM     16  C   LIG    1        0.688   2.346   7.772  0.00  0.00    -0.020 C 
ATOM     17  C   LIG    1       -0.540   1.542   8.201  0.00  0.00    +0.020 C 
ENDBRANCH   7  16
ENDBRANCH   1   7
BRANCH   4  18
ATOM     18  C   LIG    1        0.238   2.018   2.345  0.00  0.00    +0.290 C 
BRANCH  18  19
ATOM     19  C   LIG    1       -0.756   1.594   1.261  0.00  0.00    -0.030 C 
ATOM     20  C   LIG    1       -1.544   2.821   0.724  0.00  0.00    +0.040 C 
ATOM     21  C   LIG    1       -1.919   2.353  -0.705  0.00  0.00    +0.180 C 
ATOM     22  N   LIG    1       -0.746   1.584  -1.170  0.00  0.00    -0.520 NA
ATOM     23  C   LIG    1       -0.013   1.086   0.008  0.00  0.00    +0.210 C 
BRANCH  22  24
ATOM     24  C   LIG    1       -1.155   0.475  -2.043  0.00  0.00    +0.200 C 
BRANCH  24  25
ATOM     25  C   LIG    1       -1.686   1.036  -3.364  0.00  0.00    +0.460 C 
ATOM     26  F   LIG    1       -2.786   1.862  -3.112  0.00  0.00    -0.180 F 
ATOM     27  F   LIG    1       -2.076  -0.020  -4.195  0.00  0.00    -0.180 F 
ATOM     28  F   LIG    1       -0.680   1.778  -3.994  0.00  0.00    -0.170 F 
ENDBRANCH  24  25
ENDBRANCH  22  24
ENDBRANCH  18  19
ENDBRANCH   4  18
TORSDOF 7
