REMARK  Name = ZINC65000000000d.0
REMARK                            x       y       z     vdW  Elec       q    Type
REMARK                         _______ _______ _______ _____ _____    ______ ____
ROOT
ATOM      1  C   LIG    1        0.417   4.867   1.342  0.00  0.00    +0.320 C 
ATOM      2  N   LIG    1        0.561   3.405   1.317  0.00  0.00    -0.390 N 
ATOM      3  C   LIG    1       -0.764   2.781   1.428  0.00  0.00    +0.310 C 
ATOM      4  H   LIG    1        1.137   3.110   2.091  0.00  0.00    +0.430 HD
ENDROOT
BRANCH   2   5
ATOM      5  C   LIG    1        1.191   2.996   0.054  0.00  0.00    +0.270 C 
BRANCH   5   6
ATOM      6  C   LIG    1        2.627   3.521   0.007  0.00  0.00    +0.200 C 
BRANCH   6   7
ATOM      7  O   LIG    1        3.390   2.914   1.052  0.00  0.00    -0.580 OA
ATOM      8  H   LIG    1        4.313   3.201   1.082  0.00  0.00    +0.410 HD
ENDBRANCH   6   7
ENDBRANCH   5   6
ENDBRANCH   2   5
TORSDOF 3
