REMARK  Name = ZINCkj000005g1cS.1
REMARK                            x       y       z     vdW  Elec       q    Type
REMARK                         _______ _______ _______ _____ _____    ______ ____
ROOT
ATOM      1  N   LIG    1       -1.105  -2.196   0.170  0.00  0.00    -0.750 N 
ATOM      2  H   LIG    1       -0.230  -2.612   0.213  0.00  0.00    +0.380 HD
ATOM      3  C   LIG    1       -1.209  -0.857   0.057  0.00  0.00    +0.570 C 
ATOM      4  O   LIG    1       -2.305  -0.335   0.003  0.00  0.00    -0.460 OA
ENDROOT
BRANCH   1   9
ATOM      5  N   LIG    1       -0.950  -5.058   0.228  0.00  0.00    -0.390 N 
ATOM      6  C   LIG    1       -1.426  -5.421  -1.112  0.00  0.00    +0.250 C 
ATOM      7  C   LIG    1       -1.715  -4.151  -1.915  0.00  0.00    +0.050 C 
ATOM      8  C   LIG    1       -2.789  -3.332  -1.195  0.00  0.00    +0.040 C 
ATOM      9  C   LIG    1       -2.313  -3.022   0.227  0.00  0.00    +0.270 C 
ATOM     10  C   LIG    1       -2.002  -4.333   0.952  0.00  0.00    +0.280 C 
ATOM     11  H   LIG    1       -0.133  -4.470   0.147  0.00  0.00    +0.410 HD
BRANCH   5  13
ATOM     12  C   LIG    1        0.581  -6.969   0.284  0.00  0.00    +0.080 C 
ATOM     13  C   LIG    1       -0.599  -6.277   0.969  0.00  0.00    +0.250 C 
ENDBRANCH   5  13
ENDBRANCH   1   9
BRANCH   3  14
ATOM     14  C   LIG    1        0.007  -0.025  -0.001  0.00  0.00    -0.180 A 
ATOM     15  C   LIG    1        1.274  -0.618  -0.054  0.00  0.00    +0.090 A 
ATOM     16  C   LIG    1        2.384   0.206  -0.108  0.00  0.00    -0.030 A 
ATOM     17  C   LIG    1        2.214   1.579  -0.108  0.00  0.00    +0.320 A 
ATOM     18  N   LIG    1        1.011   2.119  -0.058  0.00  0.00    -0.510 NA
ATOM     19  C   LIG    1       -0.084   1.377  -0.005  0.00  0.00    +0.360 A 
BRANCH  19  20
ATOM     20  N   LIG    1       -1.325   1.985   0.040  0.00  0.00    -0.480 N 
ATOM     21  C   LIG    1       -1.534   2.843  -1.134  0.00  0.00    +0.230 C 
ATOM     22  C   LIG    1       -1.492   2.747   1.285  0.00  0.00    +0.220 C 
ENDBRANCH  19  20
ENDBRANCH   3  14
TORSDOF 4
