REMARK  Name = ZINCkj000005g1cS.0
REMARK                            x       y       z     vdW  Elec       q    Type
REMARK                         _______ _______ _______ _____ _____    ______ ____
ROOT
ATOM      1  N   LIG    1       -2.958   1.644  -2.305  0.00  0.00    -0.730 N 
ATOM      2  H   LIG    1       -3.459   2.469  -2.208  0.00  0.00    +0.400 HD
ATOM      3  C   LIG    1       -2.935   1.006  -3.492  0.00  0.00    +0.570 C 
ATOM      4  O   LIG    1       -2.307  -0.028  -3.615  0.00  0.00    -0.480 OA
ENDROOT
BRANCH   1   9
ATOM      5  N   LIG    1       -2.135   1.032   1.286  0.00  0.00    -0.380 N 
ATOM      6  C   LIG    1       -0.753   1.530   1.282  0.00  0.00    +0.260 C 
ATOM      7  C   LIG    1       -0.034   1.036   0.025  0.00  0.00    +0.070 C 
ATOM      8  C   LIG    1       -0.769   1.554  -1.215  0.00  0.00    +0.030 C 
ATOM      9  C   LIG    1       -2.228   1.091  -1.162  0.00  0.00    +0.240 C 
ATOM     10  C   LIG    1       -2.866   1.583   0.139  0.00  0.00    +0.250 C 
ATOM     11  H   LIG    1       -2.127   0.025   1.227  0.00  0.00    +0.430 HD
BRANCH   5  13
ATOM     12  C   LIG    1       -2.112   0.769   3.721  0.00  0.00    +0.080 C 
ATOM     13  C   LIG    1       -2.798   1.443   2.531  0.00  0.00    +0.250 C 
ENDBRANCH   5  13
ENDBRANCH   1   9
BRANCH   3  14
ATOM     14  C   LIG    1       -3.670   1.562  -4.643  0.00  0.00    -0.180 A 
ATOM     15  C   LIG    1       -4.489   2.686  -4.489  0.00  0.00    +0.100 A 
ATOM     16  C   LIG    1       -5.154   3.173  -5.601  0.00  0.00    -0.030 A 
ATOM     17  C   LIG    1       -5.001   2.535  -6.819  0.00  0.00    +0.320 A 
ATOM     18  N   LIG    1       -4.228   1.474  -6.943  0.00  0.00    -0.510 NA
ATOM     19  C   LIG    1       -3.565   0.970  -5.913  0.00  0.00    +0.360 A 
BRANCH  19  20
ATOM     20  N   LIG    1       -2.766  -0.145  -6.089  0.00  0.00    -0.480 N 
ATOM     21  C   LIG    1       -1.592   0.174  -6.912  0.00  0.00    +0.220 C 
ATOM     22  C   LIG    1       -3.532  -1.255  -6.671  0.00  0.00    +0.230 C 
ENDBRANCH  19  20
ENDBRANCH   3  14
TORSDOF 4
