REMARK  Name = ZINCah0000004Q6C.0
REMARK                            x       y       z     vdW  Elec       q    Type
REMARK                         _______ _______ _______ _____ _____    ______ ____
ROOT
ATOM      1  C   LIG    1       -0.018   1.461   0.010  0.00  0.00    +0.360 C 
ATOM      2  N   LIG    1        0.002  -0.004   0.002  0.00  0.00    -0.370 N 
ATOM      3  C   LIG    1        0.023  -0.803   1.091  0.00  0.00    +0.280 A 
ATOM      4  C   LIG    1        0.037  -2.087   0.663  0.00  0.00    -0.190 A 
ATOM      5  C   LIG    1        0.023  -2.072  -0.742  0.00  0.00    +0.270 A 
ATOM      6 CL   LIG    1        0.066  -3.500   1.670  0.00  0.00    -0.030 Cl
ATOM      7  N   LIG    1       -0.004  -0.821  -1.136  0.00  0.00    -0.320 NA
ENDROOT
BRANCH   5   8
ATOM      8  N   LIG    1        0.030  -3.197  -1.576  0.00  0.00    -0.450 N 
ATOM      9  C   LIG    1        1.182  -4.061  -1.285  0.00  0.00    +0.230 C 
ATOM     10  C   LIG    1        0.011  -2.803  -2.991  0.00  0.00    +0.230 C 
ENDBRANCH   5   8
TORSDOF 1
