REMARK  Name = ZINCrg000000sCmu.0
REMARK                            x       y       z     vdW  Elec       q    Type
REMARK                         _______ _______ _______ _____ _____    ______ ____
ROOT
ATOM      1  C   LIG    1       -6.223   3.434   5.450  0.00  0.00    +0.330 C 
ATOM      2  C   LIG    1       -7.106   2.183   5.407  0.00  0.00    +0.240 C 
ATOM      3  O   LIG    1       -8.292   2.417   6.171  0.00  0.00    -0.370 OA
ATOM      4  C   LIG    1       -9.114   3.473   5.669  0.00  0.00    +0.210 C 
ATOM      5  C   LIG    1       -8.332   4.791   5.726  0.00  0.00    +0.260 C 
ATOM      6  N   LIG    1       -7.038   4.593   5.054  0.00  0.00    -0.610 N 
ATOM      7  C   LIG    1       -6.612   5.448   4.103  0.00  0.00    +0.570 C 
ATOM      8  O   LIG    1       -5.576   5.228   3.506  0.00  0.00    -0.500 OA
ENDROOT
BRANCH   7   9
ATOM      9  C   LIG    1       -7.403   6.650   3.786  0.00  0.00    -0.170 A 
ATOM     10  C   LIG    1       -8.200   7.245   4.768  0.00  0.00    +0.080 A 
ATOM     11  C   LIG    1       -8.934   8.370   4.470  0.00  0.00    -0.020 A 
ATOM     12  C   LIG    1       -8.893   8.914   3.189  0.00  0.00    +0.150 A 
ATOM     13  C   LIG    1       -8.109   8.329   2.206  0.00  0.00    -0.040 A 
ATOM     14  C   LIG    1       -7.363   7.200   2.495  0.00  0.00    +0.190 A 
BRANCH  12  15
ATOM     15  O   LIG    1       -9.623  10.021   2.902  0.00  0.00    -0.490 OA
ATOM     16  H   LIG    1      -10.515   9.831   2.580  0.00  0.00    +0.400 HD
ENDBRANCH  12  15
BRANCH  14  17
ATOM     17  O   LIG    1       -6.595   6.627   1.535  0.00  0.00    -0.470 OA
ATOM     18  H   LIG    1       -7.053   5.950   1.018  0.00  0.00    +0.400 HD
ENDBRANCH  14  17
ENDBRANCH   7   9
BRANCH   1  21
ATOM     19  C   LIG    1       -3.121   3.209   3.657  0.00  0.00    +0.280 A 
ATOM     20  N   LIG    1       -3.770   3.449   4.784  0.00  0.00    -0.480 NA
ATOM     21  C   LIG    1       -5.069   3.275   4.494  0.00  0.00    +0.200 A 
ATOM     22  N   LIG    1       -5.152   2.938   3.241  0.00  0.00    -0.370 NA
ATOM     23  O   LIG    1       -4.048   2.894   2.739  0.00  0.00    +0.080 OA
BRANCH  19  27
ATOM     24  C   LIG    1        1.401   3.009   1.536  0.00  0.00    +0.370 C 
ATOM     25  N   LIG    1        0.323   3.181   2.513  0.00  0.00    -0.360 N 
ATOM     26  C   LIG    1       -0.990   3.020   2.271  0.00  0.00    +0.300 A 
ATOM     27  C   LIG    1       -1.661   3.271   3.450  0.00  0.00    -0.190 A 
ATOM     28  C   LIG    1       -0.690   3.603   4.420  0.00  0.00    +0.310 A 
ATOM     29  N   LIG    1        0.484   3.546   3.854  0.00  0.00    -0.290 NA
ENDBRANCH  19  27
ENDBRANCH   1  21
TORSDOF 5
