REMARK  Name = ZINCkj000005m47V.1
REMARK                            x       y       z     vdW  Elec       q    Type
REMARK                         _______ _______ _______ _____ _____    ______ ____
ROOT
ATOM      1  O   LIG    1       -2.364   0.211  -2.276  0.00  0.00    -0.510 OA
ATOM      2  C   LIG    1       -1.194   0.468  -2.081  0.00  0.00    +0.510 C 
ATOM      3  N   LIG    1       -0.235  -0.282  -2.659  0.00  0.00    -0.590 N 
ATOM      4  C   LIG    1        1.190   0.010  -2.438  0.00  0.00    +0.250 C 
ATOM      5  C   LIG    1        1.887   0.080  -3.801  0.00  0.00    +0.230 C 
ATOM      6  O   LIG    1        1.590  -1.105  -4.543  0.00  0.00    -0.360 OA
ATOM      7  C   LIG    1        0.202  -1.276  -4.840  0.00  0.00    +0.210 C 
ATOM      8  C   LIG    1       -0.581  -1.419  -3.525  0.00  0.00    +0.300 C 
ENDROOT
BRANCH   7   9
ATOM      9  C   LIG    1        0.015  -2.518  -5.674  0.00  0.00    -0.140 A 
ATOM     10  C   LIG    1        0.945  -3.538  -5.613  0.00  0.00    +0.080 A 
ATOM     11  C   LIG    1        0.771  -4.679  -6.374  0.00  0.00    +0.010 A 
ATOM     12  C   LIG    1       -0.327  -4.797  -7.205  0.00  0.00    +0.060 A 
ATOM     13  C   LIG    1       -1.256  -3.775  -7.271  0.00  0.00    -0.010 A 
ATOM     14  C   LIG    1       -1.086  -2.635  -6.506  0.00  0.00    +0.110 A 
ATOM     15  F   LIG    1       -1.993  -1.635  -6.571  0.00  0.00    -0.140 F 
ENDBRANCH   7   9
BRANCH   2  16
ATOM     16  C   LIG    1       -0.814   1.624  -1.193  0.00  0.00    +0.180 C 
ATOM     17  C   LIG    1       -0.013   1.086   0.008  0.00  0.00    +0.180 C 
ATOM     18  S   LIG    1       -0.941   1.712   1.464  0.00  0.00    -0.140 S 
ATOM     19  C   LIG    1       -1.847   3.013   0.521  0.00  0.00    +0.370 C 
ATOM     20  N   LIG    1       -2.033   2.333  -0.792  0.00  0.00    -0.500 N 
ATOM     21  H   LIG    1       -2.792   1.672  -0.718  0.00  0.00    +0.440 HD
ATOM     22  H   LIG    1       -2.262   3.022  -1.492  0.00  0.00    +0.440 HD
ENDBRANCH   2  16
TORSDOF 2
