REMARK  Name = ZINCpk00000xIi9g.0
REMARK                            x       y       z     vdW  Elec       q    Type
REMARK                         _______ _______ _______ _____ _____    ______ ____
ROOT
ATOM      1  N   LIG    1       -4.584  -6.418   3.784  0.00  0.00    -0.680 N 
ATOM      2  H   LIG    1       -4.530  -6.109   4.702  0.00  0.00    +0.410 HD
ATOM      3  C   LIG    1       -3.889  -5.785   2.818  0.00  0.00    +0.510 C 
ATOM      4  O   LIG    1       -3.879  -6.228   1.689  0.00  0.00    -0.510 OA
ENDROOT
BRANCH   1   8
ATOM      5  C   LIG    1       -6.965  -9.700   2.829  0.00  0.00    -0.160 A 
ATOM      6  C   LIG    1       -6.315  -9.642   4.065  0.00  0.00    +0.100 A 
ATOM      7  C   LIG    1       -5.528  -8.556   4.378  0.00  0.00    -0.030 A 
ATOM      8  C   LIG    1       -5.380  -7.517   3.464  0.00  0.00    +0.180 A 
ATOM      9  C   LIG    1       -6.030  -7.569   2.235  0.00  0.00    +0.010 A 
ATOM     10  C   LIG    1       -6.813  -8.654   1.914  0.00  0.00    +0.070 A 
BRANCH   5  14
ATOM     11  N   LIG    1       -8.435 -10.916   1.299  0.00  0.00    -0.850 N 
ATOM     12  H   LIG    1       -8.990 -11.681   1.077  0.00  0.00    +0.410 HD
ATOM     13  H   LIG    1       -8.330 -10.192   0.663  0.00  0.00    +0.400 HD
ATOM     14  C   LIG    1       -7.809 -10.862   2.491  0.00  0.00    +0.570 C 
ATOM     15  O   LIG    1       -7.940 -11.771   3.288  0.00  0.00    -0.540 OA
ENDBRANCH   5  14
ENDBRANCH   1   8
BRANCH   3  16
ATOM     16  C   LIG    1       -3.123  -4.528   3.141  0.00  0.00    +0.060 C 
BRANCH  16  17
ATOM     17  C   LIG    1       -2.428  -4.016   1.878  0.00  0.00    +0.040 C 
BRANCH  17  18
ATOM     18  C   LIG    1       -1.650  -2.740   2.206  0.00  0.00    +0.020 C 
BRANCH  18  19
ATOM     19  C   LIG    1       -0.955  -2.227   0.943  0.00  0.00    +0.060 C 
BRANCH  19  20
ATOM     20  C   LIG    1       -0.178  -0.951   1.270  0.00  0.00    +0.060 C 
ATOM     21  S   LIG    1       -1.327   0.456   1.562  0.00  0.00    -0.250 S 
ATOM     22  C   LIG    1       -0.121   1.747   1.053  0.00  0.00    +0.130 C 
ATOM     23  C   LIG    1        0.667   1.051  -0.074  0.00  0.00    +0.230 C 
ATOM     24  N   LIG    1        2.094   1.388   0.053  0.00  0.00    -0.730 N 
ATOM     25  H   LIG    1        2.466   2.284   0.018  0.00  0.00    +0.430 HD
ATOM     26  C   LIG    1        2.797   0.260   0.222  0.00  0.00    +0.700 C 
ATOM     27  N   LIG    1        2.046  -0.850   0.233  0.00  0.00    -0.730 N 
ATOM     28  H   LIG    1        2.380  -1.754   0.344  0.00  0.00    +0.430 HD
ATOM     29  O   LIG    1        4.005   0.245   0.354  0.00  0.00    -0.580 OA
ATOM     30  C   LIG    1        0.635  -0.477   0.049  0.00  0.00    +0.230 C 
ENDBRANCH  19  20
ENDBRANCH  18  19
ENDBRANCH  17  18
ENDBRANCH  16  17
ENDBRANCH   3  16
TORSDOF 7
