REMARK  Name = ZINCvU000000071k.0
REMARK                            x       y       z     vdW  Elec       q    Type
REMARK                         _______ _______ _______ _____ _____    ______ ____
ROOT
ATOM      1  N   LIG    1       -1.122  -0.806   0.008  0.00  0.00    -0.500 N 
ATOM      2  C   LIG    1       -2.401  -0.377   0.029  0.00  0.00    +0.570 C 
ATOM      3  C   LIG    1       -3.321  -1.527   0.028  0.00  0.00    +0.090 A 
ATOM      4  C   LIG    1       -2.575  -2.672   0.011  0.00  0.00    -0.230 A 
ATOM      5  C   LIG    1       -3.216  -3.991   0.000  0.00  0.00    +0.460 A 
ATOM      6  C   LIG    1       -4.684  -3.937  -0.219  0.00  0.00    -0.210 A 
ATOM      7  C   LIG    1       -5.405  -5.106  -0.457  0.00  0.00    +0.120 A 
ATOM      8  C   LIG    1       -6.764  -5.036  -0.670  0.00  0.00    +0.000 A 
ATOM      9  C   LIG    1       -7.410  -3.808  -0.645  0.00  0.00    +0.100 A 
ATOM     10  C   LIG    1       -6.708  -2.647  -0.408  0.00  0.00    +0.020 A 
ATOM     11  C   LIG    1       -5.332  -2.692  -0.188  0.00  0.00    +0.140 A 
ATOM     12  O   LIG    1       -2.603  -5.032   0.156  0.00  0.00    -0.420 OA
ATOM     13  O   LIG    1       -4.668  -1.537   0.049  0.00  0.00    -0.180 OA
ATOM     14  O   LIG    1       -2.744   0.788   0.044  0.00  0.00    -0.450 OA
ATOM     15  C   LIG    1       -1.135  -2.278   0.001  0.00  0.00    +0.380 C 
ENDROOT
BRANCH  15  16
ATOM     16  C   LIG    1       -0.461  -2.797  -1.243  0.00  0.00    -0.090 A 
ATOM     17  C   LIG    1       -0.648  -2.152  -2.451  0.00  0.00    +0.030 A 
ATOM     18  C   LIG    1       -0.026  -2.625  -3.592  0.00  0.00    +0.030 A 
ATOM     19  C   LIG    1        0.775  -3.749  -3.526  0.00  0.00    +0.060 A 
ATOM     20  C   LIG    1        0.959  -4.398  -2.318  0.00  0.00    -0.090 A 
ATOM     21 BR   LIG    1        2.055  -5.936  -2.228  0.00  0.00    -0.040 Br
ATOM     22  C   LIG    1        0.340  -3.922  -1.177  0.00  0.00    +0.090 A 
ENDBRANCH  15  16
BRANCH   1  26
ATOM     23  C   LIG    1        1.740   1.742  -0.005  0.00  0.00    -0.380 A 
ATOM     24  C   LIG    1        2.186   0.443  -0.016  0.00  0.00    +0.200 A 
ATOM     25  N   LIG    1        1.228  -0.445  -0.012  0.00  0.00    -0.500 NA
ATOM     26  C   LIG    1        0.002  -0.004   0.002  0.00  0.00    +0.290 A 
ATOM     27  C   LIG    1        3.647   0.075  -0.031  0.00  0.00    +0.180 C 
ATOM     28  S   LIG    1       -0.021   1.705   0.011  0.00  0.00    +0.280 S 
BRANCH  23  30
ATOM     29  C   LIG    1        1.909   4.262   0.006  0.00  0.00    +0.070 C 
ATOM     30  C   LIG    1        2.547   2.897  -0.007  0.00  0.00    +0.430 C 
ATOM     31  O   LIG    1        3.758   2.792  -0.020  0.00  0.00    -0.450 OA
ENDBRANCH  23  30
ENDBRANCH   1  26
TORSDOF 3
