REMARK  Name = ZINCvU00000005P5.0
REMARK                            x       y       z     vdW  Elec       q    Type
REMARK                         _______ _______ _______ _____ _____    ______ ____
ROOT
ATOM      1  N   LIG    1       -5.883  -0.679   0.313  0.00  0.00    -0.670 N 
ATOM      2  H   LIG    1       -6.263  -1.560   0.463  0.00  0.00    +0.410 HD
ATOM      3  C   LIG    1       -6.692   0.389   0.170  0.00  0.00    +0.570 C 
ATOM      4  O   LIG    1       -6.216   1.503   0.067  0.00  0.00    -0.510 OA
ENDROOT
BRANCH   1   8
ATOM      5  C   LIG    1       -1.745  -0.201   0.117  0.00  0.00    -0.150 A 
ATOM      6  C   LIG    1       -2.533   0.790   0.690  0.00  0.00    +0.100 A 
ATOM      7  C   LIG    1       -3.903   0.634   0.749  0.00  0.00    +0.020 A 
ATOM      8  C   LIG    1       -4.493  -0.519   0.247  0.00  0.00    +0.180 A 
ATOM      9  C   LIG    1       -3.706  -1.512  -0.321  0.00  0.00    -0.020 A 
ATOM     10  C   LIG    1       -2.336  -1.354  -0.385  0.00  0.00    +0.100 A 
BRANCH   5  11
ATOM     11  S   LIG    1        0.003   0.001   0.035  0.00  0.00    +0.110 S 
BRANCH  11  17
ATOM     12  C   LIG    1       -2.137   2.097  -4.114  0.00  0.00    +0.140 C 
ATOM     13  C   LIG    1       -0.893   1.844  -3.303  0.00  0.00    +0.190 A 
ATOM     14  C   LIG    1        0.333   2.333  -3.728  0.00  0.00    -0.090 A 
ATOM     15  C   LIG    1        1.454   2.078  -2.953  0.00  0.00    +0.190 A 
ATOM     16  N   LIG    1        1.321   1.380  -1.837  0.00  0.00    -0.510 NA
ATOM     17  C   LIG    1        0.134   0.926  -1.459  0.00  0.00    +0.290 A 
ATOM     18  C   LIG    1        2.806   2.590  -3.375  0.00  0.00    +0.140 C 
ATOM     19  N   LIG    1       -0.956   1.148  -2.180  0.00  0.00    -0.520 NA
ENDBRANCH  11  17
ENDBRANCH   5  11
ENDBRANCH   1   8
BRANCH   3  20
ATOM     20  C   LIG    1       -8.156   0.206   0.137  0.00  0.00    -0.180 A 
ATOM     21  C   LIG    1       -8.705  -1.075   0.249  0.00  0.00    +0.090 A 
ATOM     22  C   LIG    1      -10.072  -1.241   0.222  0.00  0.00    -0.080 A 
ATOM     23  C   LIG    1      -10.905  -0.138   0.074  0.00  0.00    +0.170 A 
ATOM     24  C   LIG    1      -10.363   1.137  -0.043  0.00  0.00    -0.020 A 
ATOM     25  C   LIG    1       -8.997   1.312  -0.012  0.00  0.00    +0.140 A 
BRANCH  23  26
ATOM     26  O   LIG    1      -12.251  -0.306   0.043  0.00  0.00    -0.300 OA
BRANCH  26  27
ATOM     27  C   LIG    1      -12.741  -1.643   0.168  0.00  0.00    +0.210 C 
BRANCH  27  28
ATOM     28  C   LIG    1      -14.270  -1.633   0.111  0.00  0.00    +0.160 C 
ATOM     29  C   LIG    1      -14.819  -3.081   0.154  0.00  0.00    +0.020 C 
ATOM     30  C   LIG    1      -16.242  -2.839   0.730  0.00  0.00    +0.010 C 
ATOM     31  C   LIG    1      -16.011  -1.651   1.689  0.00  0.00    +0.190 C 
ATOM     32  O   LIG    1      -14.808  -0.991   1.278  0.00  0.00    -0.370 OA
ENDBRANCH  27  28
ENDBRANCH  26  27
ENDBRANCH  23  26
ENDBRANCH   3  20
TORSDOF 7
