REMARK  Name = ZINCvU00000004Oo.0
REMARK                            x       y       z     vdW  Elec       q    Type
REMARK                         _______ _______ _______ _____ _____    ______ ____
ROOT
ATOM      1  N   LIG    1       -3.332   2.210   3.377  0.00  0.00    -0.640 N 
ATOM      2  H   LIG    1       -4.213   2.343   2.993  0.00  0.00    +0.410 HD
ATOM      3  C   LIG    1       -3.176   2.195   4.715  0.00  0.00    +0.560 C 
ATOM      4  O   LIG    1       -2.089   1.932   5.199  0.00  0.00    -0.520 OA
ENDROOT
BRANCH   1   7
ATOM      5  C   LIG    1       -3.061  -0.014   1.281  0.00  0.00    +0.160 C 
ATOM      6  C   LIG    1       -2.061   1.067   1.602  0.00  0.00    +0.180 A 
ATOM      7  C   LIG    1       -2.217   2.033   2.536  0.00  0.00    -0.080 A 
ATOM      8  C   LIG    1       -1.012   2.864   2.504  0.00  0.00    +0.540 A 
ATOM      9  N   LIG    1       -0.202   2.345   1.558  0.00  0.00    -0.370 N 
ATOM     10  O   LIG    1       -0.785   3.838   3.199  0.00  0.00    -0.510 OA
ATOM     11  N   LIG    1       -0.842   1.233   1.000  0.00  0.00    -0.390 N 
ATOM     12  C   LIG    1       -0.298   0.385  -0.064  0.00  0.00    +0.350 C 
BRANCH   9  13
ATOM     13  C   LIG    1        1.058   2.834   1.200  0.00  0.00    +0.150 A 
ATOM     14  C   LIG    1        2.140   1.967   1.107  0.00  0.00    +0.000 A 
ATOM     15  C   LIG    1        3.382   2.452   0.748  0.00  0.00    +0.030 A 
ATOM     16  C   LIG    1        3.552   3.800   0.490  0.00  0.00    +0.010 A 
ATOM     17  C   LIG    1        2.478   4.666   0.586  0.00  0.00    +0.030 A 
ATOM     18  C   LIG    1        1.232   4.187   0.940  0.00  0.00    +0.030 A 
ENDBRANCH   9  13
ENDBRANCH   1   7
BRANCH   3  19
ATOM     19  C   LIG    1       -4.274   2.482   5.559  0.00  0.00    -0.110 C 
ATOM     20  C   LIG    1       -4.117   2.467   6.907  0.00  0.00    +0.180 C 
BRANCH  20  21
ATOM     21  C   LIG    1       -5.214   2.755   7.751  0.00  0.00    -0.190 A 
ATOM     22  C   LIG    1       -5.176   2.769   9.121  0.00  0.00    +0.060 A 
ATOM     23  C   LIG    1       -6.365   3.076   9.722  0.00  0.00    +0.030 A 
ATOM     24  C   LIG    1       -7.396   3.318   8.860  0.00  0.00    -0.150 A 
ATOM     25  S   LIG    1       -6.836   3.156   7.202  0.00  0.00    +0.170 S 
BRANCH  24  26
ATOM     26  C   LIG    1       -8.774   3.668   9.261  0.00  0.00    -0.060 A 
ATOM     27  C   LIG    1       -9.412   4.770   8.690  0.00  0.00    +0.060 A 
ATOM     28  C   LIG    1      -10.699   5.092   9.069  0.00  0.00    +0.010 A 
ATOM     29  C   LIG    1      -11.358   4.326  10.014  0.00  0.00    +0.060 A 
ATOM     30  C   LIG    1      -10.734   3.232  10.586  0.00  0.00    -0.010 A 
ATOM     31  C   LIG    1       -9.447   2.894  10.212  0.00  0.00    +0.120 A 
ATOM     32  F   LIG    1       -8.840   1.822  10.767  0.00  0.00    -0.130 F 
ENDBRANCH  24  26
ENDBRANCH  20  21
ENDBRANCH   3  19
TORSDOF 5
