REMARK  Name = ZINCpe000000YV0O.0
REMARK                            x       y       z     vdW  Elec       q    Type
REMARK                         _______ _______ _______ _____ _____    ______ ____
ROOT
ATOM      1  N   LIG    1       -1.190   1.869   0.035  0.00  0.00    -0.720 N 
ATOM      2  H   LIG    1       -1.204   2.839   0.052  0.00  0.00    +0.410 HD
ATOM      3  C   LIG    1       -0.014   1.212   0.009  0.00  0.00    +0.570 C 
ATOM      4  O   LIG    1        0.002  -0.004  -0.013  0.00  0.00    -0.540 OA
ENDROOT
BRANCH   3   5
ATOM      5  C   LIG    1        1.254   1.967   0.001  0.00  0.00    -0.170 A 
ATOM      6  C   LIG    1        1.237   3.364   0.020  0.00  0.00    +0.080 A 
ATOM      7  C   LIG    1        2.421   4.066   0.019  0.00  0.00    -0.010 A 
ATOM      8  C   LIG    1        3.634   3.385  -0.014  0.00  0.00    +0.200 A 
ATOM      9  C   LIG    1        3.655   1.994  -0.039  0.00  0.00    -0.040 A 
ATOM     10  C   LIG    1        2.474   1.286  -0.032  0.00  0.00    +0.110 A 
BRANCH   8  11
ATOM     11  N   LIG    1        4.832   4.099  -0.022  0.00  0.00    -0.560 N 
ATOM     12  C   LIG    1        6.162   3.485   0.068  0.00  0.00    +0.270 C 
ATOM     13  C   LIG    1        7.120   4.632   0.459  0.00  0.00    +0.060 C 
ATOM     14  C   LIG    1        6.367   5.870  -0.081  0.00  0.00    +0.070 C 
ATOM     15  C   LIG    1        4.918   5.437  -0.118  0.00  0.00    +0.520 C 
ATOM     16  O   LIG    1        3.970   6.188  -0.217  0.00  0.00    -0.500 OA
ENDBRANCH   8  11
ENDBRANCH   3   5
BRANCH   1  17
ATOM     17  C   LIG    1       -2.449   1.120   0.036  0.00  0.00    +0.300 C 
BRANCH  17  19
ATOM     18  O   LIG    1       -3.402   3.279   0.086  0.00  0.00    -0.540 OA
ATOM     19  C   LIG    1       -3.607   2.083   0.068  0.00  0.00    +0.510 C 
ATOM     20  N   LIG    1       -4.872   1.617   0.075  0.00  0.00    -0.720 N 
ATOM     21  H   LIG    1       -5.036   0.661   0.060  0.00  0.00    +0.410 HD
BRANCH  20  22
ATOM     22  C   LIG    1       -5.998   2.554   0.105  0.00  0.00    +0.260 C 
BRANCH  22  23
ATOM     23  C   LIG    1       -7.313   1.771   0.107  0.00  0.00    +0.160 C 
ATOM     24  C   LIG    1       -8.505   2.748   0.022  0.00  0.00    +0.020 C 
ATOM     25  C   LIG    1       -9.534   2.097   0.985  0.00  0.00    +0.010 C 
ATOM     26  C   LIG    1       -8.593   1.492   2.057  0.00  0.00    +0.200 C 
ATOM     27  O   LIG    1       -7.440   1.038   1.331  0.00  0.00    -0.380 OA
ENDBRANCH  22  23
ENDBRANCH  20  22
ENDBRANCH  17  19
ENDBRANCH   1  17
TORSDOF 6
