REMARK  Name = ZINCrD0000074nVd.0
REMARK                            x       y       z     vdW  Elec       q    Type
REMARK                         _______ _______ _______ _____ _____    ______ ____
ROOT
ATOM      1  C   LIG    1        7.202   1.535  -0.303  0.00  0.00    +0.550 C 
ATOM      2  O   LIG    1        7.378   0.338  -0.188  0.00  0.00    -0.510 OA
ENDROOT
BRANCH   1   6
ATOM      3  N   LIG    1       10.403   3.194  -0.779  0.00  0.00    -0.370 N 
ATOM      4  C   LIG    1        9.586   4.290  -0.824  0.00  0.00    +0.030 A 
ATOM      5  C   LIG    1        8.313   3.890  -0.663  0.00  0.00    +0.030 A 
ATOM      6  C   LIG    1        8.350   2.431  -0.507  0.00  0.00    -0.210 A 
ATOM      7  C   LIG    1       10.039   5.714  -1.022  0.00  0.00    +0.150 C 
ATOM      8  C   LIG    1        9.668   2.073  -0.583  0.00  0.00    +0.140 A 
ATOM      9  C   LIG    1       10.210   0.671  -0.472  0.00  0.00    +0.170 C 
BRANCH   3  13
ATOM     10  C   LIG    1       15.118   2.261  -2.117  0.00  0.00    +0.210 C 
ATOM     11  C   LIG    1       13.857   2.813  -1.503  0.00  0.00    -0.010 A 
ATOM     12  C   LIG    1       12.594   2.380  -1.724  0.00  0.00    -0.050 A 
ATOM     13  C   LIG    1       11.795   3.227  -0.912  0.00  0.00    +0.220 A 
ATOM     14  N   LIG    1       12.620   4.048  -0.317  0.00  0.00    -0.350 NA
ATOM     15  O   LIG    1       13.767   3.827  -0.631  0.00  0.00    +0.120 OA
ENDBRANCH   3  13
ENDBRANCH   1   6
BRANCH   1  16
ATOM     16  O   LIG    1        5.954   2.041  -0.245  0.00  0.00    -0.320 OA
BRANCH  16  17
ATOM     17  C   LIG    1        4.869   1.098  -0.042  0.00  0.00    +0.270 C 
BRANCH  17  18
ATOM     18  C   LIG    1        3.558   1.841  -0.003  0.00  0.00    +0.520 C 
ATOM     19  N   LIG    1        2.406   1.165   0.177  0.00  0.00    -0.670 N 
ATOM     20  H   LIG    1        2.425   0.211   0.352  0.00  0.00    +0.420 HD
ATOM     21  O   LIG    1        3.540   3.046  -0.134  0.00  0.00    -0.490 OA
BRANCH  19  22
ATOM     22  C   LIG    1        1.181   1.841   0.111  0.00  0.00    +0.130 A 
ATOM     23  C   LIG    1        0.068   1.210  -0.428  0.00  0.00    +0.030 A 
ATOM     24  C   LIG    1       -1.138   1.879  -0.498  0.00  0.00    +0.010 A 
ATOM     25  C   LIG    1       -1.240   3.175  -0.021  0.00  0.00    +0.090 A 
ATOM     26  C   LIG    1       -0.131   3.806   0.517  0.00  0.00    +0.010 A 
ATOM     27  F   LIG    1       -2.422   3.827  -0.086  0.00  0.00    -0.140 F 
ATOM     28  C   LIG    1        1.078   3.142   0.584  0.00  0.00    +0.060 A 
ENDBRANCH  19  22
ENDBRANCH  17  18
ENDBRANCH  16  17
ENDBRANCH   1  16
TORSDOF 6
