REMARK  Name = ZINCpk00000KfKJ5.0
REMARK                            x       y       z     vdW  Elec       q    Type
REMARK                         _______ _______ _______ _____ _____    ______ ____
ROOT
ATOM      1  C   LIG    1        5.719   1.806   1.769  0.00  0.00    +0.280 C 
ATOM      2  C   LIG    1        4.739   1.032   0.884  0.00  0.00    +0.200 C 
ATOM      3  N   LIG    1        3.444   1.728   0.869  0.00  0.00    -0.510 NA
ATOM      4  C   LIG    1        2.904   1.852   2.230  0.00  0.00    +0.160 C 
ATOM      5  C   LIG    1        3.902   2.619   3.102  0.00  0.00    +0.240 C 
ATOM      6  O   LIG    1        5.163   1.944   3.079  0.00  0.00    -0.370 OA
ENDROOT
BRANCH   1  10
ATOM      7  C   LIG    1        9.121   0.529   1.770  0.00  0.00    +0.190 A 
ATOM      8  N   LIG    1        8.425  -0.498   2.175  0.00  0.00    -0.290 NA
ATOM      9  N   LIG    1        7.179  -0.185   2.223  0.00  0.00    -0.260 NA
ATOM     10  C   LIG    1        7.023   1.056   1.852  0.00  0.00    +0.180 A 
ATOM     11  N   LIG    1        8.251   1.543   1.548  0.00  0.00    -0.570 N 
ATOM     12  H   LIG    1        8.463   2.437   1.238  0.00  0.00    +0.430 HD
BRANCH   7  13
ATOM     13  C   LIG    1       10.615   0.577   1.579  0.00  0.00    +0.150 C 
BRANCH  13  15
ATOM     14  C   LIG    1       12.826   0.203   2.682  0.00  0.00    +0.020 C 
ATOM     15  C   LIG    1       11.309   0.155   2.876  0.00  0.00    +0.020 C 
ENDBRANCH  13  15
ENDBRANCH   7  13
ENDBRANCH   1  10
BRANCH   3  16
ATOM     16  C   LIG    1        2.490   1.046  -0.016  0.00  0.00    +0.190 C 
BRANCH  16  17
ATOM     17  C   LIG    1        1.175   1.783   0.000  0.00  0.00    -0.100 A 
ATOM     18  C   LIG    1       -0.013   1.076   0.008  0.00  0.00    +0.060 A 
ATOM     19  C   LIG    1       -1.219   1.750   0.017  0.00  0.00    -0.010 A 
ATOM     20  C   LIG    1       -1.237   3.135   0.030  0.00  0.00    +0.110 A 
ATOM     21  C   LIG    1       -0.047   3.842   0.023  0.00  0.00    -0.010 A 
ATOM     22  F   LIG    1       -2.416   3.795   0.045  0.00  0.00    -0.140 F 
ATOM     23  C   LIG    1        1.158   3.165   0.009  0.00  0.00    +0.080 A 
ENDBRANCH  16  17
BRANCH  16  24
ATOM     24  C   LIG    1        3.035   1.024  -1.421  0.00  0.00    +0.530 C 
ATOM     25  O   LIG    1        4.113   1.526  -1.661  0.00  0.00    -0.520 OA
ATOM     26  N   LIG    1        2.326   0.445  -2.410  0.00  0.00    -0.850 N 
ATOM     27  H   LIG    1        2.677   0.431  -3.314  0.00  0.00    +0.410 HD
ATOM     28  H   LIG    1        1.464   0.044  -2.218  0.00  0.00    +0.400 HD
ENDBRANCH  16  24
ENDBRANCH   3  16
TORSDOF 6
