REMARK  Name = ZINCpk00000KfKJ5.1
REMARK                            x       y       z     vdW  Elec       q    Type
REMARK                         _______ _______ _______ _____ _____    ______ ____
ROOT
ATOM      1  C   LIG    1        3.559   0.806  -0.029  0.00  0.00    +0.300 C 
ATOM      2  C   LIG    1        4.104   0.454   1.358  0.00  0.00    +0.180 C 
ATOM      3  N   LIG    1        5.574   0.461   1.317  0.00  0.00    -0.510 NA
ATOM      4  C   LIG    1        6.072  -0.498   0.321  0.00  0.00    +0.150 C 
ATOM      5  C   LIG    1        5.508  -0.136  -1.055  0.00  0.00    +0.250 C 
ATOM      6  O   LIG    1        4.079  -0.118  -0.989  0.00  0.00    -0.370 OA
ENDROOT
BRANCH   1   9
ATOM      7  C   LIG    1       -0.016   1.340   0.009  0.00  0.00    +0.290 A 
ATOM      8  N   LIG    1        1.222   1.763  -0.000  0.00  0.00    -0.520 NA
ATOM      9  C   LIG    1        2.055   0.723  -0.014  0.00  0.00    +0.230 A 
ATOM     10  N   LIG    1        1.355  -0.381  -0.013  0.00  0.00    -0.290 NA
ATOM     11  N   LIG    1        0.002  -0.004   0.002  0.00  0.00    -0.480 N 
ATOM     12  H   LIG    1       -0.766  -0.596   0.007  0.00  0.00    +0.440 HD
BRANCH   7  13
ATOM     13  C   LIG    1       -1.248   2.208   0.020  0.00  0.00    +0.160 C 
BRANCH  13  15
ATOM     14  C   LIG    1       -2.980   3.274   1.472  0.00  0.00    +0.030 C 
ATOM     15  C   LIG    1       -1.730   2.392   1.461  0.00  0.00    +0.010 C 
ENDBRANCH  13  15
ENDBRANCH   7  13
ENDBRANCH   1   9
BRANCH   3  16
ATOM     16  C   LIG    1        6.139   0.183   2.645  0.00  0.00    +0.190 C 
BRANCH  16  17
ATOM     17  C   LIG    1        7.644   0.199   2.564  0.00  0.00    -0.100 A 
ATOM     18  C   LIG    1        8.283   1.144   1.783  0.00  0.00    +0.090 A 
ATOM     19  C   LIG    1        9.663   1.162   1.712  0.00  0.00    -0.010 A 
ATOM     20  C   LIG    1       10.405   0.227   2.415  0.00  0.00    +0.110 A 
ATOM     21  C   LIG    1        9.763  -0.722   3.192  0.00  0.00    -0.010 A 
ATOM     22  F   LIG    1       11.754   0.241   2.342  0.00  0.00    -0.140 F 
ATOM     23  C   LIG    1        8.383  -0.735   3.266  0.00  0.00    +0.050 A 
ENDBRANCH  16  17
BRANCH  16  24
ATOM     24  C   LIG    1        5.677   1.237   3.618  0.00  0.00    +0.530 C 
ATOM     25  O   LIG    1        4.949   2.131   3.243  0.00  0.00    -0.510 OA
ATOM     26  N   LIG    1        6.073   1.185   4.905  0.00  0.00    -0.850 N 
ATOM     27  H   LIG    1        5.776   1.863   5.532  0.00  0.00    +0.410 HD
ATOM     28  H   LIG    1        6.655   0.469   5.205  0.00  0.00    +0.400 HD
ENDBRANCH  16  24
ENDBRANCH   3  16
TORSDOF 6
