REMARK  Name = ZINCpk00000KfKJ5.2
REMARK                            x       y       z     vdW  Elec       q    Type
REMARK                         _______ _______ _______ _____ _____    ______ ____
ROOT
ATOM      1  C   LIG    1       -1.519   1.127   0.863  0.00  0.00    +0.270 C 
ATOM      2  C   LIG    1       -2.518   0.601   1.898  0.00  0.00    +0.190 C 
ATOM      3  N   LIG    1       -3.244  -0.544   1.333  0.00  0.00    -0.510 NA
ATOM      4  C   LIG    1       -3.949  -0.159   0.101  0.00  0.00    +0.160 C 
ATOM      5  C   LIG    1       -2.935   0.373  -0.915  0.00  0.00    +0.250 C 
ATOM      6  O   LIG    1       -2.217   1.467  -0.337  0.00  0.00    -0.370 OA
ENDROOT
BRANCH   1  11
ATOM      7  C   LIG    1       -0.499   4.309   2.257  0.00  0.00    +0.230 A 
ATOM      8  N   LIG    1        0.690   3.800   2.069  0.00  0.00    -0.300 NA
ATOM      9  N   LIG    1        0.501   2.523   1.515  0.00  0.00    -0.470 N 
ATOM     10  H   LIG    1        1.192   1.892   1.261  0.00  0.00    +0.440 HD
ATOM     11  C   LIG    1       -0.828   2.350   1.407  0.00  0.00    +0.290 A 
ATOM     12  N   LIG    1       -1.415   3.429   1.856  0.00  0.00    -0.510 NA
BRANCH   7  13
ATOM     13  C   LIG    1       -0.787   5.671   2.836  0.00  0.00    +0.150 C 
BRANCH  13  15
ATOM     14  C   LIG    1       -1.211   6.945   4.943  0.00  0.00    +0.030 C 
ATOM     15  C   LIG    1       -0.918   5.562   4.356  0.00  0.00    +0.010 C 
ENDBRANCH  13  15
ENDBRANCH   7  13
ENDBRANCH   1  11
BRANCH   3  16
ATOM     16  C   LIG    1       -4.176  -1.115   2.315  0.00  0.00    +0.190 C 
BRANCH  16  17
ATOM     17  C   LIG    1       -4.819  -2.350   1.740  0.00  0.00    -0.100 A 
ATOM     18  C   LIG    1       -4.045  -3.293   1.090  0.00  0.00    +0.100 A 
ATOM     19  C   LIG    1       -4.633  -4.428   0.566  0.00  0.00    -0.020 A 
ATOM     20  C   LIG    1       -6.000  -4.617   0.684  0.00  0.00    +0.110 A 
ATOM     21  C   LIG    1       -6.775  -3.669   1.331  0.00  0.00    -0.020 A 
ATOM     22  F   LIG    1       -6.577  -5.724   0.168  0.00  0.00    -0.140 F 
ATOM     23  C   LIG    1       -6.184  -2.537   1.858  0.00  0.00    +0.050 A 
ENDBRANCH  16  17
BRANCH  16  24
ATOM     24  C   LIG    1       -3.422  -1.478   3.569  0.00  0.00    +0.530 C 
ATOM     25  O   LIG    1       -2.249  -1.779   3.506  0.00  0.00    -0.520 OA
ATOM     26  N   LIG    1       -4.052  -1.468   4.761  0.00  0.00    -0.850 N 
ATOM     27  H   LIG    1       -3.568  -1.701   5.567  0.00  0.00    +0.410 HD
ATOM     28  H   LIG    1       -4.991  -1.226   4.811  0.00  0.00    +0.400 HD
ENDBRANCH  16  24
ENDBRANCH   3  16
TORSDOF 6
