REMARK  Name = ZINCvU0000000JWe.0
REMARK                            x       y       z     vdW  Elec       q    Type
REMARK                         _______ _______ _______ _____ _____    ______ ____
ROOT
ATOM      1  N   LIG    1       -2.395   4.057  -0.593  0.00  0.00    -0.650 N 
ATOM      2  H   LIG    1       -3.161   3.769  -1.113  0.00  0.00    +0.420 HD
ATOM      3  C   LIG    1       -2.469   5.177   0.152  0.00  0.00    +0.560 C 
ATOM      4  O   LIG    1       -1.479   5.597   0.719  0.00  0.00    -0.490 OA
ENDROOT
BRANCH   3   5
ATOM      5  C   LIG    1       -3.755   5.896   0.281  0.00  0.00    +0.000 A 
ATOM      6  C   LIG    1       -3.801   7.310   0.299  0.00  0.00    -0.180 A 
ATOM      7  C   LIG    1       -2.820   8.318   0.203  0.00  0.00    +0.120 A 
ATOM      8  N   LIG    1       -3.409   9.479   0.266  0.00  0.00    -0.230 NA
ATOM      9  N   LIG    1       -4.791   9.302   0.400  0.00  0.00    -0.390 N 
ATOM     10  C   LIG    1       -5.788  10.370   0.502  0.00  0.00    +0.370 C 
ATOM     11  C   LIG    1       -1.337   8.091   0.058  0.00  0.00    +0.170 C 
ATOM     12  C   LIG    1       -5.049   7.955   0.418  0.00  0.00    +0.330 A 
ATOM     13  N   LIG    1       -6.162   7.245   0.522  0.00  0.00    -0.470 NA
ATOM     14  C   LIG    1       -6.151   5.920   0.514  0.00  0.00    +0.280 A 
ATOM     15  C   LIG    1       -4.954   5.203   0.394  0.00  0.00    -0.020 A 
BRANCH  14  16
ATOM     16  C   LIG    1       -7.425   5.186   0.634  0.00  0.00    +0.000 A 
ATOM     17  C   LIG    1       -8.660   5.743   0.762  0.00  0.00    +0.030 A 
ATOM     18  C   LIG    1       -9.579   4.680   0.840  0.00  0.00    -0.060 A 
ATOM     19  C   LIG    1       -8.868   3.536   0.766  0.00  0.00    +0.200 A 
ATOM     20  O   LIG    1       -7.568   3.846   0.641  0.00  0.00    -0.170 OA
ENDBRANCH  14  16
ENDBRANCH   3   5
BRANCH   1  26
ATOM     21  C   LIG    1       -0.969   2.417  -1.661  0.00  0.00    +0.090 A 
ATOM     22  C   LIG    1        0.201   1.677  -1.677  0.00  0.00    -0.050 A 
ATOM     23  C   LIG    1        1.131   1.831  -0.665  0.00  0.00    +0.030 A 
ATOM     24  C   LIG    1        0.895   2.721   0.366  0.00  0.00    -0.080 A 
ATOM     25  C   LIG    1       -0.273   3.460   0.393  0.00  0.00    +0.060 A 
ATOM     26  C   LIG    1       -1.211   3.310  -0.618  0.00  0.00    +0.120 A 
BRANCH  24  27
ATOM     27  C   LIG    1        1.914   2.885   1.465  0.00  0.00    -0.020 C 
ATOM     28  C   LIG    1        1.277   2.525   2.808  0.00  0.00    +0.040 C 
ATOM     29  C   LIG    1        2.395   4.337   1.501  0.00  0.00    +0.040 C 
ATOM     30  C   LIG    1        3.103   1.960   1.200  0.00  0.00    +0.030 C 
ENDBRANCH  24  27
BRANCH  21  32
ATOM     31  C   LIG    1       -1.571   1.333  -3.690  0.00  0.00    +0.250 C 
ATOM     32  O   LIG    1       -1.883   2.270  -2.657  0.00  0.00    -0.320 OA
ENDBRANCH  21  32
ENDBRANCH   1  26
TORSDOF 5
