REMARK  Name = ZINCnE000001TyE3.0
REMARK                            x       y       z     vdW  Elec       q    Type
REMARK                         _______ _______ _______ _____ _____    ______ ____
ROOT
ATOM      1  C   LIG    1        1.207   3.111  -1.142  0.00  0.00    -0.030 C 
ATOM      2  C   LIG    1       -0.054   3.970  -1.033  0.00  0.00    +0.030 C 
ATOM      3  C   LIG    1       -1.293   3.077  -1.133  0.00  0.00    +0.010 C 
ATOM      4  C   LIG    1       -1.290   2.075   0.020  0.00  0.00    +0.250 C 
ATOM      5  N   LIG    1       -0.016   1.343   0.015  0.00  0.00    -0.600 N 
ATOM      6  C   LIG    1        0.002  -0.004   0.002  0.00  0.00    +0.540 C 
ATOM      7  O   LIG    1        1.058  -0.597  -0.108  0.00  0.00    -0.510 OA
ATOM      8  C   LIG    1        1.239   2.109   0.016  0.00  0.00    +0.280 C 
ENDROOT
BRANCH   6   9
ATOM      9  C   LIG    1       -1.262  -0.761   0.122  0.00  0.00    -0.070 A 
ATOM     10  C   LIG    1       -2.119  -0.530   1.199  0.00  0.00    +0.050 A 
ATOM     11  C   LIG    1       -3.299  -1.236   1.302  0.00  0.00    +0.050 A 
ATOM     12  C   LIG    1       -3.630  -2.180   0.346  0.00  0.00    +0.030 A 
ATOM     13  C   LIG    1       -2.783  -2.418  -0.722  0.00  0.00    +0.060 A 
ATOM     14  C   LIG    1       -1.602  -1.715  -0.840  0.00  0.00    -0.140 A 
BRANCH  14  15
ATOM     15  C   LIG    1       -0.680  -1.976  -2.003  0.00  0.00    +0.500 C 
ATOM     16  F   LIG    1        0.563  -2.406  -1.526  0.00  0.00    -0.150 F 
ATOM     17  F   LIG    1       -0.515  -0.798  -2.740  0.00  0.00    -0.170 F 
ATOM     18  F   LIG    1       -1.233  -2.966  -2.823  0.00  0.00    -0.180 F 
ENDBRANCH  14  15
ENDBRANCH   6   9
BRANCH   1  19
ATOM     19  C   LIG    1        2.444   4.008  -1.076  0.00  0.00    +0.040 C 
BRANCH  19  20
ATOM     20  C   LIG    1        3.699   3.164  -1.305  0.00  0.00    -0.070 C 
BRANCH  20  22
ATOM     21  O   LIG    1        4.794   5.242  -1.029  0.00  0.00    -0.700 OA
ATOM     22  C   LIG    1        4.918   4.048  -1.240  0.00  0.00    +0.490 C 
ATOM     23  O   LIG    1        6.028   3.568  -1.397  0.00  0.00    -0.710 OA
ENDBRANCH  20  22
ENDBRANCH  19  20
ENDBRANCH   1  19
TORSDOF 5
