REMARK  Name = ZINCrD000000ACrP.0
REMARK                            x       y       z     vdW  Elec       q    Type
REMARK                         _______ _______ _______ _____ _____    ______ ____
ROOT
ATOM      1  C   LIG    1        8.437   0.996   1.656  0.00  0.00    +0.160 C 
ENDROOT
BRANCH   1   2
ATOM      2  C   LIG    1        9.431   0.086   2.330  0.00  0.00    +0.110 A 
ATOM      3  C   LIG    1       10.528  -0.364   1.717  0.00  0.00    -0.130 A 
ATOM      4  S   LIG    1       11.407  -1.385   2.852  0.00  0.00    +0.250 S 
ATOM      5  C   LIG    1       10.208  -1.116   4.040  0.00  0.00    +0.240 A 
ATOM      6  N   LIG    1        9.285  -0.335   3.572  0.00  0.00    -0.480 NA
BRANCH   5   7
ATOM      7  N   LIG    1       10.222  -1.654   5.320  0.00  0.00    -0.610 N 
ATOM      8  H   LIG    1        9.503  -1.452   5.939  0.00  0.00    +0.430 HD
ATOM      9  C   LIG    1       11.235  -2.456   5.703  0.00  0.00    +0.610 C 
ATOM     10  O   LIG    1       12.138  -2.709   4.927  0.00  0.00    -0.490 OA
BRANCH   9  11
ATOM     11  C   LIG    1       11.250  -3.024   7.055  0.00  0.00    -0.090 A 
ATOM     12  C   LIG    1       12.210  -3.847   7.569  0.00  0.00    +0.070 A 
ATOM     13  C   LIG    1       11.824  -4.145   8.885  0.00  0.00    -0.070 A 
ATOM     14  C   LIG    1       10.659  -3.499   9.114  0.00  0.00    +0.230 A 
ATOM     15  O   LIG    1       10.319  -2.820   8.010  0.00  0.00    -0.160 OA
ENDBRANCH   9  11
ENDBRANCH   5   7
ENDBRANCH   1   2
BRANCH   1  17
ATOM     16  O   LIG    1        6.908  -0.694   2.268  0.00  0.00    -0.520 OA
ATOM     17  C   LIG    1        7.064   0.379   1.725  0.00  0.00    +0.520 C 
ATOM     18  N   LIG    1        6.009   1.020   1.184  0.00  0.00    -0.730 N 
ATOM     19  H   LIG    1        6.134   1.878   0.749  0.00  0.00    +0.400 HD
BRANCH  18  20
ATOM     20  C   LIG    1        4.674   0.420   1.251  0.00  0.00    +0.260 C 
BRANCH  20  21
ATOM     21  C   LIG    1        3.665   1.344   0.567  0.00  0.00    +0.030 C 
BRANCH  21  22
ATOM     22  C   LIG    1        2.271   0.718   0.637  0.00  0.00    +0.170 C 
BRANCH  22  23
ATOM     23  O   LIG    1        1.328   1.580  -0.002  0.00  0.00    -0.380 OA
BRANCH  23  24
ATOM     24  C   LIG    1       -0.013   1.086   0.008  0.00  0.00    +0.150 C 
ATOM     25  C   LIG    1       -0.729   1.579   1.267  0.00  0.00    -0.010 C 
ATOM     26  C   LIG    1       -2.164   1.050   1.278  0.00  0.00    +0.010 C 
ATOM     27  C   LIG    1       -2.904   1.556   0.038  0.00  0.00    +0.000 C 
ATOM     28  C   LIG    1       -2.188   1.063  -1.221  0.00  0.00    +0.010 C 
ATOM     29  C   LIG    1       -0.753   1.593  -1.232  0.00  0.00    +0.020 C 
ENDBRANCH  23  24
ENDBRANCH  22  23
ENDBRANCH  21  22
ENDBRANCH  20  21
ENDBRANCH  18  20
ENDBRANCH   1  17
TORSDOF 9
