REMARK  Name = ZINCkj00000dDzMw.0
REMARK                            x       y       z     vdW  Elec       q    Type
REMARK                         _______ _______ _______ _____ _____    ______ ____
ROOT
ATOM      1  N   LIG    1       -0.698   1.558   1.213  0.00  0.00    -0.590 N 
ATOM      2  C   LIG    1       -1.675   0.814   1.769  0.00  0.00    +0.500 C 
ATOM      3  O   LIG    1       -1.986  -0.248   1.271  0.00  0.00    -0.510 OA
ATOM      4  C   LIG    1       -0.323   2.840   1.815  0.00  0.00    +0.300 C 
ENDROOT
BRANCH   2   5
ATOM      5  C   LIG    1       -2.380   1.300   3.009  0.00  0.00    +0.180 C 
ATOM      6  C   LIG    1       -3.451   2.340   2.630  0.00  0.00    +0.090 C 
ATOM      7  C   LIG    1       -4.786   1.748   3.137  0.00  0.00    +0.210 C 
ATOM      8  C   LIG    1       -4.329   0.748   4.229  0.00  0.00    +0.280 C 
ATOM      9  F   LIG    1       -5.593   2.748   3.688  0.00  0.00    -0.170 F 
ATOM     10  N   LIG    1       -3.081   0.174   3.663  0.00  0.00    -0.500 N 
ATOM     11  H   LIG    1       -2.510  -0.210   4.401  0.00  0.00    +0.440 HD
ATOM     12  H   LIG    1       -3.303  -0.540   2.985  0.00  0.00    +0.440 HD
ENDBRANCH   2   5
BRANCH   1  13
ATOM     13  C   LIG    1       -0.013   1.086   0.008  0.00  0.00    +0.310 C 
BRANCH  13  14
ATOM     14  C   LIG    1       -0.753   1.593  -1.232  0.00  0.00    +0.070 C 
BRANCH  14  20
ATOM     15  C   LIG    1       -0.329  -0.152  -2.982  0.00  0.00    +0.130 A 
ATOM     16  C   LIG    1        0.322  -0.597  -4.124  0.00  0.00    -0.080 A 
ATOM     17  C   LIG    1        1.248   0.215  -4.750  0.00  0.00    +0.060 A 
ATOM     18  C   LIG    1        1.527   1.469  -4.239  0.00  0.00    -0.020 A 
ATOM     19  C   LIG    1        0.876   1.916  -3.104  0.00  0.00    +0.050 A 
ATOM     20  C   LIG    1       -0.047   1.107  -2.471  0.00  0.00    -0.130 A 
BRANCH  15  22
ATOM     21  C   LIG    1       -1.480  -2.232  -2.946  0.00  0.00    +0.250 C 
ATOM     22  O   LIG    1       -1.241  -0.949  -2.365  0.00  0.00    -0.310 OA
ENDBRANCH  15  22
ENDBRANCH  14  20
ENDBRANCH  13  14
ENDBRANCH   1  13
TORSDOF 5
