REMARK  Name = ZINCpk00000xIeYU.0
REMARK                            x       y       z     vdW  Elec       q    Type
REMARK                         _______ _______ _______ _____ _____    ______ ____
ROOT
ATOM      1  C   LIG    1        7.420  -0.401   0.257  0.00  0.00    -0.450 A 
ATOM      2  C   LIG    1        8.479  -1.251  -0.109  0.00  0.00    +0.560 A 
ATOM      3  N   LIG    1        9.683  -0.701  -0.443  0.00  0.00    -0.520 N 
ATOM      4  C   LIG    1        9.874   0.627  -0.416  0.00  0.00    +0.710 A 
ATOM      5  N   LIG    1        8.903   1.488  -0.070  0.00  0.00    -0.660 N 
ATOM      6  H   LIG    1        9.087   2.440  -0.065  0.00  0.00    +0.440 HD
ATOM      7  O   LIG    1       10.966   1.068  -0.718  0.00  0.00    -0.520 OA
ATOM      8  C   LIG    1        7.676   1.045   0.272  0.00  0.00    +0.580 A 
ATOM      9  O   LIG    1        6.798   1.827   0.585  0.00  0.00    -0.500 OA
ENDROOT
BRANCH   3  10
ATOM     10  C   LIG    1       10.790  -1.578  -0.832  0.00  0.00    +0.170 C 
ATOM     11  C   LIG    1       11.576  -1.208  -2.091  0.00  0.00    +0.100 C 
ATOM     12  C   LIG    1       10.622  -2.405  -2.108  0.00  0.00    +0.060 C 
ENDBRANCH   3  10
BRANCH   2  13
ATOM     13  N   LIG    1        8.304  -2.600  -0.136  0.00  0.00    -0.800 N 
ATOM     14  H   LIG    1        9.062  -3.190  -0.001  0.00  0.00    +0.410 HD
ATOM     15  H   LIG    1        7.421  -2.972  -0.290  0.00  0.00    +0.440 HD
ENDBRANCH   2  13
BRANCH   1  16
ATOM     16  C   LIG    1        6.155  -0.921   0.604  0.00  0.00    +0.440 C 
ATOM     17  O   LIG    1        5.929  -2.107   0.473  0.00  0.00    -0.500 OA
BRANCH  16  18
ATOM     18  C   LIG    1        5.085  -0.005   1.138  0.00  0.00    +0.300 C 
BRANCH  18  19
ATOM     19  N   LIG    1        3.875  -0.780   1.422  0.00  0.00    -0.740 N 
ATOM     20  H   LIG    1        3.862  -1.736   1.257  0.00  0.00    +0.410 HD
BRANCH  19  24
ATOM     21  C   LIG    1        0.488   1.122   2.934  0.00  0.00    +0.080 A 
ATOM     22  C   LIG    1        1.633   1.856   2.666  0.00  0.00    -0.010 A 
ATOM     23  C   LIG    1        2.756   1.226   2.165  0.00  0.00    -0.020 A 
ATOM     24  C   LIG    1        2.738  -0.142   1.930  0.00  0.00    +0.200 A 
ATOM     25  C   LIG    1        1.590  -0.877   2.199  0.00  0.00    -0.010 A 
ATOM     26  C   LIG    1        0.468  -0.246   2.700  0.00  0.00    -0.020 A 
ATOM     27 CL   LIG    1       -0.967  -1.164   3.035  0.00  0.00    -0.060 Cl
BRANCH  21  29
ATOM     28  C   LIG    1       -0.529   3.154   3.640  0.00  0.00    +0.230 C 
ATOM     29  O   LIG    1       -0.619   1.744   3.422  0.00  0.00    -0.310 OA
ENDBRANCH  21  29
ENDBRANCH  19  24
ENDBRANCH  18  19
ENDBRANCH  16  18
ENDBRANCH   1  16
TORSDOF 7
