REMARK  Name = ZINCrD000000ApHt.0
REMARK                            x       y       z     vdW  Elec       q    Type
REMARK                         _______ _______ _______ _____ _____    ______ ____
ROOT
ATOM      1  O   LIG    1        6.412  -1.047   1.934  0.00  0.00    -0.490 OA
ATOM      2  C   LIG    1        5.966  -0.570   2.956  0.00  0.00    +0.520 C 
ATOM      3  N   LIG    1        6.612  -0.754   4.124  0.00  0.00    -0.670 N 
ATOM      4  H   LIG    1        6.216  -0.441   4.952  0.00  0.00    +0.420 HD
ENDROOT
BRANCH   3   5
ATOM      5  C   LIG    1        7.855  -1.396   4.142  0.00  0.00    +0.180 A 
ATOM      6  C   LIG    1        8.216  -2.182   5.228  0.00  0.00    -0.010 A 
ATOM      7  C   LIG    1        9.442  -2.818   5.241  0.00  0.00    +0.090 A 
ATOM      8  C   LIG    1       10.314  -2.666   4.178  0.00  0.00    -0.200 A 
ATOM      9  C   LIG    1        9.959  -1.880   3.097  0.00  0.00    +0.090 A 
ATOM     10  C   LIG    1        8.732  -1.245   3.076  0.00  0.00    +0.030 A 
BRANCH   8  11
ATOM     11  C   LIG    1       11.652  -3.357   4.198  0.00  0.00    +0.510 C 
ATOM     12  F   LIG    1       12.045  -3.650   2.888  0.00  0.00    -0.180 F 
ATOM     13  F   LIG    1       11.553  -4.544   4.932  0.00  0.00    -0.180 F 
ATOM     14  F   LIG    1       12.601  -2.519   4.793  0.00  0.00    -0.180 F 
ENDBRANCH   8  11
ENDBRANCH   3   5
BRANCH   2  15
ATOM     15  C   LIG    1        4.688   0.227   2.919  0.00  0.00    +0.270 C 
BRANCH  15  16
ATOM     16  O   LIG    1        4.189   0.281   1.557  0.00  0.00    -0.320 OA
BRANCH  16  17
ATOM     17  C   LIG    1        3.049   0.959   1.351  0.00  0.00    +0.490 C 
ATOM     18  O   LIG    1        2.486   1.490   2.279  0.00  0.00    -0.510 OA
BRANCH  17  19
ATOM     19  C   LIG    1        2.471   1.058  -0.037  0.00  0.00    +0.190 C 
BRANCH  19  20
ATOM     20  C   LIG    1        1.200   1.866   0.004  0.00  0.00    -0.010 A 
ATOM     21  C   LIG    1        1.201   3.179  -0.426  0.00  0.00    +0.040 A 
ATOM     22  C   LIG    1        0.036   3.923  -0.383  0.00  0.00    +0.090 A 
ATOM     23  C   LIG    1       -1.132   3.349   0.081  0.00  0.00    +0.040 A 
ATOM     24  C   LIG    1       -1.134   2.035   0.511  0.00  0.00    +0.110 A 
ATOM     25  C   LIG    1        0.032   1.294   0.473  0.00  0.00    -0.030 A 
BRANCH  25  26
ATOM     26  N   LIG    1        0.030  -0.113   0.934  0.00  0.00    +0.030 N 
ATOM     27  O   LIG    1        1.042  -0.785   0.842  0.00  0.00    -0.170 OA
ATOM     28  O   LIG    1       -0.983  -0.599   1.404  0.00  0.00    -0.150 OA
ENDBRANCH  25  26
ENDBRANCH  19  20
ENDBRANCH  17  19
ENDBRANCH  16  17
ENDBRANCH  15  16
ENDBRANCH   2  15
TORSDOF 8
