REMARK  Name = ZINCrg000000phRo.0
REMARK                            x       y       z     vdW  Elec       q    Type
REMARK                         _______ _______ _______ _____ _____    ______ ____
ROOT
ATOM      1  N   LIG    1        1.118   1.782  -1.902  0.00  0.00    -0.720 N 
ATOM      2  H   LIG    1        2.034   2.088  -1.817  0.00  0.00    +0.410 HD
ATOM      3  C   LIG    1        0.174   2.609  -2.393  0.00  0.00    +0.520 C 
ATOM      4  O   LIG    1       -0.971   2.225  -2.504  0.00  0.00    -0.540 OA
ENDROOT
BRANCH   1   5
ATOM      5  C   LIG    1        0.760   0.419  -1.501  0.00  0.00    +0.310 C 
BRANCH   5  11
ATOM      6  C   LIG    1        3.031  -2.417  -0.151  0.00  0.00    +0.220 C 
ATOM      7  C   LIG    1        2.402  -3.476   0.792  0.00  0.00    +0.060 C 
ATOM      8  C   LIG    1        1.041  -3.740   0.096  0.00  0.00    +0.040 C 
ATOM      9  C   LIG    1        0.658  -2.350  -0.454  0.00  0.00    +0.260 C 
ATOM     10  N   LIG    1        1.899  -1.570  -0.571  0.00  0.00    -0.600 N 
ATOM     11  C   LIG    1        1.988  -0.294  -0.997  0.00  0.00    +0.530 C 
ATOM     12  O   LIG    1        3.056   0.279  -0.974  0.00  0.00    -0.520 OA
BRANCH   6  16
ATOM     13  C   LIG    1        6.353  -1.121   1.242  0.00  0.00    +0.290 C 
ATOM     14  N   LIG    1        5.359  -1.920   0.520  0.00  0.00    -0.730 N 
ATOM     15  H   LIG    1        5.641  -2.682  -0.009  0.00  0.00    +0.400 HD
ATOM     16  C   LIG    1        4.053  -1.595   0.592  0.00  0.00    +0.520 C 
ATOM     17  O   LIG    1        3.700  -0.642   1.254  0.00  0.00    -0.510 OA
ENDBRANCH   6  16
ENDBRANCH   5  11
ENDBRANCH   1   5
BRANCH   3  18
ATOM     18  C   LIG    1        0.541   4.011  -2.805  0.00  0.00    +0.070 C 
BRANCH  18  19
ATOM     19  C   LIG    1       -0.704   4.733  -3.324  0.00  0.00    +0.130 C 
BRANCH  19  20
ATOM     20  C   LIG    1       -0.337   6.136  -3.736  0.00  0.00    +0.160 A 
ATOM     21  N   LIG    1        0.257   6.920  -2.869  0.00  0.00    -0.470 NA
ATOM     22  C   LIG    1        0.603   8.172  -3.188  0.00  0.00    +0.130 A 
ATOM     23  C   LIG    1        1.238   9.009  -2.255  0.00  0.00    +0.050 A 
ATOM     24  C   LIG    1        1.577  10.279  -2.608  0.00  0.00    +0.030 A 
ATOM     25  C   LIG    1        1.305  10.767  -3.884  0.00  0.00    +0.010 A 
ATOM     26  C   LIG    1        0.691   9.986  -4.815  0.00  0.00    +0.030 A 
ATOM     27  C   LIG    1        0.327   8.671  -4.486  0.00  0.00    -0.110 A 
ATOM     28  C   LIG    1       -0.310   7.831  -5.419  0.00  0.00    +0.090 A 
ATOM     29  C   LIG    1       -0.632   6.562  -5.029  0.00  0.00    -0.030 A 
ENDBRANCH  19  20
ENDBRANCH  18  19
ENDBRANCH   3  18
TORSDOF 6
