REMARK  Name = ZINC9u0000000C3W.0
REMARK                            x       y       z     vdW  Elec       q    Type
REMARK                         _______ _______ _______ _____ _____    ______ ____
ROOT
ATOM      1  C   LIG    1       -0.750   3.109   1.275  0.00  0.00    +0.030 C 
ATOM      2  C   LIG    1        0.692   3.657   1.317  0.00  0.00    +0.050 C 
ATOM      3  C   LIG    1        0.596   4.906   2.229  0.00  0.00    +0.020 C 
ATOM      4  C   LIG    1       -0.413   4.460   3.316  0.00  0.00    +0.020 C 
ATOM      5  C   LIG    1       -1.452   3.620   2.545  0.00  0.00    +0.040 C 
ENDROOT
BRANCH   1   7
ATOM      6  C   LIG    1       -0.013   1.086   0.008  0.00  0.00    +0.010 C 
ATOM      7  C   LIG    1       -0.729   1.579   1.267  0.00  0.00    +0.050 C 
ENDBRANCH   1   7
BRANCH   1   8
ATOM      8  C   LIG    1       -1.445   3.610   0.078  0.00  0.00    +0.220 C 
ATOM      9  N   LIG    1       -1.981   3.997  -0.845  0.00  0.00    -0.440 NA
ENDBRANCH   1   8
TORSDOF 2
