REMARK  Name = ZINCAx0000000g68.0
REMARK                            x       y       z     vdW  Elec       q    Type
REMARK                         _______ _______ _______ _____ _____    ______ ____
ROOT
ATOM      1  O   LIG    1       -2.298   8.704  -1.549  0.00  0.00    -0.510 OA
ATOM      2  C   LIG    1       -1.347   8.816  -0.798  0.00  0.00    +0.600 C 
ATOM      3  N   LIG    1       -0.953  10.037  -0.387  0.00  0.00    -0.610 N 
ATOM      4  C   LIG    1        0.246  10.201   0.449  0.00  0.00    +0.300 C 
ATOM      5  C   LIG    1        1.143  11.268  -0.199  0.00  0.00    +0.200 C 
ATOM      6  N   LIG    1        0.361  12.494  -0.411  0.00  0.00    -0.440 N 
ATOM      7  C   LIG    1       -0.743  12.266  -1.352  0.00  0.00    +0.230 C 
ATOM      8  C   LIG    1       -1.714  11.240  -0.756  0.00  0.00    +0.320 C 
ENDROOT
BRANCH   6   9
ATOM      9  C   LIG    1        1.172  13.530  -0.839  0.00  0.00    +0.430 A 
ATOM     10  N   LIG    1        1.018  14.240  -1.936  0.00  0.00    -0.350 NA
ATOM     11  N   LIG    1        1.943  15.126  -2.031  0.00  0.00    -0.020 NA
ATOM     12  N   LIG    1        2.748  15.045  -1.027  0.00  0.00    -0.070 NA
ATOM     13  N   LIG    1        2.277  14.002  -0.211  0.00  0.00    -0.340 N 
BRANCH  13  14
ATOM     14  C   LIG    1        2.831  13.547   0.995  0.00  0.00    +0.120 A 
ATOM     15  C   LIG    1        2.003  13.101   2.016  0.00  0.00    +0.030 A 
ATOM     16  C   LIG    1        2.552  12.649   3.200  0.00  0.00    +0.040 A 
ATOM     17  C   LIG    1        3.924  12.650   3.373  0.00  0.00    +0.040 A 
ATOM     18  C   LIG    1        4.750  13.100   2.360  0.00  0.00    +0.040 A 
ATOM     19  C   LIG    1        4.208  13.548   1.171  0.00  0.00    +0.040 A 
ENDBRANCH  13  14
ENDBRANCH   6   9
BRANCH   2  20
ATOM     20  C   LIG    1       -0.629   7.618  -0.339  0.00  0.00    -0.270 A 
ATOM     21  C   LIG    1       -1.192   6.493   0.253  0.00  0.00    +0.360 A 
ATOM     22  N   LIG    1       -0.182   5.635   0.516  0.00  0.00    -0.310 N 
ATOM     23  N   LIG    1        1.017   6.221   0.097  0.00  0.00    -0.260 NA
ATOM     24  C   LIG    1        0.764   7.392  -0.417  0.00  0.00    +0.300 A 
BRANCH  22  25
ATOM     25  C   LIG    1       -0.314   4.374   1.115  0.00  0.00    +0.120 A 
ATOM     26  C   LIG    1        0.513   3.330   0.724  0.00  0.00    +0.080 A 
ATOM     27  C   LIG    1        0.382   2.088   1.314  0.00  0.00    +0.010 A 
ATOM     28  C   LIG    1       -0.573   1.885   2.296  0.00  0.00    +0.110 A 
ATOM     29  C   LIG    1       -1.402   2.924   2.684  0.00  0.00    +0.020 A 
ATOM     30  F   LIG    1       -0.700   0.669   2.872  0.00  0.00    -0.130 F 
ATOM     31  C   LIG    1       -1.271   4.168   2.099  0.00  0.00    +0.060 A 
ENDBRANCH  22  25
BRANCH  21  32
ATOM     32  N   LIG    1       -2.539   6.289   0.523  0.00  0.00    -0.400 N 
ATOM     33  C   LIG    1       -3.386   7.201   1.089  0.00  0.00    +0.170 A 
ATOM     34  C   LIG    1       -4.607   6.638   1.187  0.00  0.00    -0.030 A 
ATOM     35  C   LIG    1       -4.512   5.329   0.672  0.00  0.00    -0.020 A 
ATOM     36  C   LIG    1       -3.239   5.141   0.273  0.00  0.00    +0.150 A 
ENDBRANCH  21  32
ENDBRANCH   2  20
TORSDOF 5
