REMARK  Name = ZINCqH0000006tBw.0
REMARK                            x       y       z     vdW  Elec       q    Type
REMARK                         _______ _______ _______ _____ _____    ______ ____
ROOT
ATOM      1  C   LIG    1        3.794   3.876   2.751  0.00  0.00    +0.200 A 
ATOM      2  C   LIG    1        2.975   3.816   3.876  0.00  0.00    -0.110 A 
ATOM      3  C   LIG    1        1.631   4.033   3.762  0.00  0.00    +0.160 A 
ATOM      4  C   LIG    1        1.077   4.316   2.511  0.00  0.00    -0.290 A 
ATOM      5  C   LIG    1       -0.369   4.538   2.364  0.00  0.00    +0.410 C 
ATOM      6  C   LIG    1       -0.837   5.108   1.036  0.00  0.00    +0.020 C 
ATOM      7  C   LIG    1       -0.015   4.427  -0.067  0.00  0.00    +0.130 C 
ATOM      8  O   LIG    1        1.373   4.672   0.156  0.00  0.00    -0.290 OA
ATOM      9  C   LIG    1       -0.283   2.921  -0.040  0.00  0.00    +0.000 C 
ATOM     10  C   LIG    1        0.528   2.239  -1.143  0.00  0.00    +0.020 C 
ATOM     11  C   LIG    1        0.118   2.808  -2.503  0.00  0.00    +0.010 C 
ATOM     12  C   LIG    1        0.388   4.313  -2.529  0.00  0.00    +0.020 C 
ATOM     13  C   LIG    1       -0.425   4.995  -1.426  0.00  0.00    +0.070 C 
ATOM     14  O   LIG    1       -1.149   4.279   3.257  0.00  0.00    -0.450 OA
ATOM     15  C   LIG    1        1.897   4.387   1.371  0.00  0.00    +0.230 A 
ATOM     16  C   LIG    1        3.257   4.161   1.503  0.00  0.00    -0.050 A 
ENDROOT
BRANCH   1  17
ATOM     17  O   LIG    1        5.126   3.654   2.875  0.00  0.00    -0.300 OA
BRANCH  17  18
ATOM     18  C   LIG    1        5.616   3.366   4.186  0.00  0.00    +0.220 C 
BRANCH  18  19
ATOM     19  C   LIG    1        7.129   3.146   4.129  0.00  0.00    +0.180 C 
BRANCH  19  20
ATOM     20  C   LIG    1        7.672   2.962   5.547  0.00  0.00    -0.040 C 
ATOM     21  C   LIG    1        7.380   4.208   6.417  0.00  0.00    +0.000 C 
ATOM     22  C   LIG    1        8.673   4.411   7.232  0.00  0.00    +0.200 C 
ATOM     23  O   LIG    1        9.570   3.345   6.881  0.00  0.00    -0.370 OA
ATOM     24  C   LIG    1        9.221   2.922   5.546  0.00  0.00    +0.210 C 
ENDBRANCH  19  20
BRANCH  19  26
ATOM     25  C   LIG    1        8.576   2.093   2.534  0.00  0.00    +0.210 C 
ATOM     26  O   LIG    1        7.412   1.979   3.355  0.00  0.00    -0.370 OA
ENDBRANCH  19  26
ENDBRANCH  18  19
ENDBRANCH  17  18
ENDBRANCH   1  17
TORSDOF 5
