REMARK  Name = ZINCpe000000UiWL.0
REMARK                            x       y       z     vdW  Elec       q    Type
REMARK                         _______ _______ _______ _____ _____    ______ ____
ROOT
ATOM      1  C   LIG    1       -2.548   1.019   4.362  0.00  0.00    +0.360 C 
ATOM      2  C   LIG    1       -1.432   1.100   5.408  0.00  0.00    -0.330 C 
ATOM      3  S   LIG    1       -2.130   0.735   7.045  0.00  0.00    +2.420 S 
ATOM      4  C   LIG    1       -3.463   1.964   7.149  0.00  0.00    -0.340 C 
ATOM      5  C   LIG    1       -4.386   1.801   5.937  0.00  0.00    +0.320 C 
ATOM      6  O   LIG    1       -1.154   1.038   8.033  0.00  0.00    -0.930 OA
ATOM      7  O   LIG    1       -2.709  -0.562   7.013  0.00  0.00    -0.930 OA
ATOM      8  N   LIG    1       -3.610   1.966   4.706  0.00  0.00    -0.640 N 
ATOM      9  C   LIG    1       -3.876   2.999   3.883  0.00  0.00    +0.710 C 
ATOM     10  N   LIG    1       -4.766   3.942   4.251  0.00  0.00    -0.740 N 
ATOM     11  H   LIG    1       -5.170   3.910   5.132  0.00  0.00    +0.400 HD
ATOM     12  O   LIG    1       -3.312   3.081   2.809  0.00  0.00    -0.540 OA
ENDROOT
BRANCH   1  15
ATOM     13  N   LIG    1       -1.472   1.263   0.886  0.00  0.00    -0.380 N 
ATOM     14  C   LIG    1       -2.110   0.614   1.883  0.00  0.00    +0.220 A 
ATOM     15  C   LIG    1       -1.990   1.361   3.005  0.00  0.00    -0.210 A 
ATOM     16  C   LIG    1       -1.262   2.511   2.680  0.00  0.00    +0.290 A 
ATOM     17  N   LIG    1       -0.951   2.453   1.411  0.00  0.00    -0.300 NA
BRANCH  13  19
ATOM     18  C   LIG    1       -1.883   1.889  -1.442  0.00  0.00    +0.040 C 
ATOM     19  C   LIG    1       -1.352   0.807  -0.500  0.00  0.00    +0.310 C 
ENDBRANCH  13  19
ENDBRANCH   1  15
BRANCH  10  20
ATOM     20  C   LIG    1       -5.123   5.015   3.319  0.00  0.00    +0.310 C 
BRANCH  20  21
ATOM     21  C   LIG    1       -4.290   6.260   3.632  0.00  0.00    -0.060 C 
ATOM     22  C   LIG    1       -3.640   6.989   2.454  0.00  0.00    +0.010 C 
ATOM     23  C   LIG    1       -2.777   6.170   3.417  0.00  0.00    +0.030 C 
ENDBRANCH  20  21
BRANCH  20  24
ATOM     24  C   LIG    1       -6.609   5.346   3.468  0.00  0.00    +0.180 C 
BRANCH  24  25
ATOM     25  O   LIG    1       -6.850   5.881   4.771  0.00  0.00    -0.390 OA
ATOM     26  C   LIG    1       -8.216   6.225   5.015  0.00  0.00    +0.200 C 
ENDBRANCH  24  25
ENDBRANCH  20  24
ENDBRANCH  10  20
TORSDOF 6
