REMARK  Name = ZINCpe000000Yxz8.0
REMARK                            x       y       z     vdW  Elec       q    Type
REMARK                         _______ _______ _______ _____ _____    ______ ____
ROOT
ATOM      1  C   LIG    1        0.002  -0.004   0.002  0.00  0.00    +0.230 C 
ENDROOT
BRANCH   1   2
ATOM      2  C   LIG    1       -1.412  -0.526   0.013  0.00  0.00    +0.520 C 
ATOM      3  N   LIG    1       -1.640  -1.854   0.008  0.00  0.00    -0.720 N 
ATOM      4  H   LIG    1       -0.894  -2.474  -0.003  0.00  0.00    +0.400 HD
ATOM      5  O   LIG    1       -2.344   0.250   0.026  0.00  0.00    -0.520 OA
BRANCH   3   6
ATOM      6  C   LIG    1       -3.014  -2.361   0.018  0.00  0.00    +0.290 C 
ATOM      7  C   LIG    1       -3.033  -3.754   0.645  0.00  0.00    +0.020 C 
ATOM      8  C   LIG    1       -4.431  -4.353   0.452  0.00  0.00    +0.030 C 
ATOM      9  C   LIG    1       -4.620  -4.666  -1.031  0.00  0.00    +0.080 C 
ATOM     10  C   LIG    1       -4.280  -3.464  -1.873  0.00  0.00    -0.070 A 
ATOM     11  C   LIG    1       -4.739  -3.443  -3.184  0.00  0.00    -0.010 A 
ATOM     12  C   LIG    1       -4.451  -2.376  -4.011  0.00  0.00    +0.010 A 
ATOM     13  C   LIG    1       -3.700  -1.319  -3.530  0.00  0.00    -0.010 A 
ATOM     14  C   LIG    1       -3.247  -1.337  -2.228  0.00  0.00    +0.030 A 
ATOM     15  C   LIG    1       -3.537  -2.409  -1.394  0.00  0.00    -0.100 A 
ENDBRANCH   3   6
ENDBRANCH   1   2
BRANCH   1  16
ATOM     16  O   LIG    1       -0.017   1.425   0.010  0.00  0.00    -0.240 OA
BRANCH  16  18
ATOM     17  C   LIG    1        1.386   3.305   0.007  0.00  0.00    +0.370 C 
ATOM     18  N   LIG    1        1.268   2.018   0.001  0.00  0.00    -0.400 NA
BRANCH  17  19
ATOM     19  N   LIG    1        0.261   4.099   0.022  0.00  0.00    -0.870 N 
ATOM     20  H   LIG    1        0.349   5.065   0.026  0.00  0.00    +0.400 HD
ATOM     21  H   LIG    1       -0.620   3.692   0.028  0.00  0.00    +0.410 HD
ENDBRANCH  17  19
BRANCH  17  22
ATOM     22  C   LIG    1        2.754   3.936  -0.003  0.00  0.00    +0.290 C 
BRANCH  22  23
ATOM     23  N   LIG    1        3.779   2.884  -0.018  0.00  0.00    -0.520 NA
ATOM     24  C   LIG    1        3.764   2.116   1.235  0.00  0.00    +0.160 C 
ATOM     25  C   LIG    1        4.804   0.996   1.153  0.00  0.00    +0.230 C 
ATOM     26  O   LIG    1        6.089   1.563   0.880  0.00  0.00    -0.390 OA
ATOM     27  C   LIG    1        6.139   2.317  -0.334  0.00  0.00    +0.220 C 
ATOM     28  C   LIG    1        5.113   3.451  -0.267  0.00  0.00    +0.160 C 
ENDBRANCH  22  23
ENDBRANCH  17  22
ENDBRANCH  16  18
ENDBRANCH   1  16
TORSDOF 7
