REMARK  Name = ZINCvU0000000Bsm.0
REMARK                            x       y       z     vdW  Elec       q    Type
REMARK                         _______ _______ _______ _____ _____    ______ ____
ROOT
ATOM      1  C   LIG    1        2.917  -5.391  -0.385  0.00  0.00    +0.150 C 
ATOM      2  C   LIG    1        1.940  -4.251  -0.256  0.00  0.00    -0.200 A 
ATOM      3  C   LIG    1        2.281  -2.977  -0.244  0.00  0.00    -0.030 A 
ATOM      4  C   LIG    1        1.172  -2.051  -0.109  0.00  0.00    -0.230 A 
ATOM      5  C   LIG    1       -0.052  -2.709  -0.017  0.00  0.00    +0.090 A 
ATOM      6  N   LIG    1       -1.187  -1.994   0.114  0.00  0.00    -0.510 NA
ATOM      7  C   LIG    1       -1.172  -0.684   0.157  0.00  0.00    +0.360 A 
ATOM      8  N   LIG    1       -0.004   0.021   0.072  0.00  0.00    -0.470 N 
ATOM      9  C   LIG    1        1.171  -0.625  -0.065  0.00  0.00    +0.570 A 
ATOM     10  O   LIG    1        2.215  -0.001  -0.146  0.00  0.00    -0.500 OA
ATOM     11  C   LIG    1        3.712  -2.518  -0.362  0.00  0.00    +0.120 C 
ATOM     12  S   LIG    1        0.205  -4.448  -0.100  0.00  0.00    +0.200 S 
ENDROOT
BRANCH   8  13
ATOM     13  C   LIG    1       -0.028   1.421   0.123  0.00  0.00    +0.090 A 
ATOM     14  C   LIG    1       -0.579   2.146  -0.926  0.00  0.00    +0.030 A 
ATOM     15  C   LIG    1       -0.608   3.525  -0.871  0.00  0.00    +0.030 A 
ATOM     16  C   LIG    1       -0.077   4.186   0.222  0.00  0.00    +0.030 A 
ATOM     17  C   LIG    1        0.478   3.467   1.266  0.00  0.00    +0.030 A 
ATOM     18  C   LIG    1        0.503   2.087   1.219  0.00  0.00    +0.050 A 
ENDBRANCH   8  13
BRANCH   7  19
ATOM     19  S   LIG    1       -2.693   0.189   0.329  0.00  0.00    +0.100 S 
BRANCH  19  20
ATOM     20  C   LIG    1       -3.849  -1.202   0.389  0.00  0.00    +0.010 C 
ATOM     21  C   LIG    1       -3.587  -2.029   1.650  0.00  0.00    +0.090 C 
BRANCH  20  22
ATOM     22  C   LIG    1       -5.262  -0.681   0.414  0.00  0.00    +0.540 C 
ATOM     23  N   LIG    1       -6.284  -1.485   0.059  0.00  0.00    -0.570 N 
ATOM     24  C   LIG    1       -6.035  -2.898  -0.236  0.00  0.00    +0.300 C 
ATOM     25  O   LIG    1       -5.481   0.463   0.755  0.00  0.00    -0.500 OA
BRANCH  23  26
ATOM     26  C   LIG    1       -7.582  -0.969  -0.029  0.00  0.00    +0.140 A 
ATOM     27  C   LIG    1       -8.563  -1.401   0.853  0.00  0.00    +0.010 A 
ATOM     28  C   LIG    1       -9.842  -0.887   0.767  0.00  0.00    +0.020 A 
ATOM     29  C   LIG    1      -10.149   0.049  -0.204  0.00  0.00    +0.010 A 
ATOM     30  C   LIG    1       -9.175   0.477  -1.088  0.00  0.00    +0.020 A 
ATOM     31  C   LIG    1       -7.893  -0.030  -1.004  0.00  0.00    +0.010 A 
ENDBRANCH  23  26
ENDBRANCH  20  22
ENDBRANCH  19  20
ENDBRANCH   7  19
TORSDOF 5
