REMARK  Name = ZINCvU0000000J6F.0
REMARK                            x       y       z     vdW  Elec       q    Type
REMARK                         _______ _______ _______ _____ _____    ______ ____
ROOT
ATOM      1  N   LIG    1       -0.698   1.558   1.213  0.00  0.00    -0.740 N 
ATOM      2  H   LIG    1       -0.402   2.370   1.653  0.00  0.00    +0.390 HD
ATOM      3  C   LIG    1       -1.741   0.865   1.711  0.00  0.00    +0.520 C 
ATOM      4  O   LIG    1       -2.112  -0.151   1.161  0.00  0.00    -0.490 OA
ENDROOT
BRANCH   1   5
ATOM      5  C   LIG    1       -0.013   1.086   0.008  0.00  0.00    +0.350 C 
BRANCH   5   6
ATOM      6  C   LIG    1        1.401   1.607  -0.003  0.00  0.00    +0.280 A 
ATOM      7  N   LIG    1        2.249   1.443  -0.976  0.00  0.00    -0.470 NA
ATOM      8  C   LIG    1        3.426   2.041  -0.662  0.00  0.00    +0.050 A 
ATOM      9  C   LIG    1        4.648   2.173  -1.327  0.00  0.00    +0.070 A 
ATOM     10  C   LIG    1        5.678   2.846  -0.732  0.00  0.00    +0.000 A 
ATOM     11  C   LIG    1        5.524   3.403   0.529  0.00  0.00    +0.030 A 
ATOM     12  C   LIG    1        4.328   3.285   1.205  0.00  0.00    +0.010 A 
ATOM     13  C   LIG    1        3.271   2.605   0.616  0.00  0.00    +0.050 A 
ATOM     14  N   LIG    1        1.979   2.314   1.006  0.00  0.00    -0.600 N 
ATOM     15  H   LIG    1        1.560   2.566   1.844  0.00  0.00    +0.420 HD
ENDBRANCH   5   6
BRANCH   5  17
ATOM     16  C   LIG    1       -0.037   1.099  -2.490  0.00  0.00    +0.040 C 
ATOM     17  C   LIG    1       -0.753   1.593  -1.232  0.00  0.00    -0.020 C 
ATOM     18  C   LIG    1       -2.188   1.063  -1.221  0.00  0.00    +0.030 C 
ENDBRANCH   5  17
ENDBRANCH   1   5
BRANCH   3  19
ATOM     19  C   LIG    1       -2.447   1.351   2.951  0.00  0.00    +0.150 C 
BRANCH  19  20
ATOM     20  C   LIG    1       -3.567   0.404   3.295  0.00  0.00    +0.080 A 
ATOM     21  C   LIG    1       -3.675  -0.184   4.491  0.00  0.00    -0.070 A 
ATOM     22  S   LIG    1       -5.115  -1.200   4.467  0.00  0.00    +0.160 S 
ATOM     23  C   LIG    1       -5.424  -0.740   2.850  0.00  0.00    +0.030 A 
ATOM     24  N   LIG    1       -4.517   0.083   2.440  0.00  0.00    -0.420 NA
BRANCH  23  25
ATOM     25  C   LIG    1       -6.586  -1.224   2.022  0.00  0.00    +0.330 C 
BRANCH  25  26
ATOM     26  O   LIG    1       -6.211  -2.413   1.324  0.00  0.00    -0.300 OA
BRANCH  26  27
ATOM     27  C   LIG    1       -7.152  -2.983   0.526  0.00  0.00    +0.140 A 
ATOM     28  C   LIG    1       -8.412  -2.413   0.422  0.00  0.00    -0.060 A 
ATOM     29  C   LIG    1       -9.366  -2.991  -0.393  0.00  0.00    +0.070 A 
ATOM     30  C   LIG    1       -9.068  -4.144  -1.098  0.00  0.00    -0.070 A 
ATOM     31  C   LIG    1       -7.814  -4.717  -0.991  0.00  0.00    +0.070 A 
ATOM     32 CL   LIG    1      -10.271  -4.872  -2.116  0.00  0.00    -0.070 Cl
ATOM     33  C   LIG    1       -6.856  -4.139  -0.181  0.00  0.00    +0.000 A 
ENDBRANCH  26  27
ENDBRANCH  25  26
ENDBRANCH  23  25
ENDBRANCH  19  20
ENDBRANCH   3  19
TORSDOF 8
