REMARK  Name = ZINCpe000000YwoF.0
REMARK                            x       y       z     vdW  Elec       q    Type
REMARK                         _______ _______ _______ _____ _____    ______ ____
ROOT
ATOM      1  N   LIG    1       -0.048   6.492  -1.567  0.00  0.00    -1.110 NA
ATOM      2  H   LIG    1        0.690   6.992  -1.949  0.00  0.00    +0.420 HD
ENDROOT
BRANCH   1   3
ATOM      3  C   LIG    1       -1.216   6.165  -2.390  0.00  0.00    +0.260 C 
ATOM      4  C   LIG    1       -0.938   4.889  -3.193  0.00  0.00    +0.020 C 
ATOM      5  C   LIG    1       -2.230   4.471  -3.899  0.00  0.00    +0.080 C 
ATOM      6  C   LIG    1       -2.830   5.651  -4.609  0.00  0.00    +0.520 C 
ATOM      7  N   LIG    1       -2.500   6.915  -4.342  0.00  0.00    -0.710 N 
ATOM      8  H   LIG    1       -2.962   7.617  -4.827  0.00  0.00    +0.400 HD
ATOM      9  O   LIG    1       -3.658   5.443  -5.470  0.00  0.00    -0.550 OA
ATOM     10  C   LIG    1       -1.490   7.309  -3.368  0.00  0.00    +0.240 C 
BRANCH  10  11
ATOM     11  C   LIG    1       -1.986   8.530  -2.591  0.00  0.00    +0.150 C 
ATOM     12  C   LIG    1       -2.337   9.682  -3.566  0.00  0.00    +0.010 C 
ATOM     13  C   LIG    1       -3.365  10.482  -2.718  0.00  0.00    +0.010 C 
ATOM     14  C   LIG    1       -4.080   9.365  -1.928  0.00  0.00    +0.190 C 
ATOM     15  O   LIG    1       -3.214   8.224  -1.911  0.00  0.00    -0.370 OA
ENDBRANCH  10  11
ENDBRANCH   1   3
BRANCH   1  16
ATOM     16  S   LIG    1        0.011   6.008   0.015  0.00  0.00    +2.690 S 
ATOM     17  O   LIG    1        1.266   6.441   0.521  0.00  0.00    -0.940 OA
ATOM     18  O   LIG    1       -1.232   6.380   0.596  0.00  0.00    -0.930 OA
BRANCH  16  22
ATOM     19  C   LIG    1        0.128   1.476   0.027  0.00  0.00    +0.000 A 
ATOM     20  C   LIG    1        1.315   2.209  -0.011  0.00  0.00    +0.100 A 
ATOM     21  C   LIG    1        1.272   3.588  -0.014  0.00  0.00    +0.130 A 
ATOM     22  C   LIG    1        0.055   4.246   0.020  0.00  0.00    -0.630 A 
ATOM     23  C   LIG    1       -1.127   3.529   0.058  0.00  0.00    +0.120 A 
ATOM     24  C   LIG    1       -1.100   2.147   0.056  0.00  0.00    +0.130 A 
ATOM     25  F   LIG    1       -2.255   1.446   0.087  0.00  0.00    -0.120 F 
BRANCH  19  27
ATOM     26  N   LIG    1        0.196  -1.091   0.033  0.00  0.00    -0.370 NA
ATOM     27  C   LIG    1        0.165   0.044   0.030  0.00  0.00    +0.240 C 
ENDBRANCH  19  27
ENDBRANCH  16  22
ENDBRANCH   1  16
TORSDOF 5
