REMARK  Name = ZINCrH000004opGv.0
REMARK                            x       y       z     vdW  Elec       q    Type
REMARK                         _______ _______ _______ _____ _____    ______ ____
ROOT
ATOM      1  N   LIG    1       -1.092  -0.508  -0.850  0.00  0.00    -0.740 N 
ATOM      2  H   LIG    1       -1.875   0.037  -1.029  0.00  0.00    +0.400 HD
ENDROOT
BRANCH   1   3
ATOM      3  C   LIG    1       -0.968  -1.768  -1.442  0.00  0.00    +0.230 A 
ATOM      4  C   LIG    1        0.152  -2.549  -1.186  0.00  0.00    -0.060 A 
ATOM      5  C   LIG    1        0.277  -3.795  -1.771  0.00  0.00    +0.060 A 
ATOM      6  C   LIG    1       -0.713  -4.268  -2.613  0.00  0.00    +0.000 A 
ATOM      7  C   LIG    1       -1.837  -3.490  -2.873  0.00  0.00    +0.190 A 
ATOM      8  F   LIG    1       -0.588  -5.486  -3.184  0.00  0.00    -0.140 F 
ATOM      9  C   LIG    1       -1.966  -2.243  -2.282  0.00  0.00    -0.020 A 
BRANCH   7  10
ATOM     10  N   LIG    1       -2.839  -3.970  -3.725  0.00  0.00    -0.680 N 
ATOM     11  H   LIG    1       -2.952  -4.925  -3.852  0.00  0.00    +0.410 HD
ATOM     12  C   LIG    1       -3.647  -3.104  -4.369  0.00  0.00    +0.710 C 
ATOM     13  O   LIG    1       -3.442  -1.909  -4.292  0.00  0.00    -0.570 OA
ATOM     14  N   LIG    1       -4.683  -3.565  -5.099  0.00  0.00    -0.860 N 
ATOM     15  H   LIG    1       -5.264  -2.942  -5.562  0.00  0.00    +0.420 HD
ATOM     16  H   LIG    1       -4.846  -4.519  -5.161  0.00  0.00    +0.400 HD
ENDBRANCH   7  10
ENDBRANCH   1   3
BRANCH   1  18
ATOM     17  C   LIG    1       -0.282  -0.538   1.457  0.00  0.00    +0.030 C 
ATOM     18  C   LIG    1       -0.041  -0.010   0.041  0.00  0.00    +0.290 C 
BRANCH  18  19
ATOM     19  C   LIG    1       -0.067   1.496   0.056  0.00  0.00    -0.110 A 
ATOM     20  C   LIG    1       -1.275   2.167   0.058  0.00  0.00    +0.100 A 
ATOM     21  C   LIG    1       -1.298   3.550   0.075  0.00  0.00    +0.010 A 
ATOM     22  C   LIG    1       -0.113   4.261   0.081  0.00  0.00    +0.140 A 
ATOM     23  C   LIG    1        1.096   3.589   0.073  0.00  0.00    -0.650 A 
ATOM     24  C   LIG    1        1.119   2.208   0.061  0.00  0.00    +0.150 A 
BRANCH  23  25
ATOM     25  S   LIG    1        2.607   4.496   0.079  0.00  0.00    +2.490 S 
ATOM     26  O   LIG    1        3.545   3.610   0.675  0.00  0.00    -0.860 OA
ATOM     27  O   LIG    1        2.272   5.731   0.696  0.00  0.00    -0.860 OA
BRANCH  25  28
ATOM     28  C   LIG    1        2.993   4.744  -1.676  0.00  0.00    -0.020 C 
ATOM     29  F   LIG    1        3.132   3.502  -2.303  0.00  0.00    -0.160 F 
ATOM     30  F   LIG    1        4.188   5.462  -1.793  0.00  0.00    -0.160 F 
ATOM     31  F   LIG    1        1.956   5.461  -2.284  0.00  0.00    -0.160 F 
ENDBRANCH  25  28
ENDBRANCH  23  25
ENDBRANCH  18  19
ENDBRANCH   1  18
TORSDOF 6
