REMARK  Name = ZINCrD000006fiy2.0
REMARK                            x       y       z     vdW  Elec       q    Type
REMARK                         _______ _______ _______ _____ _____    ______ ____
ROOT
ATOM      1  C   LIG    1       -3.602  -2.316   4.675  0.00  0.00    +0.550 C 
ATOM      2  N   LIG    1       -2.683  -2.331   3.689  0.00  0.00    -0.610 N 
ATOM      3  C   LIG    1       -1.478  -1.496   3.775  0.00  0.00    +0.270 C 
ATOM      4  C   LIG    1       -1.371  -0.648   2.504  0.00  0.00    +0.010 C 
ATOM      5  C   LIG    1       -1.414  -1.564   1.278  0.00  0.00    +0.110 C 
ATOM      6  C   LIG    1       -1.269  -0.737   0.008  0.00  0.00    +0.310 C 
ATOM      7  N   LIG    1       -0.010   0.009  -0.001  0.00  0.00    -0.590 N 
ATOM      8  C   LIG    1        1.274  -0.699  -0.026  0.00  0.00    +0.350 C 
ATOM      9  C   LIG    1        1.601  -1.150   1.390  0.00  0.00    -0.140 A 
ATOM     10  C   LIG    1        2.714  -0.670   2.041  0.00  0.00    +0.050 A 
ATOM     11  C   LIG    1        3.042  -1.164   3.293  0.00  0.00    +0.000 A 
ATOM     12  C   LIG    1        2.250  -2.132   3.882  0.00  0.00    +0.030 A 
ATOM     13  C   LIG    1        1.121  -2.599   3.236  0.00  0.00    -0.010 A 
ATOM     14  C   LIG    1        0.780  -2.096   1.988  0.00  0.00    +0.120 A 
ATOM     15  C   LIG    1       -0.031   1.357   0.008  0.00  0.00    +0.660 C 
ATOM     16  O   LIG    1       -1.092   1.948   0.019  0.00  0.00    -0.560 OA
ATOM     17  C   LIG    1       -2.750  -2.313   1.250  0.00  0.00    +0.060 C 
ATOM     18  O   LIG    1       -0.347  -2.518   1.364  0.00  0.00    -0.320 OA
ATOM     19  C   LIG    1       -2.869  -3.183   2.506  0.00  0.00    +0.280 C 
ATOM     20  O   LIG    1       -3.394  -1.679   5.690  0.00  0.00    -0.540 OA
ENDROOT
BRANCH   1  22
ATOM     21  C   LIG    1       -5.806  -2.972   5.450  0.00  0.00    +0.140 C 
ATOM     22  C   LIG    1       -4.856  -3.069   4.524  0.00  0.00    -0.090 C 
ENDBRANCH   1  22
BRANCH  15  23
ATOM     23  O   LIG    1        1.125   2.048   0.000  0.00  0.00    -0.360 OA
BRANCH  23  24
ATOM     24  C   LIG    1        1.026   3.496   0.011  0.00  0.00    +0.140 C 
ATOM     25  C   LIG    1        0.258   3.965  -1.227  0.00  0.00    +0.040 C 
ATOM     26  C   LIG    1        2.431   4.103  -0.001  0.00  0.00    +0.080 C 
ATOM     27  C   LIG    1        0.286   3.948   1.272  0.00  0.00    +0.040 C 
ENDBRANCH  23  24
ENDBRANCH  15  23
TORSDOF 3
