REMARK  Name = ZINCrD000000Ca6n.0
REMARK                            x       y       z     vdW  Elec       q    Type
REMARK                         _______ _______ _______ _____ _____    ______ ____
ROOT
ATOM      1  O   LIG    1        0.001  -0.004   0.004  0.00  0.00    -0.510 OA
ATOM      2  C   LIG    1       -0.015   1.208   0.015  0.00  0.00    +0.520 C 
ATOM      3  N   LIG    1       -1.191   1.867   0.018  0.00  0.00    -0.670 N 
ATOM      4  H   LIG    1       -1.205   2.834   0.092  0.00  0.00    +0.400 HD
ENDROOT
BRANCH   2   5
ATOM      5  C   LIG    1        1.280   1.979   0.019  0.00  0.00    +0.010 C 
ATOM      6  C   LIG    1        2.458   1.000   0.007  0.00  0.00    +0.050 C 
ATOM      7  C   LIG    1        3.768   1.789   0.072  0.00  0.00    +0.040 C 
ATOM      8  C   LIG    1        3.772   2.661   1.329  0.00  0.00    +0.200 C 
ATOM      9  N   LIG    1        2.627   3.581   1.292  0.00  0.00    -0.470 N 
ATOM     10  C   LIG    1        1.356   2.845   1.278  0.00  0.00    +0.220 C 
BRANCH   9  11
ATOM     11  C   LIG    1        2.672   4.472   2.350  0.00  0.00    +0.480 A 
ATOM     12  N   LIG    1        2.660   5.773   2.100  0.00  0.00    -0.490 NA
ATOM     13  C   LIG    1        2.696   6.652   3.088  0.00  0.00    +0.330 A 
ATOM     14  C   LIG    1        2.760   6.197   4.396  0.00  0.00    -0.080 A 
ATOM     15  C   LIG    1        2.777   4.829   4.621  0.00  0.00    +0.330 A 
ATOM     16  N   LIG    1        2.732   4.004   3.588  0.00  0.00    -0.540 NA
ENDBRANCH   9  11
ENDBRANCH   2   5
BRANCH   3  17
ATOM     17  C   LIG    1       -2.393   1.154  -0.086  0.00  0.00    +0.080 A 
ATOM     18  C   LIG    1       -2.512  -0.098   0.498  0.00  0.00    +0.070 A 
ATOM     19  C   LIG    1       -3.701  -0.796   0.399  0.00  0.00    -0.020 A 
ATOM     20  C   LIG    1       -4.770  -0.256  -0.291  0.00  0.00    +0.050 A 
ATOM     21  C   LIG    1       -4.659   0.990  -0.881  0.00  0.00    -0.050 A 
ATOM     22  C   LIG    1       -3.472   1.700  -0.782  0.00  0.00    +0.190 A 
BRANCH  22  23
ATOM     23  N   LIG    1       -3.357   2.960  -1.378  0.00  0.00    -0.750 N 
ATOM     24  H   LIG    1       -2.526   3.456  -1.308  0.00  0.00    +0.400 HD
BRANCH  23  25
ATOM     25  C   LIG    1       -4.491   3.531  -2.109  0.00  0.00    +0.310 C 
BRANCH  25  26
ATOM     26  C   LIG    1       -4.104   4.906  -2.658  0.00  0.00    +0.450 C 
ATOM     27  F   LIG    1       -3.759   5.751  -1.597  0.00  0.00    -0.180 F 
ATOM     28  F   LIG    1       -5.187   5.452  -3.355  0.00  0.00    -0.170 F 
ATOM     29  F   LIG    1       -3.012   4.773  -3.522  0.00  0.00    -0.180 F 
ENDBRANCH  25  26
ENDBRANCH  23  25
ENDBRANCH  22  23
ENDBRANCH   3  17
TORSDOF 6
