REMARK  Name = ZINCpe000027pH5u.0
REMARK                            x       y       z     vdW  Elec       q    Type
REMARK                         _______ _______ _______ _____ _____    ______ ____
ROOT
ATOM      1  N   LIG    1       -0.033   4.086  -0.529  0.00  0.00    -0.610 N 
ATOM      2  C   LIG    1       -0.205   4.705   0.668  0.00  0.00    +0.530 C 
ATOM      3  C   LIG    1        1.003   4.002   1.254  0.00  0.00    +0.260 C 
ATOM      4  O   LIG    1       -1.008   5.506   1.098  0.00  0.00    -0.460 OA
ATOM      5  C   LIG    1        1.159   3.325  -0.116  0.00  0.00    +0.320 C 
ENDROOT
BRANCH   5   6
ATOM      6  C   LIG    1        0.944   1.833  -0.083  0.00  0.00    -0.120 A 
ATOM      7  C   LIG    1       -0.338   1.320  -0.134  0.00  0.00    +0.030 A 
ATOM      8  C   LIG    1       -0.541  -0.047  -0.104  0.00  0.00    -0.030 A 
ATOM      9  C   LIG    1        0.543  -0.906  -0.022  0.00  0.00    +0.120 A 
ATOM     10  C   LIG    1        1.834  -0.390   0.029  0.00  0.00    +0.110 A 
ATOM     11  C   LIG    1        2.030   0.981  -0.002  0.00  0.00    -0.010 A 
BRANCH  10  12
ATOM     12  O   LIG    1        2.901  -1.229   0.109  0.00  0.00    -0.300 OA
ATOM     13  C   LIG    1        4.197  -0.628   0.158  0.00  0.00    +0.240 C 
ENDBRANCH  10  12
BRANCH   9  14
ATOM     14  O   LIG    1        0.345  -2.252   0.008  0.00  0.00    -0.300 OA
ATOM     15  C   LIG    1       -1.007  -2.710  -0.048  0.00  0.00    +0.240 C 
ENDBRANCH   9  14
ENDBRANCH   5   6
BRANCH   3  16
ATOM     16  N   LIG    1        0.674   3.072   2.337  0.00  0.00    -0.290 N 
ATOM     17  C   LIG    1       -0.556   2.643   2.677  0.00  0.00    +0.400 A 
ATOM     18  N   LIG    1       -0.403   1.825   3.690  0.00  0.00    -0.300 NA
ATOM     19  N   LIG    1        0.855   1.761   3.963  0.00  0.00    -0.070 NA
ATOM     20  N   LIG    1        1.508   2.513   3.147  0.00  0.00    -0.080 NA
ENDBRANCH   3  16
BRANCH   1  21
ATOM     21  C   LIG    1       -0.774   4.153  -1.790  0.00  0.00    +0.310 C 
BRANCH  21  22
ATOM     22  C   LIG    1       -0.220   5.293  -2.647  0.00  0.00    +0.020 C 
BRANCH  22  23
ATOM     23  C   LIG    1       -0.986   5.355  -3.971  0.00  0.00    +0.160 C 
BRANCH  23  25
ATOM     24  C   LIG    1       -1.117   6.564  -6.036  0.00  0.00    +0.200 C 
ATOM     25  O   LIG    1       -0.468   6.420  -4.771  0.00  0.00    -0.390 OA
ENDBRANCH  23  25
ENDBRANCH  22  23
ENDBRANCH  21  22
ENDBRANCH   1  21
TORSDOF 8
