REMARK  Name = ZINCpe000000Zesn.0
REMARK                            x       y       z     vdW  Elec       q    Type
REMARK                         _______ _______ _______ _____ _____    ______ ____
ROOT
ATOM      1  N   LIG    1        0.648   6.057  -2.406  0.00  0.00    -0.740 N 
ATOM      2  H   LIG    1        1.282   5.692  -1.769  0.00  0.00    +0.410 HD
ATOM      3  C   LIG    1       -0.646   6.205  -2.061  0.00  0.00    +0.720 C 
ATOM      4  N   LIG    1       -1.061   5.846  -0.830  0.00  0.00    -0.620 N 
ATOM      5  C   LIG    1       -0.130   5.291   0.152  0.00  0.00    +0.330 C 
ATOM      6  C   LIG    1       -0.090   3.794   0.051  0.00  0.00    -0.210 A 
ATOM      7  C   LIG    1        1.139   3.159   0.033  0.00  0.00    +0.090 A 
ATOM      8  C   LIG    1        1.179   1.772   0.000  0.00  0.00    -0.070 A 
ATOM      9  C   LIG    1       -0.013   1.076   0.008  0.00  0.00    +0.300 A 
ATOM     10  N   LIG    1       -1.165   1.708   0.017  0.00  0.00    -0.530 NA
ATOM     11  C   LIG    1       -1.259   3.041   0.018  0.00  0.00    +0.360 A 
ATOM     12  N   LIG    1       -2.517   3.567  -0.057  0.00  0.00    -0.470 N 
ATOM     13  C   LIG    1       -3.496   2.618   0.519  0.00  0.00    +0.220 C 
ATOM     14  C   LIG    1       -4.738   3.450   0.882  0.00  0.00    +0.030 C 
ATOM     15  C   LIG    1       -4.254   4.923   0.939  0.00  0.00    +0.040 C 
ATOM     16  C   LIG    1       -2.759   4.863   0.569  0.00  0.00    +0.140 C 
ATOM     17  C   LIG    1       -2.459   5.994  -0.427  0.00  0.00    +0.320 C 
ATOM     18  O   LIG    1       -1.440   6.664  -2.860  0.00  0.00    -0.580 OA
ENDROOT
BRANCH   1  19
ATOM     19  C   LIG    1        1.099   6.448  -3.744  0.00  0.00    +0.410 C 
BRANCH  19  24
ATOM     20  O   LIG    1        6.412   5.437  -4.055  0.00  0.00    -0.530 OA
ATOM     21  C   LIG    1        5.216   5.681  -4.030  0.00  0.00    +0.480 A 
ATOM     22  C   LIG    1        4.576   6.228  -5.163  0.00  0.00    +0.000 A 
ATOM     23  C   LIG    1        3.235   6.476  -5.080  0.00  0.00    +0.100 A 
ATOM     24  C   LIG    1        2.577   6.183  -3.874  0.00  0.00    +0.060 A 
ATOM     25  N   LIG    1        3.235   5.678  -2.867  0.00  0.00    -0.230 NA
ATOM     26  N   LIG    1        4.494   5.431  -2.921  0.00  0.00    -0.440 N 
ATOM     27  H   LIG    1        4.936   5.055  -2.144  0.00  0.00    +0.440 HD
ENDBRANCH  19  24
ENDBRANCH   1  19
TORSDOF 2
