REMARK  Name = ZINCrH00000Iqd39.0
REMARK                            x       y       z     vdW  Elec       q    Type
REMARK                         _______ _______ _______ _____ _____    ______ ____
ROOT
ATOM      1  C   LIG    1       -1.224  -1.952   0.040  0.00  0.00    +0.240 C 
ENDROOT
BRANCH   1   2
ATOM      2  C   LIG    1       -0.327  -2.444  -1.067  0.00  0.00    +0.030 A 
ATOM      3  N   LIG    1       -0.658  -2.652  -2.314  0.00  0.00    -0.320 NA
ATOM      4  O   LIG    1        0.286  -3.049  -2.968  0.00  0.00    +0.110 OA
ATOM      5  C   LIG    1        1.383  -3.153  -2.220  0.00  0.00    -0.030 A 
ATOM      6  C   LIG    1        2.770  -3.594  -2.604  0.00  0.00    +0.150 C 
ATOM      7  C   LIG    1        3.742  -3.129  -1.509  0.00  0.00    +0.030 C 
ATOM      8  C   LIG    1        3.210  -3.552  -0.137  0.00  0.00    +0.030 C 
ATOM      9  C   LIG    1        1.963  -2.725   0.207  0.00  0.00    +0.110 C 
ATOM     10  C   LIG    1        1.033  -2.765  -0.970  0.00  0.00    -0.200 A 
ENDBRANCH   1   2
BRANCH   1  13
ATOM     11  N   LIG    1       -0.435   0.387  -0.120  0.00  0.00    -0.730 N 
ATOM     12  H   LIG    1        0.469   0.057   0.000  0.00  0.00    +0.400 HD
ATOM     13  C   LIG    1       -1.471  -0.476  -0.133  0.00  0.00    +0.520 C 
ATOM     14  O   LIG    1       -2.602  -0.063  -0.283  0.00  0.00    -0.510 OA
BRANCH  11  16
ATOM     15  C   LIG    1        0.657   2.572  -0.235  0.00  0.00    +0.030 C 
ATOM     16  C   LIG    1       -0.675   1.822  -0.288  0.00  0.00    +0.250 C 
ENDBRANCH  11  16
ENDBRANCH   1  13
BRANCH   1  17
ATOM     17  N   LIG    1       -2.504  -2.672  -0.011  0.00  0.00    -0.480 NA
BRANCH  17  18
ATOM     18  C   LIG    1       -2.294  -4.124   0.060  0.00  0.00    +0.080 C 
ATOM     19  C   LIG    1       -2.250  -4.897  -1.260  0.00  0.00    +0.040 C 
ATOM     20  C   LIG    1       -3.464  -5.027  -0.337  0.00  0.00    +0.040 C 
ENDBRANCH  17  18
BRANCH  17  21
ATOM     21  C   LIG    1       -3.406  -2.217   1.055  0.00  0.00    +0.240 C 
BRANCH  21  22
ATOM     22  C   LIG    1       -4.815  -2.649   0.739  0.00  0.00    -0.070 A 
ATOM     23  C   LIG    1       -5.326  -3.804   1.299  0.00  0.00    +0.010 A 
ATOM     24  C   LIG    1       -6.619  -4.200   1.009  0.00  0.00    +0.000 A 
ATOM     25  C   LIG    1       -7.400  -3.439   0.160  0.00  0.00    +0.000 A 
ATOM     26  C   LIG    1       -6.889  -2.284  -0.401  0.00  0.00    -0.090 A 
ATOM     27  C   LIG    1       -7.740  -1.455  -1.328  0.00  0.00    +0.090 C 
ATOM     28  C   LIG    1       -5.598  -1.885  -0.107  0.00  0.00    +0.040 A 
ENDBRANCH  21  22
ENDBRANCH  17  21
ENDBRANCH   1  17
TORSDOF 7
