REMARK  Name = ZINCvU0000000874.0
REMARK                            x       y       z     vdW  Elec       q    Type
REMARK                         _______ _______ _______ _____ _____    ______ ____
ROOT
ATOM      1  N   LIG    1       -4.818  -0.489   0.042  0.00  0.00    -0.610 N 
ATOM      2  H   LIG    1       -5.011   0.461   0.048  0.00  0.00    +0.430 HD
ATOM      3  C   LIG    1       -5.828  -1.382   0.046  0.00  0.00    +0.610 C 
ATOM      4  O   LIG    1       -5.586  -2.574   0.038  0.00  0.00    -0.480 OA
ENDROOT
BRANCH   3   5
ATOM      5  C   LIG    1       -7.224  -0.914   0.060  0.00  0.00    -0.260 A 
ATOM      6  C   LIG    1       -7.993  -0.658   1.181  0.00  0.00    +0.170 A 
ATOM      7  N   LIG    1       -9.203  -0.251   0.753  0.00  0.00    -0.290 N 
ATOM      8  N   LIG    1       -9.200  -0.250  -0.647  0.00  0.00    -0.260 NA
ATOM      9 CL   LIG    1       -7.491  -0.829   2.834  0.00  0.00    +0.030 Cl
ATOM     10  C   LIG    1       -8.028  -0.635  -1.069  0.00  0.00    +0.140 A 
ATOM     11  C   LIG    1       -7.606  -0.766  -2.510  0.00  0.00    +0.180 C 
BRANCH   7  12
ATOM     12  C   LIG    1      -10.283   0.110   1.571  0.00  0.00    +0.120 A 
ATOM     13  C   LIG    1      -10.497  -0.553   2.772  0.00  0.00    +0.050 A 
ATOM     14  C   LIG    1      -11.558  -0.192   3.579  0.00  0.00    +0.020 A 
ATOM     15  C   LIG    1      -12.415   0.822   3.185  0.00  0.00    +0.110 A 
ATOM     16  C   LIG    1      -12.207   1.480   1.984  0.00  0.00    +0.010 A 
ATOM     17  F   LIG    1      -13.456   1.170   3.973  0.00  0.00    -0.130 F 
ATOM     18  C   LIG    1      -11.143   1.126   1.177  0.00  0.00    +0.080 A 
ENDBRANCH   7  12
ENDBRANCH   3   5
BRANCH   1  22
ATOM     19  C   LIG    1       -1.272  -0.764   0.010  0.00  0.00    +0.130 A 
ATOM     20  C   LIG    1       -1.306  -2.109  -0.003  0.00  0.00    -0.110 A 
ATOM     21  S   LIG    1       -2.993  -2.617   0.015  0.00  0.00    +0.210 S 
ATOM     22  C   LIG    1       -3.501  -0.931   0.028  0.00  0.00    +0.280 A 
ATOM     23  N   LIG    1       -2.454  -0.166   0.023  0.00  0.00    -0.500 NA
BRANCH  19  27
ATOM     24  C   LIG    1        2.383   1.415  -0.013  0.00  0.00    +0.100 A 
ATOM     25  C   LIG    1        2.403   0.028  -0.021  0.00  0.00    -0.040 A 
ATOM     26  C   LIG    1        1.220  -0.682  -0.013  0.00  0.00    +0.070 A 
ATOM     27  C   LIG    1        0.002  -0.004   0.002  0.00  0.00    -0.030 A 
ATOM     28  C   LIG    1       -0.017   1.390   0.010  0.00  0.00    +0.070 A 
ATOM     29  C   LIG    1        1.171   2.095   0.002  0.00  0.00    +0.070 A 
ATOM     30  F   LIG    1        1.154   3.446   0.009  0.00  0.00    -0.130 F 
BRANCH  24  32
ATOM     31  C   LIG    1        4.760   1.348  -0.036  0.00  0.00    +0.240 C 
ATOM     32  O   LIG    1        3.551   2.110  -0.021  0.00  0.00    -0.310 OA
ENDBRANCH  24  32
ENDBRANCH  19  27
ENDBRANCH   1  22
TORSDOF 5
