REMARK  Name = ZINC5j0000002nnY.0
REMARK                            x       y       z     vdW  Elec       q    Type
REMARK                         _______ _______ _______ _____ _____    ______ ____
ROOT
ATOM      1  C   LIG    1        0.011   1.072   2.506  0.00  0.00    +0.190 C 
ENDROOT
BRANCH   1   3
ATOM      2  C   LIG    1       -0.013   1.086   0.008  0.00  0.00    +0.030 C 
ATOM      3  C   LIG    1       -0.729   1.579   1.267  0.00  0.00    +0.020 C 
ENDBRANCH   1   3
BRANCH   1   4
ATOM      4  C   LIG    1       -0.678   1.547   3.717  0.00  0.00    +0.200 C 
ATOM      5  N   LIG    1       -1.210   1.913   4.652  0.00  0.00    -0.440 NA
ENDBRANCH   1   4
TORSDOF 2
