REMARK  Name = ZINCvU000000083x.0
REMARK                            x       y       z     vdW  Elec       q    Type
REMARK                         _______ _______ _______ _____ _____    ______ ____
ROOT
ATOM      1  C   LIG    1       -2.382   1.103   3.018  0.00  0.00    -0.100 A 
ATOM      2  C   LIG    1       -2.801   0.093   3.887  0.00  0.00    +0.070 A 
ATOM      3  C   LIG    1       -3.420   0.418   5.072  0.00  0.00    +0.050 A 
ATOM      4  C   LIG    1       -3.640   1.758   5.401  0.00  0.00    -0.000 A 
ATOM      5  C   LIG    1       -3.226   2.769   4.529  0.00  0.00    +0.080 A 
ATOM      6  C   LIG    1       -2.601   2.444   3.346  0.00  0.00    +0.060 A 
ENDROOT
BRANCH   4   7
ATOM      7  C   LIG    1       -4.310   2.107   6.669  0.00  0.00    +0.200 A 
ATOM      8  N   LIG    1       -4.579   3.320   7.099  0.00  0.00    -0.260 NA
ATOM      9  N   LIG    1       -5.167   3.247   8.241  0.00  0.00    -0.270 NA
ATOM     10  C   LIG    1       -5.298   1.985   8.585  0.00  0.00    +0.220 A 
ATOM     11  O   LIG    1       -4.765   1.240   7.597  0.00  0.00    -0.210 OA
BRANCH  10  12
ATOM     12  C   LIG    1       -5.921   1.477   9.824  0.00  0.00    -0.030 A 
ATOM     13  C   LIG    1       -5.997   0.103  10.058  0.00  0.00    +0.050 A 
ATOM     14  C   LIG    1       -6.575  -0.365  11.221  0.00  0.00    +0.010 A 
ATOM     15  C   LIG    1       -7.088   0.524  12.148  0.00  0.00    +0.040 A 
ATOM     16  C   LIG    1       -7.021   1.887  11.920  0.00  0.00    +0.020 A 
ATOM     17  C   LIG    1       -6.441   2.369  10.764  0.00  0.00    +0.080 A 
ENDBRANCH  10  12
ENDBRANCH   4   7
BRANCH   1  19
ATOM     18  N   LIG    1       -0.649   1.467   1.329  0.00  0.00    -0.600 N 
ATOM     19  C   LIG    1       -1.713   0.754   1.748  0.00  0.00    +0.560 C 
ATOM     20  O   LIG    1       -2.122  -0.176   1.081  0.00  0.00    -0.520 OA
ATOM     21  C   LIG    1       -0.216   2.648   2.080  0.00  0.00    +0.290 C 
BRANCH  18  22
ATOM     22  C   LIG    1        0.075   1.062   0.122  0.00  0.00    +0.340 C 
BRANCH  22  26
ATOM     23  C   LIG    1       -1.649   2.979  -3.286  0.00  0.00    +0.140 A 
ATOM     24  C   LIG    1       -0.616   3.593  -2.592  0.00  0.00    -0.030 A 
ATOM     25  C   LIG    1       -0.061   2.971  -1.490  0.00  0.00    +0.070 A 
ATOM     26  C   LIG    1       -0.533   1.738  -1.080  0.00  0.00    -0.150 A 
ATOM     27  C   LIG    1       -1.558   1.121  -1.774  0.00  0.00    +0.080 A 
ATOM     28  C   LIG    1       -2.121   1.742  -2.872  0.00  0.00    -0.080 A 
BRANCH  23  29
ATOM     29  O   LIG    1       -2.196   3.588  -4.370  0.00  0.00    -0.320 OA
BRANCH  29  31
ATOM     30  C   LIG    1       -3.742   3.733  -6.223  0.00  0.00    +0.070 C 
ATOM     31  C   LIG    1       -3.256   2.898  -5.036  0.00  0.00    +0.170 C 
ENDBRANCH  29  31
ENDBRANCH  23  29
ENDBRANCH  22  26
ENDBRANCH  18  22
ENDBRANCH   1  19
TORSDOF 7
