REMARK  Name = ZINCrD00000l1cmU.0
REMARK                            x       y       z     vdW  Elec       q    Type
REMARK                         _______ _______ _______ _____ _____    ______ ____
ROOT
ATOM      1  C   LIG    1       -0.019   5.651  -0.184  0.00  0.00    +0.130 C 
ENDROOT
BRANCH   1   5
ATOM      2  C   LIG    1       -4.057   7.037  -0.423  0.00  0.00    -0.130 A 
ATOM      3  C   LIG    1       -3.437   6.894   0.820  0.00  0.00    +0.090 A 
ATOM      4  C   LIG    1       -2.134   6.447   0.890  0.00  0.00    +0.010 A 
ATOM      5  C   LIG    1       -1.442   6.140  -0.268  0.00  0.00    -0.030 A 
ATOM      6  C   LIG    1       -2.049   6.284  -1.503  0.00  0.00    +0.010 A 
ATOM      7  C   LIG    1       -3.353   6.725  -1.587  0.00  0.00    +0.080 A 
BRANCH   2   8
ATOM      8  C   LIG    1       -5.452   7.517  -0.505  0.00  0.00    +0.510 C 
ATOM      9  O   LIG    1       -6.062   7.788   0.509  0.00  0.00    -0.500 OA
BRANCH   8  10
ATOM     10  O   LIG    1       -6.048   7.653  -1.706  0.00  0.00    -0.350 OA
BRANCH  10  12
ATOM     11  C   LIG    1       -7.481   9.513  -1.062  0.00  0.00    +0.030 C 
ATOM     12  C   LIG    1       -7.419   8.129  -1.711  0.00  0.00    +0.120 C 
ATOM     13  C   LIG    1       -8.300   7.157  -0.924  0.00  0.00    +0.030 C 
ATOM     14  C   LIG    1       -7.922   8.220  -3.153  0.00  0.00    +0.080 C 
ENDBRANCH  10  12
ENDBRANCH   8  10
ENDBRANCH   2   8
ENDBRANCH   1   5
BRANCH   1  15
ATOM     15  C   LIG    1       -0.009   4.148  -0.078  0.00  0.00    +0.530 C 
ATOM     16  N   LIG    1        1.162   3.487   0.009  0.00  0.00    -0.570 N 
ATOM     17  O   LIG    1       -1.054   3.534  -0.072  0.00  0.00    -0.510 OA
BRANCH  16  18
ATOM     18  C   LIG    1        1.176   2.087   0.025  0.00  0.00    +0.170 A 
ATOM     19  C   LIG    1        1.566   1.409   1.172  0.00  0.00    +0.000 A 
ATOM     20  C   LIG    1        1.579   0.028   1.186  0.00  0.00    +0.060 A 
ATOM     21  C   LIG    1        1.204  -0.681   0.060  0.00  0.00    -0.010 A 
ATOM     22  C   LIG    1        0.815  -0.008  -1.087  0.00  0.00    +0.110 A 
ATOM     23  F   LIG    1        0.449  -0.702  -2.186  0.00  0.00    -0.140 F 
ATOM     24  C   LIG    1        0.800   1.375  -1.106  0.00  0.00    -0.010 A 
ENDBRANCH  16  18
BRANCH  16  25
ATOM     25  C   LIG    1        2.421   4.232   0.087  0.00  0.00    +0.310 C 
BRANCH  25  26
ATOM     26  C   LIG    1        2.958   4.476  -1.324  0.00  0.00    +0.160 C 
BRANCH  26  27
ATOM     27  O   LIG    1        2.057   5.328  -2.036  0.00  0.00    -0.570 OA
ATOM     28  H   LIG    1        2.335   5.526  -2.941  0.00  0.00    +0.380 HD
ENDBRANCH  26  27
ENDBRANCH  25  26
ENDBRANCH  16  25
ENDBRANCH   1  15
TORSDOF 9
