REMARK  Name = ZINCrD000000Be2u.0
REMARK                            x       y       z     vdW  Elec       q    Type
REMARK                         _______ _______ _______ _____ _____    ______ ____
ROOT
ATOM      1  C   LIG    1       -4.357  -1.732   5.255  0.00  0.00    +0.510 C 
ATOM      2  N   LIG    1       -4.659  -2.001   6.541  0.00  0.00    -0.640 N 
ATOM      3  H   LIG    1       -4.146  -1.592   7.255  0.00  0.00    +0.430 HD
ATOM      4  O   LIG    1       -4.944  -2.307   4.361  0.00  0.00    -0.490 OA
ENDROOT
BRANCH   2   5
ATOM      5  C   LIG    1       -5.711  -2.870   6.845  0.00  0.00    +0.150 A 
ATOM      6  C   LIG    1       -5.973  -3.956   6.024  0.00  0.00    +0.050 A 
ATOM      7  C   LIG    1       -7.019  -4.822   6.334  0.00  0.00    -0.020 A 
ATOM      8  C   LIG    1       -7.804  -4.585   7.461  0.00  0.00    +0.030 A 
ATOM      9  C   LIG    1       -7.541  -3.498   8.271  0.00  0.00    +0.050 A 
ATOM     10  C   LIG    1       -6.500  -2.641   7.968  0.00  0.00    -0.060 A 
ATOM     11 CL   LIG    1       -6.176  -1.276   8.991  0.00  0.00    -0.060 Cl
BRANCH   7  12
ATOM     12  C   LIG    1       -7.301  -5.989   5.462  0.00  0.00    -0.050 A 
ATOM     13  C   LIG    1       -6.520  -6.223   4.332  0.00  0.00    +0.030 A 
ATOM     14  C   LIG    1       -6.783  -7.314   3.529  0.00  0.00    +0.010 A 
ATOM     15  C   LIG    1       -7.827  -8.167   3.837  0.00  0.00    +0.010 A 
ATOM     16  C   LIG    1       -8.609  -7.937   4.954  0.00  0.00    +0.010 A 
ATOM     17  C   LIG    1       -8.351  -6.852   5.768  0.00  0.00    +0.020 A 
ENDBRANCH   7  12
ENDBRANCH   2   5
BRANCH   1  19
ATOM     18  O   LIG    1       -2.713  -0.154   5.824  0.00  0.00    -0.510 OA
ATOM     19  C   LIG    1       -3.300  -0.728   4.930  0.00  0.00    +0.510 C 
ATOM     20  N   LIG    1       -2.998  -0.460   3.645  0.00  0.00    -0.690 N 
ATOM     21  H   LIG    1       -3.467  -0.918   2.930  0.00  0.00    +0.420 HD
BRANCH  20  22
ATOM     22  C   LIG    1       -1.961   0.525   3.326  0.00  0.00    +0.310 C 
BRANCH  22  23
ATOM     23  C   LIG    1       -1.816   0.640   1.807  0.00  0.00    -0.040 C 
ATOM     24  C   LIG    1       -0.697   1.543   1.266  0.00  0.00    -0.020 C 
ATOM     25  C   LIG    1        0.017   1.042   0.009  0.00  0.00    +0.030 C 
ATOM     26  C   LIG    1       -0.718   1.552  -1.233  0.00  0.00    +0.220 C 
ATOM     27  O   LIG    1       -2.100   1.194  -1.123  0.00  0.00    -0.380 OA
ATOM     28  C   LIG    1       -2.822   2.013  -0.202  0.00  0.00    +0.250 C 
ATOM     29  C   LIG    1       -2.155   1.981   1.167  0.00  0.00    -0.070 C 
ENDBRANCH  22  23
ENDBRANCH  20  22
ENDBRANCH   1  19
TORSDOF 5
