REMARK  Name = ZINCvU0000000930.1
REMARK                            x       y       z     vdW  Elec       q    Type
REMARK                         _______ _______ _______ _____ _____    ______ ____
ROOT
ATOM      1  C   LIG    1        7.721   4.663  -0.408  0.00  0.00    +0.030 C 
ATOM      2  C   LIG    1        6.409   4.381  -1.144  0.00  0.00    -0.010 C 
ATOM      3  C   LIG    1        5.333   5.337  -0.634  0.00  0.00    +0.020 C 
ATOM      4  C   LIG    1        5.184   5.112   0.862  0.00  0.00    +0.050 C 
ATOM      5  C   LIG    1        4.710   3.710   1.156  0.00  0.00    +0.170 C 
ATOM      6  O   LIG    1        3.387   3.449   0.672  0.00  0.00    -0.290 OA
ATOM      7  C   LIG    1        3.273   2.097   0.498  0.00  0.00    +0.120 A 
ATOM      8  C   LIG    1        4.500   1.502   0.381  0.00  0.00    -0.160 A 
ATOM      9  C   LIG    1        4.635   0.133   0.200  0.00  0.00    +0.040 A 
ATOM     10  C   LIG    1        3.525  -0.682   0.131  0.00  0.00    +0.130 A 
ATOM     11  C   LIG    1        2.240  -0.108   0.246  0.00  0.00    -0.030 A 
ATOM     12  C   LIG    1        1.083  -0.901   0.181  0.00  0.00    +0.010 A 
ATOM     13  C   LIG    1       -0.141  -0.317   0.293  0.00  0.00    +0.030 A 
ATOM     14  C   LIG    1       -0.266   1.059   0.471  0.00  0.00    +0.010 A 
ATOM     15  C   LIG    1        0.834   1.859   0.539  0.00  0.00    +0.040 A 
ATOM     16  C   LIG    1        2.114   1.290   0.429  0.00  0.00    -0.040 A 
ATOM     17  C   LIG    1        5.543   2.614   0.488  0.00  0.00    +0.040 C 
ATOM     18  C   LIG    1        6.010   2.942  -0.912  0.00  0.00    +0.030 C 
ENDROOT
BRANCH  10  19
ATOM     19  N   LIG    1        3.669  -2.059  -0.051  0.00  0.00    -1.040 N 
ATOM     20  H   LIG    1        3.024  -2.548  -0.585  0.00  0.00    +0.430 HD
BRANCH  19  21
ATOM     21  S   LIG    1        4.942  -2.858   0.647  0.00  0.00    +2.690 S 
ATOM     22  O   LIG    1        6.117  -2.166   0.246  0.00  0.00    -0.930 OA
ATOM     23  O   LIG    1        4.731  -4.241   0.400  0.00  0.00    -0.930 OA
BRANCH  21  24
ATOM     24  C   LIG    1        4.804  -2.637   2.389  0.00  0.00    -0.680 A 
ATOM     25  C   LIG    1        5.418  -1.560   3.000  0.00  0.00    +0.190 A 
ATOM     26  C   LIG    1        5.307  -1.384   4.367  0.00  0.00    +0.030 A 
ATOM     27  C   LIG    1        4.588  -2.291   5.124  0.00  0.00    +0.170 A 
ATOM     28  C   LIG    1        3.978  -3.371   4.514  0.00  0.00    -0.060 A 
ATOM     29  C   LIG    1        4.086  -3.544   3.147  0.00  0.00    +0.220 A 
BRANCH  28  30
ATOM     30  N   LIG    1        3.209  -4.341   5.324  0.00  0.00    +0.030 N 
ATOM     31  O   LIG    1        3.114  -4.189   6.529  0.00  0.00    -0.150 OA
ATOM     32  O   LIG    1        2.671  -5.293   4.787  0.00  0.00    -0.150 OA
ENDBRANCH  28  30
ENDBRANCH  21  24
ENDBRANCH  19  21
ENDBRANCH  10  19
TORSDOF 4
