REMARK  Name = ZINCnE00000dI0lC.0
REMARK                            x       y       z     vdW  Elec       q    Type
REMARK                         _______ _______ _______ _____ _____    ______ ____
ROOT
ATOM      1  C   LIG    1       -8.340   3.257   0.839  0.00  0.00    -0.060 C 
ATOM      2  C   LIG    1       -7.713   2.001   1.480  0.00  0.00    +0.050 C 
ATOM      3  C   LIG    1       -6.329   1.939   0.799  0.00  0.00    +0.060 C 
ATOM      4  C   LIG    1       -6.013   3.367   0.409  0.00  0.00    -0.090 A 
ATOM      5  C   LIG    1       -4.798   3.965   0.070  0.00  0.00    -0.050 A 
ATOM      6  C   LIG    1       -4.756   5.320  -0.250  0.00  0.00    +0.000 A 
ATOM      7  C   LIG    1       -5.915   6.067  -0.224  0.00  0.00    -0.010 A 
ATOM      8  C   LIG    1       -7.115   5.473   0.118  0.00  0.00    +0.030 A 
ATOM      9  C   LIG    1       -7.166   4.125   0.438  0.00  0.00    -0.040 A 
ENDROOT
BRANCH   5  10
ATOM     10  C   LIG    1       -3.555   3.156   0.045  0.00  0.00    -0.040 A 
ATOM     11  C   LIG    1       -3.221   2.354   1.134  0.00  0.00    +0.030 A 
ATOM     12  C   LIG    1       -2.056   1.615   1.120  0.00  0.00    -0.020 A 
ATOM     13  C   LIG    1       -1.213   1.671   0.017  0.00  0.00    +0.170 A 
ATOM     14  N   LIG    1       -0.011   0.966   0.007  0.00  0.00    -0.790 N 
ATOM     15  H   LIG    1        0.002  -0.004   0.002  0.00  0.00    +0.400 HD
ATOM     16  C   LIG    1        1.240   1.746  -0.000  0.00  0.00    +0.250 C 
ATOM     17  C   LIG    1        1.559   2.188  -1.410  0.00  0.00    +0.180 C 
ATOM     18  O   LIG    1        0.574   3.050  -1.967  0.00  0.00    -0.380 OA
ATOM     19  C   LIG    1       -0.671   2.443  -2.299  0.00  0.00    +0.260 C 
ATOM     20  C   LIG    1       -1.571   2.447  -1.075  0.00  0.00    -0.140 A 
ATOM     21  C   LIG    1       -2.721   3.198  -1.057  0.00  0.00    +0.040 A 
ENDBRANCH   5  10
BRANCH   1  23
ATOM     22  O   LIG    1       -9.752   1.819  -0.398  0.00  0.00    -0.690 OA
ATOM     23  C   LIG    1       -9.148   2.878  -0.375  0.00  0.00    +0.510 C 
ATOM     24  O   LIG    1       -9.199   3.629  -1.333  0.00  0.00    -0.690 OA
ENDBRANCH   1  23
TORSDOF 2
