REMARK  Name = ZINCpk00000y6zfM.0
REMARK                            x       y       z     vdW  Elec       q    Type
REMARK                         _______ _______ _______ _____ _____    ______ ____
ROOT
ATOM      1  N   LIG    1       -0.723   1.572  -1.182  0.00  0.00    -0.530 NA
ATOM      2  C   LIG    1       -1.059   2.996  -1.049  0.00  0.00    +0.160 C 
ATOM      3  C   LIG    1       -1.922   3.431  -2.236  0.00  0.00    +0.030 C 
ATOM      4  C   LIG    1       -1.151   3.189  -3.537  0.00  0.00    -0.040 C 
ATOM      5  C   LIG    1       -0.771   1.708  -3.627  0.00  0.00    +0.040 C 
ATOM      6  C   LIG    1        0.058   1.323  -2.400  0.00  0.00    +0.170 C 
ENDROOT
BRANCH   1   7
ATOM      7  C   LIG    1       -0.013   1.086   0.008  0.00  0.00    +0.240 C 
BRANCH   7  11
ATOM      8  C   LIG    1       -2.031   2.450   3.532  0.00  0.00    +0.180 A 
ATOM      9  C   LIG    1       -2.375   1.239   2.953  0.00  0.00    -0.070 A 
ATOM     10  C   LIG    1       -1.721   0.804   1.816  0.00  0.00    +0.120 A 
ATOM     11  C   LIG    1       -0.718   1.572   1.248  0.00  0.00    -0.120 A 
ATOM     12  C   LIG    1       -0.358   2.776   1.815  0.00  0.00    +0.110 A 
ATOM     13  C   LIG    1       -1.016   3.230   2.960  0.00  0.00    -0.060 A 
BRANCH   8  15
ATOM     14  C   LIG    1       -3.695   2.030   5.175  0.00  0.00    +0.250 C 
ATOM     15  O   LIG    1       -2.672   2.879   4.648  0.00  0.00    -0.310 OA
ENDBRANCH   8  15
BRANCH  13  16
ATOM     16  C   LIG    1       -0.651   4.483   3.550  0.00  0.00    +0.260 C 
ATOM     17  N   LIG    1       -0.362   5.477   4.019  0.00  0.00    -0.410 NA
ENDBRANCH  13  16
ENDBRANCH   7  11
ENDBRANCH   1   7
BRANCH   4  18
ATOM     18  C   LIG    1       -2.031   3.565  -4.730  0.00  0.00    +0.230 C 
BRANCH  18  19
ATOM     19  C   LIG    1       -2.303   5.047  -4.707  0.00  0.00    +0.490 C 
ATOM     20  N   LIG    1       -1.290   5.920  -4.870  0.00  0.00    -0.700 N 
ATOM     21  H   LIG    1       -0.386   5.595  -5.003  0.00  0.00    +0.400 HD
ATOM     22  O   LIG    1       -3.434   5.453  -4.540  0.00  0.00    -0.530 OA
BRANCH  20  23
ATOM     23  C   LIG    1       -1.554   7.361  -4.847  0.00  0.00    +0.220 C 
ATOM     24  C   LIG    1       -0.869   8.222  -5.910  0.00  0.00    +0.010 C 
ATOM     25  C   LIG    1       -0.400   8.285  -4.455  0.00  0.00    +0.010 C 
ENDBRANCH  20  23
ENDBRANCH  18  19
BRANCH  18  26
ATOM     26  O   LIG    1       -3.268   2.852  -4.654  0.00  0.00    -0.530 OA
ATOM     27  H   LIG    1       -3.778   3.036  -3.853  0.00  0.00    +0.380 HD
ENDBRANCH  18  26
ENDBRANCH   4  18
TORSDOF 8
