REMARK  Name = ZINCpe000000WaiI.0
REMARK                            x       y       z     vdW  Elec       q    Type
REMARK                         _______ _______ _______ _____ _____    ______ ____
ROOT
ATOM      1  C   LIG    1        0.790  -1.233   3.470  0.00  0.00    +0.260 C 
ATOM      2  C   LIG    1       -0.701  -0.857   3.639  0.00  0.00    +0.060 C 
ATOM      3  C   LIG    1       -1.178  -0.796   2.171  0.00  0.00    +0.280 C 
ATOM      4  N   LIG    1        0.022  -0.500   1.381  0.00  0.00    -0.590 N 
ATOM      5  C   LIG    1        1.142  -0.747   2.082  0.00  0.00    +0.520 C 
ATOM      6  O   LIG    1        2.270  -0.599   1.663  0.00  0.00    -0.520 OA
ENDROOT
BRANCH   1  11
ATOM      7  C   LIG    1        0.505  -6.811   4.521  0.00  0.00    +0.170 C 
ATOM      8  C   LIG    1        1.188  -5.642   5.277  0.00  0.00    +0.100 C 
ATOM      9  C   LIG    1        1.705  -4.762   4.121  0.00  0.00    +0.190 C 
ATOM     10  C   LIG    1        1.734  -3.300   4.488  0.00  0.00    +0.530 C 
ATOM     11  N   LIG    1        0.965  -2.684   3.562  0.00  0.00    -0.570 N 
ATOM     12  C   LIG    1        0.379  -3.570   2.742  0.00  0.00    +0.740 C 
ATOM     13  O   LIG    1       -0.271  -3.263   1.762  0.00  0.00    -0.520 OA
ATOM     14  O   LIG    1        2.322  -2.787   5.416  0.00  0.00    -0.450 OA
ATOM     15  N   LIG    1        0.598  -4.829   3.129  0.00  0.00    -0.630 N 
ATOM     16  C   LIG    1        0.186  -6.244   3.119  0.00  0.00    +0.330 C 
BRANCH   7  18
ATOM     17  C   LIG    1       -1.030  -8.579   5.032  0.00  0.00    +0.220 C 
ATOM     18  O   LIG    1       -0.699  -7.197   5.186  0.00  0.00    -0.370 OA
ENDBRANCH   7  18
ENDBRANCH   1  11
BRANCH   4  19
ATOM     19  C   LIG    1        0.002  -0.004   0.002  0.00  0.00    +0.350 C 
BRANCH  19  20
ATOM     20  C   LIG    1       -0.018   1.503   0.010  0.00  0.00    -0.110 A 
ATOM     21  C   LIG    1       -1.225   2.178   0.020  0.00  0.00    +0.020 A 
ATOM     22  C   LIG    1       -1.244   3.560   0.032  0.00  0.00    +0.000 A 
ATOM     23  C   LIG    1       -0.056   4.267   0.025  0.00  0.00    +0.010 A 
ATOM     24  C   LIG    1        1.151   3.592   0.010  0.00  0.00    +0.000 A 
ATOM     25  C   LIG    1        1.169   2.210   0.003  0.00  0.00    +0.030 A 
ENDBRANCH  19  20
ENDBRANCH   4  19
TORSDOF 4
