REMARK  Name = ZINCrH000004ssYz.0
REMARK                            x       y       z     vdW  Elec       q    Type
REMARK                         _______ _______ _______ _____ _____    ______ ____
ROOT
ATOM      1  N   LIG    1        3.702   3.966   1.157  0.00  0.00    -0.660 N 
ATOM      2  H   LIG    1        3.400   3.365   1.856  0.00  0.00    +0.410 HD
ATOM      3  C   LIG    1        2.826   4.432   0.244  0.00  0.00    +0.580 C 
ATOM      4  O   LIG    1        3.183   5.259  -0.574  0.00  0.00    -0.500 OA
ENDROOT
BRANCH   3   5
ATOM      5  C   LIG    1        1.440   3.941   0.237  0.00  0.00    -0.120 A 
ATOM      6  C   LIG    1        0.458   4.578   0.982  0.00  0.00    +0.060 A 
ATOM      7  C   LIG    1       -0.856   4.123   0.985  0.00  0.00    -0.030 A 
ATOM      8  C   LIG    1       -1.256   3.039   0.272  0.00  0.00    +0.150 A 
ATOM      9  C   LIG    1       -0.338   2.324  -0.521  0.00  0.00    -0.220 A 
ATOM     10  C   LIG    1       -0.416   1.214  -1.344  0.00  0.00    +0.310 A 
ATOM     11  N   LIG    1        0.806   0.985  -1.841  0.00  0.00    -0.420 N 
ATOM     12  H   LIG    1        1.034   0.264  -2.449  0.00  0.00    +0.450 HD
ATOM     13  N   LIG    1        1.707   1.940  -1.354  0.00  0.00    -0.290 NA
ATOM     14 CL   LIG    1        0.878   5.971   1.930  0.00  0.00    -0.040 Cl
ATOM     15  C   LIG    1        1.065   2.765  -0.557  0.00  0.00    +0.140 A 
ENDBRANCH   3   5
BRANCH   1  19
ATOM     16  C   LIG    1        7.707   5.106   0.975  0.00  0.00    +0.120 A 
ATOM     17  C   LIG    1        7.108   4.873   2.204  0.00  0.00    +0.010 A 
ATOM     18  C   LIG    1        5.782   4.495   2.265  0.00  0.00    +0.040 A 
ATOM     19  C   LIG    1        5.047   4.349   1.096  0.00  0.00    +0.110 A 
ATOM     20  C   LIG    1        5.649   4.577  -0.135  0.00  0.00    +0.060 A 
ATOM     21  C   LIG    1        6.974   4.961  -0.194  0.00  0.00    -0.060 A 
BRANCH  16  22
ATOM     22  O   LIG    1        9.014   5.478   0.915  0.00  0.00    -0.310 OA
BRANCH  22  23
ATOM     23  C   LIG    1        9.566   5.702  -0.384  0.00  0.00    +0.350 C 
BRANCH  23  27
ATOM     24  C   LIG    1       13.782   8.360   0.107  0.00  0.00    +0.260 C 
ATOM     25  C   LIG    1       12.787   7.239  -0.045  0.00  0.00    +0.180 A 
ATOM     26  N   LIG    1       11.484   7.358  -0.133  0.00  0.00    -0.470 NA
ATOM     27  C   LIG    1       11.013   6.103  -0.252  0.00  0.00    +0.170 A 
ATOM     28  N   LIG    1       12.035   5.301  -0.238  0.00  0.00    -0.360 NA
ATOM     29  O   LIG    1       13.064   5.934  -0.120  0.00  0.00    +0.090 OA
ENDBRANCH  23  27
ENDBRANCH  22  23
ENDBRANCH  16  22
ENDBRANCH   1  19
TORSDOF 5
