REMARK  Name = ZINCrg00000fS6rH.0
REMARK                            x       y       z     vdW  Elec       q    Type
REMARK                         _______ _______ _______ _____ _____    ______ ____
ROOT
ATOM      1  N   LIG    1        0.276   8.037   1.745  0.00  0.00    -0.720 N 
ATOM      2  H   LIG    1       -0.656   8.266   1.889  0.00  0.00    +0.400 HD
ATOM      3  C   LIG    1        0.665   6.747   1.777  0.00  0.00    +0.530 C 
ATOM      4  O   LIG    1        1.830   6.461   1.597  0.00  0.00    -0.530 OA
ENDROOT
BRANCH   3   5
ATOM      5  C   LIG    1       -0.346   5.661   2.037  0.00  0.00    +0.000 C 
ATOM      6  C   LIG    1       -1.431   5.641   0.935  0.00  0.00    +0.070 C 
ATOM      7  C   LIG    1       -1.731   4.171   0.736  0.00  0.00    +0.520 C 
ATOM      8  N   LIG    1       -0.754   3.423   1.277  0.00  0.00    -0.620 N 
ATOM      9  O   LIG    1       -2.709   3.732   0.170  0.00  0.00    -0.520 OA
ATOM     10  C   LIG    1        0.287   4.262   1.882  0.00  0.00    +0.300 C 
BRANCH   8  11
ATOM     11  C   LIG    1       -0.734   1.958   1.269  0.00  0.00    +0.300 C 
BRANCH  11  12
ATOM     12  C   LIG    1       -0.018   1.465   0.010  0.00  0.00    +0.160 C 
BRANCH  12  13
ATOM     13  N   LIG    1        0.002  -0.004   0.002  0.00  0.00    -0.530 NA
ATOM     14  C   LIG    1        0.833  -0.526   1.097  0.00  0.00    +0.150 C 
ATOM     15  C   LIG    1        0.778  -2.056   1.087  0.00  0.00    +0.220 C 
ATOM     16  O   LIG    1        1.203  -2.535  -0.191  0.00  0.00    -0.390 OA
ATOM     17  C   LIG    1        0.415  -2.048  -1.280  0.00  0.00    +0.220 C 
ATOM     18  C   LIG    1        0.466  -0.517  -1.295  0.00  0.00    +0.150 C 
ENDBRANCH  12  13
ENDBRANCH  11  12
ENDBRANCH   8  11
ENDBRANCH   3   5
BRANCH   1  20
ATOM     19  C   LIG    1        1.447   9.265  -0.016  0.00  0.00    +0.030 C 
ATOM     20  C   LIG    1        1.259   9.093   1.493  0.00  0.00    +0.240 C 
BRANCH  20  21
ATOM     21  C   LIG    1        0.762  10.408   2.098  0.00  0.00    +0.090 C 
BRANCH  21  22
ATOM     22  C   LIG    1        0.694  10.276   3.598  0.00  0.00    -0.120 A 
ATOM     23  C   LIG    1       -0.497   9.934   4.208  0.00  0.00    +0.040 A 
ATOM     24  C   LIG    1       -0.558   9.807   5.584  0.00  0.00    +0.000 A 
ATOM     25  C   LIG    1        0.569  10.034   6.351  0.00  0.00    +0.040 A 
ATOM     26  C   LIG    1        1.760  10.383   5.743  0.00  0.00    -0.010 A 
ATOM     27  C   LIG    1        1.824  10.504   4.365  0.00  0.00    +0.100 A 
ATOM     28  F   LIG    1        2.989  10.844   3.770  0.00  0.00    -0.140 F 
ENDBRANCH  21  22
ENDBRANCH  20  21
ENDBRANCH   1  20
TORSDOF 7
