REMARK  Name = ZINCrH000004pvfy.1
REMARK                            x       y       z     vdW  Elec       q    Type
REMARK                         _______ _______ _______ _____ _____    ______ ____
ROOT
ATOM      1  C   LIG    1        6.300  -1.581   0.926  0.00  0.00    +0.060 C 
ATOM      2  C   LIG    1        6.086  -0.678  -0.290  0.00  0.00    +0.150 C 
ENDROOT
BRANCH   2   3
ATOM      3  C   LIG    1        4.782   0.063  -0.142  0.00  0.00    +0.510 C 
ATOM      4  N   LIG    1        3.626  -0.621  -0.037  0.00  0.00    -0.660 N 
ATOM      5  H   LIG    1        3.638  -1.590   0.002  0.00  0.00    +0.410 HD
ATOM      6  O   LIG    1        4.773   1.276  -0.118  0.00  0.00    -0.510 OA
BRANCH   4   7
ATOM      7  C   LIG    1        2.406   0.067   0.016  0.00  0.00    +0.130 A 
ATOM      8  C   LIG    1        2.330   1.298   0.649  0.00  0.00    +0.060 A 
ATOM      9  C   LIG    1        1.126   1.976   0.700  0.00  0.00    +0.010 A 
ATOM     10  C   LIG    1       -0.004   1.429   0.119  0.00  0.00    +0.040 A 
ATOM     11  C   LIG    1        0.065   0.202  -0.514  0.00  0.00    -0.030 A 
ATOM     12  C   LIG    1        1.268  -0.483  -0.569  0.00  0.00    +0.080 A 
BRANCH  12  13
ATOM     13  O   LIG    1        1.336  -1.690  -1.191  0.00  0.00    -0.320 OA
BRANCH  13  14
ATOM     14  C   LIG    1        0.129  -2.193  -1.768  0.00  0.00    +0.590 C 
ATOM     15  F   LIG    1       -0.334  -1.296  -2.736  0.00  0.00    -0.200 F 
ATOM     16  F   LIG    1       -0.839  -2.340  -0.768  0.00  0.00    -0.200 F 
ENDBRANCH  13  14
ENDBRANCH  12  13
ENDBRANCH   4   7
ENDBRANCH   2   3
BRANCH   2  17
ATOM     17  N   LIG    1        7.189   0.287  -0.385  0.00  0.00    -0.660 NA
ATOM     18  H   LIG    1        6.870   1.166  -0.762  0.00  0.00    +0.360 HD
BRANCH  17  19
ATOM     19  C   LIG    1        8.297  -0.257  -1.182  0.00  0.00    +0.210 C 
ATOM     20  C   LIG    1        9.617   0.346  -0.698  0.00  0.00    +0.060 C 
BRANCH  19  21
ATOM     21  C   LIG    1        8.089   0.089  -2.634  0.00  0.00    -0.080 A 
ATOM     22  C   LIG    1        7.602   1.334  -2.984  0.00  0.00    +0.000 A 
ATOM     23  C   LIG    1        7.415   1.653  -4.316  0.00  0.00    +0.080 A 
ATOM     24  C   LIG    1        7.705   0.723  -5.297  0.00  0.00    -0.460 A 
ATOM     25  C   LIG    1        8.187  -0.524  -4.946  0.00  0.00    +0.100 A 
ATOM     26  C   LIG    1        8.379  -0.841  -3.614  0.00  0.00    +0.000 A 
BRANCH  24  27
ATOM     27  S   LIG    1        7.461   1.128  -6.995  0.00  0.00    +1.330 S 
ATOM     28  O   LIG    1        7.532   2.547  -6.999  0.00  0.00    -0.850 OA
ATOM     29  C   LIG    1        5.750   0.607  -7.296  0.00  0.00    -0.200 C 
ENDBRANCH  24  27
ENDBRANCH  19  21
ENDBRANCH  17  19
ENDBRANCH   2  17
TORSDOF 8
