REMARK  Name = ZINCrg00001JduXp.0
REMARK                            x       y       z     vdW  Elec       q    Type
REMARK                         _______ _______ _______ _____ _____    ______ ____
ROOT
ATOM      1  C   LIG    1       -0.017   1.407   0.008  0.00  0.00    +0.440 C 
ATOM      2  O   LIG    1        1.026   2.029   0.017  0.00  0.00    -0.480 OA
ENDROOT
BRANCH   1   6
ATOM      3  C   LIG    1       -2.389  -2.921   0.223  0.00  0.00    +0.340 C 
ATOM      4  N   LIG    1       -1.164  -2.126   0.107  0.00  0.00    -0.560 N 
ATOM      5  C   LIG    1       -1.239  -0.779   0.125  0.00  0.00    +0.580 A 
ATOM      6  C   LIG    1        0.002  -0.004   0.001  0.00  0.00    -0.440 A 
ATOM      7  C   LIG    1        1.210  -0.713  -0.118  0.00  0.00    +0.560 A 
ATOM      8  N   LIG    1        1.178  -2.078  -0.119  0.00  0.00    -0.540 N 
ATOM      9  C   LIG    1        2.432  -2.825  -0.244  0.00  0.00    +0.350 C 
ATOM     10  O   LIG    1       -2.314  -0.219   0.235  0.00  0.00    -0.500 OA
ATOM     11  C   LIG    1        0.021  -2.748  -0.009  0.00  0.00    +0.710 A 
ATOM     12  O   LIG    1        0.045  -3.964  -0.015  0.00  0.00    -0.520 OA
BRANCH   7  13
ATOM     13  N   LIG    1        2.393  -0.049  -0.230  0.00  0.00    -0.800 N 
ATOM     14  H   LIG    1        2.410   0.854  -0.585  0.00  0.00    +0.440 HD
ATOM     15  H   LIG    1        3.218  -0.478   0.044  0.00  0.00    +0.410 HD
ENDBRANCH   7  13
ENDBRANCH   1   6
BRANCH   1  16
ATOM     16  C   LIG    1       -1.332   2.143  -0.003  0.00  0.00    +0.250 C 
BRANCH  16  17
ATOM     17  O   LIG    1       -1.091   3.551   0.007  0.00  0.00    -0.330 OA
BRANCH  17  18
ATOM     18  C   LIG    1       -2.171   4.358  -0.001  0.00  0.00    +0.500 C 
ATOM     19  O   LIG    1       -3.289   3.878  -0.016  0.00  0.00    -0.500 OA
BRANCH  18  20
ATOM     20  C   LIG    1       -2.000   5.809   0.008  0.00  0.00    -0.030 C 
ATOM     21  C   LIG    1       -3.082   6.617  -0.000  0.00  0.00    +0.140 C 
BRANCH  21  22
ATOM     22  C   LIG    1       -2.909   8.078   0.009  0.00  0.00    -0.100 A 
ATOM     23  C   LIG    1       -1.626   8.634   0.032  0.00  0.00    +0.110 A 
ATOM     24  C   LIG    1       -1.472  10.005   0.035  0.00  0.00    -0.110 A 
ATOM     25  C   LIG    1       -2.584  10.831   0.026  0.00  0.00    +0.100 A 
ATOM     26  C   LIG    1       -3.857  10.291   0.009  0.00  0.00    +0.000 A 
ATOM     27 BR   LIG    1        0.262  10.758   0.059  0.00  0.00    -0.030 Br
ATOM     28  C   LIG    1       -4.029   8.920   0.001  0.00  0.00    +0.140 A 
ATOM     29  F   LIG    1       -5.273   8.393  -0.015  0.00  0.00    -0.120 F 
ENDBRANCH  21  22
ENDBRANCH  18  20
ENDBRANCH  17  18
ENDBRANCH  16  17
ENDBRANCH   1  16
TORSDOF 7
