REMARK  Name = ZINCrH000004ssMF.0
REMARK                            x       y       z     vdW  Elec       q    Type
REMARK                         _______ _______ _______ _____ _____    ______ ____
ROOT
ATOM      1  C   LIG    1       -1.433  -4.873   2.365  0.00  0.00    +0.160 A 
ATOM      2  C   LIG    1       -0.316  -5.574   2.803  0.00  0.00    -0.080 A 
ATOM      3  C   LIG    1       -0.469  -6.725   3.542  0.00  0.00    +0.090 A 
ATOM      4  C   LIG    1       -1.750  -7.196   3.842  0.00  0.00    -0.180 A 
ATOM      5  C   LIG    1       -2.871  -6.491   3.396  0.00  0.00    +0.140 A 
ATOM      6  C   LIG    1       -2.710  -5.337   2.662  0.00  0.00    -0.010 A 
ENDROOT
BRANCH   4   7
ATOM      7  C   LIG    1       -1.919  -8.433   4.629  0.00  0.00    +0.570 C 
ATOM      8  N   LIG    1       -0.836  -9.111   5.059  0.00  0.00    -0.730 N 
ATOM      9  H   LIG    1        0.054  -8.786   4.852  0.00  0.00    +0.400 HD
ATOM     10  O   LIG    1       -3.034  -8.841   4.889  0.00  0.00    -0.530 OA
BRANCH   8  11
ATOM     11  C   LIG    1       -1.004 -10.339   5.840  0.00  0.00    +0.300 C 
ATOM     12  C   LIG    1       -1.188 -11.526   4.891  0.00  0.00    +0.040 C 
BRANCH  11  13
ATOM     13  C   LIG    1        0.218 -10.563   6.692  0.00  0.00    -0.070 A 
ATOM     14  C   LIG    1        1.476 -10.309   6.178  0.00  0.00    +0.040 A 
ATOM     15  C   LIG    1        2.598 -10.508   6.960  0.00  0.00    +0.030 A 
ATOM     16  C   LIG    1        2.464 -10.973   8.256  0.00  0.00    +0.070 A 
ATOM     17  C   LIG    1        1.203 -11.233   8.771  0.00  0.00    +0.080 A 
ATOM     18  F   LIG    1        1.069 -11.687  10.037  0.00  0.00    -0.120 F 
ATOM     19  F   LIG    1        3.561 -11.173   9.020  0.00  0.00    -0.130 F 
ATOM     20  C   LIG    1        0.081 -11.028   7.987  0.00  0.00    +0.040 A 
ENDBRANCH  11  13
ENDBRANCH   8  11
ENDBRANCH   4   7
BRANCH   1  21
ATOM     21  O   LIG    1       -1.278  -3.736   1.641  0.00  0.00    -0.300 OA
BRANCH  21  22
ATOM     22  C   LIG    1        0.061  -3.315   1.372  0.00  0.00    +0.360 C 
BRANCH  22  26
ATOM     23  C   LIG    1       -0.018   1.503   0.010  0.00  0.00    +0.250 C 
ATOM     24  C   LIG    1        0.002  -0.004   0.002  0.00  0.00    +0.190 A 
ATOM     25  N   LIG    1        0.023  -0.791   1.051  0.00  0.00    -0.470 NA
ATOM     26  C   LIG    1        0.035  -2.044   0.564  0.00  0.00    +0.160 A 
ATOM     27  N   LIG    1        0.022  -1.958  -0.733  0.00  0.00    -0.360 NA
ATOM     28  O   LIG    1       -0.003  -0.794  -1.076  0.00  0.00    +0.090 OA
ENDBRANCH  22  26
ENDBRANCH  21  22
ENDBRANCH   1  21
TORSDOF 6
