REMARK  Name = ZINCpk000000mR3j.0
REMARK                            x       y       z     vdW  Elec       q    Type
REMARK                         _______ _______ _______ _____ _____    ______ ____
ROOT
ATOM      1  N   LIG    1        4.500   3.125  -2.233  0.00  0.00    -0.710 N 
ATOM      2  H   LIG    1        4.540   2.548  -3.011  0.00  0.00    +0.410 HD
ATOM      3  C   LIG    1        5.271   4.229  -2.171  0.00  0.00    +0.620 C 
ATOM      4  O   LIG    1        5.220   4.952  -1.196  0.00  0.00    -0.510 OA
ENDROOT
BRANCH   1  10
ATOM      5  C   LIG    1       -0.150  -0.292   0.014  0.00  0.00    +0.080 C 
ATOM      6  C   LIG    1       -0.014   1.209   0.009  0.00  0.00    +0.510 C 
ATOM      7  N   LIG    1        1.208   1.775  -0.013  0.00  0.00    -0.620 N 
ATOM      8  C   LIG    1        1.356   3.233  -0.123  0.00  0.00    +0.280 C 
ATOM      9  C   LIG    1        2.281   3.552  -1.297  0.00  0.00    +0.000 C 
ATOM     10  C   LIG    1        3.601   2.797  -1.123  0.00  0.00    +0.250 C 
ATOM     11  C   LIG    1        3.331   1.290  -1.114  0.00  0.00    +0.030 C 
ATOM     12  C   LIG    1        2.419   0.946   0.067  0.00  0.00    +0.290 C 
ATOM     13  O   LIG    1       -1.006   1.907   0.029  0.00  0.00    -0.540 OA
ENDBRANCH   1  10
BRANCH   3  14
ATOM     14  C   LIG    1        6.178   4.560  -3.291  0.00  0.00    +0.150 A 
ATOM     15  N   LIG    1        6.978   5.602  -3.355  0.00  0.00    -0.250 NA
ATOM     16  N   LIG    1        7.616   5.565  -4.474  0.00  0.00    -0.250 N 
ATOM     17  C   LIG    1        7.219   4.470  -5.155  0.00  0.00    +0.230 A 
ATOM     18  C   LIG    1        7.711   4.039  -6.513  0.00  0.00    +0.210 C 
ATOM     19  N   LIG    1        6.334   3.846  -4.420  0.00  0.00    -0.480 NA
BRANCH  16  20
ATOM     20  C   LIG    1        8.561   6.503  -4.911  0.00  0.00    +0.110 A 
ATOM     21  C   LIG    1        9.657   6.090  -5.657  0.00  0.00    +0.070 A 
ATOM     22  C   LIG    1       10.585   7.017  -6.090  0.00  0.00    +0.020 A 
ATOM     23  C   LIG    1       10.429   8.356  -5.771  0.00  0.00    +0.120 A 
ATOM     24  C   LIG    1        9.339   8.768  -5.023  0.00  0.00    +0.010 A 
ATOM     25  F   LIG    1       11.340   9.260  -6.191  0.00  0.00    -0.130 F 
ATOM     26  C   LIG    1        8.406   7.846  -4.593  0.00  0.00    +0.090 A 
ENDBRANCH  16  20
ENDBRANCH   3  14
TORSDOF 3
