REMARK  Name = ZINCb7000000406a.0
REMARK                            x       y       z     vdW  Elec       q    Type
REMARK                         _______ _______ _______ _____ _____    ______ ____
ROOT
ATOM      1  C   LIG    1       -0.753   1.593  -1.232  0.00  0.00    +0.140 C 
ATOM      2  C   LIG    1       -0.094   1.026  -2.495  0.00  0.00    +0.030 C 
ATOM      3  C   LIG    1       -0.875   1.529  -3.709  0.00  0.00    +0.050 C 
ATOM      4  C   LIG    1       -0.867   3.060  -3.750  0.00  0.00    -0.050 C 
ATOM      5  C   LIG    1       -2.080   3.490  -4.627  0.00  0.00    +0.220 C 
ATOM      6  O   LIG    1       -3.225   3.346  -3.770  0.00  0.00    -0.370 OA
ATOM      7  C   LIG    1       -2.823   3.453  -2.396  0.00  0.00    +0.170 C 
ATOM      8  C   LIG    1       -1.299   3.639  -2.387  0.00  0.00    +0.200 C 
ATOM      9  O   LIG    1       -0.675   3.016  -1.290  0.00  0.00    -0.370 OA
ENDROOT
BRANCH   1  10
ATOM     10  C   LIG    1       -0.013   1.086   0.008  0.00  0.00    +0.300 C 
BRANCH  10  11
ATOM     11  N   LIG    1       -0.700   1.560   1.217  0.00  0.00    -0.640 N 
ATOM     12  H   LIG    1       -1.647   1.210   1.224  0.00  0.00    +0.430 HD
ATOM     13  H   LIG    1       -0.714   2.568   1.222  0.00  0.00    +0.440 HD
ATOM     14  H   LIG    1       -0.212   1.225   2.034  0.00  0.00    +0.440 HD
ENDBRANCH  10  11
ENDBRANCH   1  10
TORSDOF 2
