REMARK  Name = ZINCkj000005k7OW.0
REMARK                            x       y       z     vdW  Elec       q    Type
REMARK                         _______ _______ _______ _____ _____    ______ ____
ROOT
ATOM      1  N   LIG    1       -2.564   3.297   3.878  0.00  0.00    -0.690 N 
ATOM      2  H   LIG    1       -3.317   2.709   4.043  0.00  0.00    +0.410 HD
ATOM      3  C   LIG    1       -1.341   2.778   3.652  0.00  0.00    +0.520 C 
ATOM      4  O   LIG    1       -0.399   3.513   3.446  0.00  0.00    -0.510 OA
ENDROOT
BRANCH   3   5
ATOM      5  C   LIG    1       -1.144   1.284   3.655  0.00  0.00    +0.160 C 
ATOM      6  C   LIG    1       -0.153   0.799   4.722  0.00  0.00    +0.130 C 
ATOM      7  C   LIG    1        0.886   1.034   3.616  0.00  0.00    +0.300 C 
ATOM      8  N   LIG    1       -0.190   0.815   2.632  0.00  0.00    -0.390 N 
ATOM      9  H   LIG    1       -0.315  -0.155   2.382  0.00  0.00    +0.440 HD
BRANCH   8  10
ATOM     10  C   LIG    1       -0.103   1.701   1.464  0.00  0.00    +0.170 C 
ATOM     11  C   LIG    1        0.804   1.083   0.372  0.00  0.00    +0.040 C 
ATOM     12  C   LIG    1        0.333   1.749  -0.937  0.00  0.00    +0.040 C 
ATOM     13  C   LIG    1       -1.116   2.209  -0.700  0.00  0.00    +0.040 C 
ATOM     14  C   LIG    1       -1.475   1.806   0.745  0.00  0.00    +0.030 C 
ENDBRANCH   8  10
ENDBRANCH   3   5
BRANCH   1  15
ATOM     15  C   LIG    1       -2.755   4.750   3.875  0.00  0.00    +0.370 C 
BRANCH  15  18
ATOM     16  C   LIG    1       -4.131   4.776   6.685  0.00  0.00    +0.150 C 
ATOM     17  C   LIG    1       -4.797   5.077   5.367  0.00  0.00    +0.120 A 
ATOM     18  C   LIG    1       -4.202   5.066   4.152  0.00  0.00    -0.290 A 
ATOM     19  C   LIG    1       -5.167   5.407   3.197  0.00  0.00    +0.260 A 
ATOM     20  N   LIG    1       -6.302   5.606   3.817  0.00  0.00    -0.290 NA
ATOM     21  N   LIG    1       -6.093   5.407   5.188  0.00  0.00    -0.360 N 
ATOM     22  C   LIG    1       -7.103   5.535   6.241  0.00  0.00    +0.360 C 
ENDBRANCH  15  18
ENDBRANCH   1  15
TORSDOF 4
