REMARK  Name = ZINCkj000005k7OW.1
REMARK                            x       y       z     vdW  Elec       q    Type
REMARK                         _______ _______ _______ _____ _____    ______ ____
ROOT
ATOM      1  N   LIG    1       -2.310  -0.717  -0.514  0.00  0.00    -0.700 N 
ATOM      2  H   LIG    1       -2.572  -0.390   0.361  0.00  0.00    +0.410 HD
ATOM      3  C   LIG    1       -1.026  -0.620  -0.912  0.00  0.00    +0.510 C 
ATOM      4  O   LIG    1       -0.697  -1.029  -2.005  0.00  0.00    -0.520 OA
ENDROOT
BRANCH   3   5
ATOM      5  C   LIG    1        0.002  -0.004   0.002  0.00  0.00    +0.190 C 
ATOM      6  C   LIG    1       -0.019   1.535   0.011  0.00  0.00    +0.120 C 
ATOM      7  C   LIG    1        1.518   1.458  -0.005  0.00  0.00    +0.310 C 
ATOM      8  N   LIG    1        1.347   0.116  -0.604  0.00  0.00    -0.390 N 
ATOM      9  H   LIG    1        1.323   0.136  -1.613  0.00  0.00    +0.440 HD
BRANCH   8  10
ATOM     10  C   LIG    1        2.301  -0.870  -0.081  0.00  0.00    +0.160 C 
ATOM     11  C   LIG    1        3.661  -0.719  -0.793  0.00  0.00    +0.050 C 
ATOM     12  C   LIG    1        4.173  -2.173  -0.945  0.00  0.00    +0.050 C 
ATOM     13  C   LIG    1        2.878  -2.961  -1.262  0.00  0.00    +0.040 C 
ATOM     14  C   LIG    1        1.804  -2.295  -0.378  0.00  0.00    +0.040 C 
ENDBRANCH   8  10
ENDBRANCH   3   5
BRANCH   1  15
ATOM     15  C   LIG    1       -3.309  -1.316  -1.402  0.00  0.00    +0.370 C 
BRANCH  15  18
ATOM     16  C   LIG    1       -5.242   1.135  -1.192  0.00  0.00    +0.150 C 
ATOM     17  C   LIG    1       -5.491  -0.243  -0.634  0.00  0.00    +0.110 A 
ATOM     18  C   LIG    1       -4.655  -1.303  -0.725  0.00  0.00    -0.280 A 
ATOM     19  C   LIG    1       -5.259  -2.384  -0.074  0.00  0.00    +0.260 A 
ATOM     20  N   LIG    1       -6.418  -1.988   0.387  0.00  0.00    -0.290 NA
ATOM     21  N   LIG    1       -6.588  -0.641   0.043  0.00  0.00    -0.360 N 
ATOM     22  C   LIG    1       -7.750   0.191   0.366  0.00  0.00    +0.360 C 
ENDBRANCH  15  18
ENDBRANCH   1  15
TORSDOF 4
