REMARK  Name = ZINCtj00000mhSPT.0
REMARK                            x       y       z     vdW  Elec       q    Type
REMARK                         _______ _______ _______ _____ _____    ______ ____
ROOT
ATOM      1  O   LIG    1       -0.026   4.073   0.388  0.00  0.00    -0.520 OA
ATOM      2  C   LIG    1       -0.592   3.470   1.275  0.00  0.00    +0.500 C 
ATOM      3  N   LIG    1       -1.135   4.144   2.309  0.00  0.00    -0.590 N 
ATOM      4  C   LIG    1       -1.829   3.427   3.387  0.00  0.00    +0.270 C 
ATOM      5  C   LIG    1       -1.183   3.821   4.726  0.00  0.00    +0.260 C 
ATOM      6  N   LIG    1       -1.097   5.286   4.792  0.00  0.00    -0.630 N 
ATOM      7  C   LIG    1       -0.407   6.004   3.710  0.00  0.00    +0.320 C 
ATOM      8  C   LIG    1       -1.640   5.960   5.824  0.00  0.00    +0.710 C 
ATOM      9  N   LIG    1       -2.357   5.302   6.756  0.00  0.00    -0.740 N 
ATOM     10  H   LIG    1       -2.420   4.334   6.725  0.00  0.00    +0.390 HD
ATOM     11  O   LIG    1       -1.484   7.163   5.915  0.00  0.00    -0.560 OA
ATOM     12  C   LIG    1       -1.049   5.609   2.374  0.00  0.00    +0.290 C 
ENDROOT
BRANCH   9  13
ATOM     13  C   LIG    1       -3.040   6.047   7.817  0.00  0.00    +0.350 C 
BRANCH  13  14
ATOM     14  C   LIG    1       -3.764   5.083   8.721  0.00  0.00    -0.110 A 
ATOM     15  C   LIG    1       -5.123   4.885   8.573  0.00  0.00    +0.060 A 
ATOM     16  C   LIG    1       -5.789   4.001   9.403  0.00  0.00    +0.030 A 
ATOM     17  C   LIG    1       -5.096   3.314  10.383  0.00  0.00    +0.050 A 
ATOM     18  C   LIG    1       -3.737   3.508  10.535  0.00  0.00    +0.030 A 
ATOM     19  C   LIG    1       -3.065   4.390   9.700  0.00  0.00    +0.130 A 
BRANCH  19  20
ATOM     20  N   LIG    1       -1.685   4.584   9.848  0.00  0.00    -0.420 N 
ATOM     21  C   LIG    1       -1.021   4.857  11.016  0.00  0.00    +0.130 A 
ATOM     22  C   LIG    1        0.285   4.967  10.706  0.00  0.00    +0.160 A 
ATOM     23  N   LIG    1        0.420   4.769   9.386  0.00  0.00    -0.480 NA
ATOM     24  C   LIG    1       -0.751   4.532   8.862  0.00  0.00    +0.380 A 
ENDBRANCH  19  20
ENDBRANCH  13  14
ENDBRANCH   9  13
BRANCH   2  25
ATOM     25  C   LIG    1       -0.689   1.967   1.222  0.00  0.00    +0.290 C 
BRANCH  25  26
ATOM     26  N   LIG    1       -0.025   1.476   0.007  0.00  0.00    -0.380 N 
ATOM     27  C   LIG    1        1.398   1.900  -0.006  0.00  0.00    +0.270 C 
ATOM     28  C   LIG    1        2.062   0.887  -0.972  0.00  0.00    +0.070 C 
ATOM     29  C   LIG    1        1.325  -0.433  -0.648  0.00  0.00    +0.070 C 
ATOM     30  C   LIG    1       -0.005  -0.003  -0.002  0.00  0.00    +0.250 C 
ATOM     31  H   LIG    1       -0.499   1.823  -0.814  0.00  0.00    +0.430 HD
ENDBRANCH  25  26
ENDBRANCH   2  25
TORSDOF 5
