REMARK  Name = ZINCnE000001SCNL.0
REMARK                            x       y       z     vdW  Elec       q    Type
REMARK                         _______ _______ _______ _____ _____    ______ ____
ROOT
ATOM      1  O   LIG    1        1.251  -1.987  -3.322  0.00  0.00    -0.520 OA
ATOM      2  C   LIG    1        1.986  -1.072  -3.018  0.00  0.00    +0.520 C 
ATOM      3  N   LIG    1        3.151  -0.897  -3.673  0.00  0.00    -0.720 N 
ATOM      4  H   LIG    1        3.739  -0.166  -3.430  0.00  0.00    +0.400 HD
ENDROOT
BRANCH   2   5
ATOM      5  C   LIG    1        1.598  -0.131  -1.907  0.00  0.00    +0.000 C 
ATOM      6  C   LIG    1        0.231  -0.548  -1.328  0.00  0.00    +0.040 C 
ATOM      7  C   LIG    1        0.002  -0.004   0.002  0.00  0.00    +0.010 C 
ATOM      8  C   LIG    1       -0.019   1.538   0.011  0.00  0.00    +0.030 C 
ATOM      9  C   LIG    1        1.401   2.035  -0.000  0.00  0.00    +0.020 C 
ATOM     10  C   LIG    1        1.910   2.335  -1.423  0.00  0.00    +0.290 C 
ATOM     11  F   LIG    1        1.409   3.577  -1.827  0.00  0.00    -0.200 F 
ATOM     12  F   LIG    1        3.307   2.400  -1.399  0.00  0.00    -0.200 F 
ATOM     13  C   LIG    1        1.480   1.268  -2.449  0.00  0.00    +0.040 C 
ENDBRANCH   2   5
BRANCH   3  14
ATOM     14  C   LIG    1        3.529  -1.813  -4.753  0.00  0.00    +0.180 C 
ATOM     15  C   LIG    1        3.623  -3.237  -4.204  0.00  0.00    +0.010 C 
ATOM     16  C   LIG    1        4.018  -4.193  -5.332  0.00  0.00    +0.040 C 
ATOM     17  C   LIG    1        4.186  -3.406  -6.633  0.00  0.00    -0.130 C 
ATOM     18  C   LIG    1        2.866  -2.717  -6.986  0.00  0.00    +0.030 C 
ATOM     19  C   LIG    1        5.279  -2.351  -6.453  0.00  0.00    +0.050 C 
ATOM     20  C   LIG    1        2.471  -1.761  -5.858  0.00  0.00    +0.010 C 
ATOM     21  C   LIG    1        4.885  -1.395  -5.325  0.00  0.00    +0.000 C 
BRANCH  17  22
ATOM     22  C   LIG    1        4.574  -4.347  -7.744  0.00  0.00    +0.500 C 
ATOM     23  O   LIG    1        5.264  -3.949  -8.666  0.00  0.00    -0.700 OA
ATOM     24  O   LIG    1        4.198  -5.507  -7.719  0.00  0.00    -0.700 OA
ENDBRANCH  17  22
ENDBRANCH   3  14
TORSDOF 3
