REMARK  Name = ZINCrH000004nlaQ.0
REMARK                            x       y       z     vdW  Elec       q    Type
REMARK                         _______ _______ _______ _____ _____    ______ ____
ROOT
ATOM      1  C   LIG    1        0.716   7.984  -1.405  0.00  0.00    +0.010 A 
ATOM      2  C   LIG    1        1.260   7.190  -2.354  0.00  0.00    -0.020 A 
ATOM      3  S   LIG    1        1.028   5.553  -1.915  0.00  0.00    +0.180 S 
ATOM      4  C   LIG    1        0.194   6.047  -0.446  0.00  0.00    +0.100 A 
ATOM      5  N   LIG    1        0.144   7.344  -0.394  0.00  0.00    -0.440 NA
ENDROOT
BRANCH   4   6
ATOM      6  C   LIG    1       -0.369   5.129   0.567  0.00  0.00    -0.030 A 
ATOM      7  C   LIG    1       -1.012   5.641   1.694  0.00  0.00    +0.080 A 
ATOM      8  C   LIG    1       -1.537   4.783   2.639  0.00  0.00    -0.040 A 
ATOM      9  C   LIG    1       -1.428   3.411   2.470  0.00  0.00    +0.120 A 
ATOM     10  C   LIG    1       -0.787   2.893   1.346  0.00  0.00    +0.100 A 
ATOM     11  C   LIG    1       -0.255   3.747   0.399  0.00  0.00    -0.010 A 
BRANCH  10  12
ATOM     12  O   LIG    1       -0.682   1.547   1.184  0.00  0.00    -0.300 OA
ATOM     13  C   LIG    1       -0.013   1.086   0.008  0.00  0.00    +0.250 C 
ENDBRANCH  10  12
BRANCH   9  14
ATOM     14  O   LIG    1       -1.946   2.569   3.404  0.00  0.00    -0.300 OA
ATOM     15  C   LIG    1       -2.589   3.167   4.531  0.00  0.00    +0.240 C 
ENDBRANCH   9  14
ENDBRANCH   4   6
BRANCH   1  18
ATOM     16  N   LIG    1        0.191  10.199  -0.516  0.00  0.00    -0.710 N 
ATOM     17  H   LIG    1       -0.233   9.767   0.242  0.00  0.00    +0.410 HD
ATOM     18  C   LIG    1        0.749   9.454  -1.491  0.00  0.00    +0.590 C 
ATOM     19  O   LIG    1        1.280   9.996  -2.442  0.00  0.00    -0.530 OA
BRANCH  16  20
ATOM     20  C   LIG    1        0.224  11.661  -0.602  0.00  0.00    +0.320 C 
BRANCH  20  25
ATOM     21  C   LIG    1       -0.367  13.074   2.852  0.00  0.00    +0.130 A 
ATOM     22  C   LIG    1       -1.730  13.334   2.813  0.00  0.00    -0.070 A 
ATOM     23  C   LIG    1       -2.453  13.051   1.670  0.00  0.00    +0.050 A 
ATOM     24  C   LIG    1       -1.819  12.515   0.565  0.00  0.00    -0.010 A 
ATOM     25  C   LIG    1       -0.462  12.251   0.603  0.00  0.00    -0.070 A 
ATOM     26  C   LIG    1        0.265  12.531   1.743  0.00  0.00    +0.000 A 
BRANCH  21  28
ATOM     27  C   LIG    1       -0.371  13.909   5.078  0.00  0.00    +0.250 C 
ATOM     28  O   LIG    1        0.346  13.352   3.975  0.00  0.00    -0.320 OA
ENDBRANCH  21  28
ENDBRANCH  20  25
ENDBRANCH  16  20
ENDBRANCH   1  18
TORSDOF 7
