REMARK  Name = ZINCrD000000fofm.0
REMARK                            x       y       z     vdW  Elec       q    Type
REMARK                         _______ _______ _______ _____ _____    ______ ____
ROOT
ATOM      1  C   LIG    1       -0.026   1.759   0.102  0.00  0.00    -0.660 A 
ATOM      2  C   LIG    1       -1.101   2.441   0.642  0.00  0.00    +0.120 A 
ATOM      3  C   LIG    1       -1.123   3.821   0.632  0.00  0.00    +0.030 A 
ATOM      4  C   LIG    1       -0.061   4.528   0.065  0.00  0.00    -0.070 A 
ATOM      5  C   LIG    1        1.018   3.833  -0.483  0.00  0.00    +0.060 A 
ATOM      6  C   LIG    1        1.030   2.454  -0.462  0.00  0.00    +0.130 A 
ENDROOT
BRANCH   4   7
ATOM      7  C   LIG    1       -0.080   6.006   0.045  0.00  0.00    +0.550 C 
ATOM      8  N   LIG    1       -1.252   6.663  -0.052  0.00  0.00    -0.600 N 
ATOM      9  C   LIG    1       -2.513   5.918  -0.044  0.00  0.00    +0.290 C 
ATOM     10  O   LIG    1        0.962   6.628   0.117  0.00  0.00    -0.520 OA
BRANCH   8  11
ATOM     11  C   LIG    1       -1.265   8.124  -0.167  0.00  0.00    +0.290 C 
ATOM     12  C   LIG    1       -1.929   8.520  -1.485  0.00  0.00    +0.010 C 
ATOM     13  C   LIG    1       -2.129  10.040  -1.488  0.00  0.00    +0.030 C 
ATOM     14  C   LIG    1       -3.212  10.385  -0.467  0.00  0.00    +0.080 C 
ATOM     15  C   LIG    1       -2.908   9.748   0.863  0.00  0.00    -0.060 A 
ATOM     16  C   LIG    1       -3.564  10.244   1.982  0.00  0.00    +0.000 A 
ATOM     17  C   LIG    1       -3.332   9.700   3.229  0.00  0.00    +0.010 A 
ATOM     18  C   LIG    1       -2.441   8.653   3.366  0.00  0.00    +0.000 A 
ATOM     19  C   LIG    1       -1.787   8.160   2.256  0.00  0.00    +0.020 A 
ATOM     20  C   LIG    1       -2.018   8.707   1.000  0.00  0.00    -0.090 A 
ENDBRANCH   8  11
ENDBRANCH   4   7
BRANCH   1  21
ATOM     21  S   LIG    1       -0.004  -0.003   0.125  0.00  0.00    +2.700 S 
ATOM     22  O   LIG    1        0.858  -0.407  -0.930  0.00  0.00    -0.950 OA
ATOM     23  O   LIG    1       -1.358  -0.420   0.224  0.00  0.00    -0.950 OA
BRANCH  21  24
ATOM     24  N   LIG    1        0.733  -0.465   1.534  0.00  0.00    -1.110 NA
ATOM     25  H   LIG    1        1.580  -0.938   1.506  0.00  0.00    +0.420 HD
BRANCH  24  26
ATOM     26  C   LIG    1        0.106  -0.161   2.822  0.00  0.00    +0.300 C 
BRANCH  26  28
ATOM     27  C   LIG    1        1.264  -0.397   4.959  0.00  0.00    +0.050 C 
ATOM     28  C   LIG    1        0.756  -0.985   3.904  0.00  0.00    -0.050 C 
ENDBRANCH  26  28
ENDBRANCH  24  26
ENDBRANCH  21  24
ENDBRANCH   1  21
TORSDOF 6
