REMARK  Name = ZINCpk00000S33AC.0
REMARK                            x       y       z     vdW  Elec       q    Type
REMARK                         _______ _______ _______ _____ _____    ______ ____
ROOT
ATOM      1  N   LIG    1       -3.906   5.281   4.364  0.00  0.00    -0.410 N 
ATOM      2  C   LIG    1       -3.957   5.180   5.845  0.00  0.00    +0.240 C 
ATOM      3  C   LIG    1       -5.411   5.547   6.210  0.00  0.00    +0.120 C 
ATOM      4  C   LIG    1       -6.232   5.243   4.940  0.00  0.00    +0.010 C 
ATOM      5  C   LIG    1       -5.205   4.717   3.914  0.00  0.00    +0.220 C 
ENDROOT
BRANCH   3   6
ATOM      6  C   LIG    1       -5.894   4.702   7.360  0.00  0.00    -0.240 A 
ATOM      7  C   LIG    1       -6.392   5.162   8.531  0.00  0.00    +0.250 A 
ATOM      8  N   LIG    1       -6.708   4.092   9.292  0.00  0.00    -0.370 N 
ATOM      9  N   LIG    1       -6.394   2.938   8.563  0.00  0.00    -0.290 NA
ATOM     10  C   LIG    1       -7.280   4.132  10.640  0.00  0.00    +0.360 C 
ATOM     11  C   LIG    1       -5.911   3.304   7.404  0.00  0.00    +0.230 A 
ENDBRANCH   3   6
BRANCH   1  15
ATOM     12  C   LIG    1       -1.455   3.595   2.515  0.00  0.00    +0.170 A 
ATOM     13  N   LIG    1       -1.102   3.355   3.744  0.00  0.00    -0.270 NA
ATOM     14  N   LIG    1       -1.930   3.924   4.548  0.00  0.00    -0.310 NA
ATOM     15  C   LIG    1       -2.847   4.552   3.854  0.00  0.00    +0.330 A 
ATOM     16  O   LIG    1       -2.562   4.362   2.552  0.00  0.00    -0.220 OA
BRANCH  12  17
ATOM     17  C   LIG    1       -0.750   3.109   1.275  0.00  0.00    +0.040 C 
ATOM     18  C   LIG    1       -1.490   3.616   0.036  0.00  0.00    +0.050 C 
ATOM     19  C   LIG    1        0.686   3.639   1.264  0.00  0.00    +0.070 C 
BRANCH  17  21
ATOM     20  C   LIG    1       -0.013   1.086   0.008  0.00  0.00    +0.020 C 
ATOM     21  C   LIG    1       -0.729   1.579   1.267  0.00  0.00    +0.040 C 
ENDBRANCH  17  21
ENDBRANCH  12  17
ENDBRANCH   1  15
BRANCH   4  22
ATOM     22  C   LIG    1       -6.888   6.499   4.427  0.00  0.00    +0.530 C 
ATOM     23  N   LIG    1       -7.607   6.466   3.288  0.00  0.00    -0.740 N 
ATOM     24  H   LIG    1       -7.703   5.635   2.798  0.00  0.00    +0.400 HD
ATOM     25  C   LIG    1       -8.245   7.688   2.789  0.00  0.00    +0.290 C 
ATOM     26  O   LIG    1       -6.768   7.539   5.039  0.00  0.00    -0.530 OA
ENDBRANCH   4  22
TORSDOF 5
