REMARK  Name = ZINCqH0000002wTO.0
REMARK                            x       y       z     vdW  Elec       q    Type
REMARK                         _______ _______ _______ _____ _____    ______ ____
ROOT
ATOM      1  C   LIG    1       -6.640   2.343   0.732  0.00  0.00    +0.570 C 
ATOM      2  N   LIG    1       -5.943   2.932  -0.260  0.00  0.00    -0.600 N 
ATOM      3  C   LIG    1       -6.216   2.581  -1.655  0.00  0.00    +0.280 C 
ATOM      4  O   LIG    1       -6.488   2.708   1.882  0.00  0.00    -0.530 OA
ENDROOT
BRANCH   1   8
ATOM      5  C   LIG    1       -9.364  -0.792  -0.157  0.00  0.00    -0.050 A 
ATOM      6  C   LIG    1       -8.218  -0.640  -0.917  0.00  0.00    +0.000 A 
ATOM      7  C   LIG    1       -7.329   0.376  -0.633  0.00  0.00    +0.050 A 
ATOM      8  C   LIG    1       -7.588   1.252   0.422  0.00  0.00    -0.140 A 
ATOM      9  C   LIG    1       -8.744   1.090   1.188  0.00  0.00    +0.070 A 
ATOM     10  C   LIG    1       -9.628   0.073   0.890  0.00  0.00    +0.000 A 
BRANCH   5  11
ATOM     11  C   LIG    1      -10.331  -1.905  -0.472  0.00  0.00    +0.070 C 
BRANCH  11  12
ATOM     12  C   LIG    1       -9.945  -3.155   0.322  0.00  0.00    +0.000 C 
BRANCH  12  14
ATOM     13  C   LIG    1      -10.541  -5.535   0.795  0.00  0.00    +0.000 C 
ATOM     14  C   LIG    1      -10.926  -4.285   0.002  0.00  0.00    -0.010 C 
ENDBRANCH  12  14
ENDBRANCH  11  12
ENDBRANCH   5  11
ENDBRANCH   1   8
BRANCH   2  15
ATOM     15  C   LIG    1       -4.912   3.923   0.058  0.00  0.00    +0.340 C 
BRANCH  15  16
ATOM     16  C   LIG    1       -3.586   3.229   0.237  0.00  0.00    +0.500 C 
ATOM     17  N   LIG    1       -2.485   3.947   0.536  0.00  0.00    -0.670 N 
ATOM     18  H   LIG    1       -2.559   4.898   0.711  0.00  0.00    +0.410 HD
ATOM     19  O   LIG    1       -3.510   2.026   0.111  0.00  0.00    -0.510 OA
BRANCH  17  20
ATOM     20  C   LIG    1       -1.234   3.319   0.596  0.00  0.00    +0.110 A 
ATOM     21  C   LIG    1       -0.281   3.754   1.507  0.00  0.00    +0.030 A 
ATOM     22  C   LIG    1        0.953   3.137   1.562  0.00  0.00    +0.010 A 
ATOM     23  C   LIG    1        1.238   2.077   0.714  0.00  0.00    +0.110 A 
ATOM     24  C   LIG    1        0.284   1.639  -0.193  0.00  0.00    -0.060 A 
ATOM     25  C   LIG    1       -0.949   2.257  -0.253  0.00  0.00    +0.060 A 
BRANCH  23  26
ATOM     26  O   LIG    1        2.451   1.467   0.772  0.00  0.00    -0.320 OA
ATOM     27  C   LIG    1        2.676   0.382  -0.130  0.00  0.00    +0.250 C 
ENDBRANCH  23  26
ENDBRANCH  17  20
ENDBRANCH  15  16
ENDBRANCH   2  15
TORSDOF 8
