REMARK  Name = ZINCpe00000gMLk2.0
REMARK                            x       y       z     vdW  Elec       q    Type
REMARK                         _______ _______ _______ _____ _____    ______ ____
ROOT
ATOM      1  C   LIG    1       -1.946  -0.712  -1.184  0.00  0.00    +0.520 C 
ATOM      2  O   LIG    1       -1.334  -0.477  -2.208  0.00  0.00    -0.500 OA
ENDROOT
BRANCH   1   3
ATOM      3  C   LIG    1       -3.328  -1.221  -1.251  0.00  0.00    -0.120 A 
ATOM      4  C   LIG    1       -4.030  -1.497  -0.072  0.00  0.00    +0.110 A 
ATOM      5  C   LIG    1       -5.322  -1.967  -0.132  0.00  0.00    +0.020 A 
ATOM      6  C   LIG    1       -5.930  -2.180  -1.363  0.00  0.00    +0.130 A 
ATOM      7  N   LIG    1       -7.186  -2.640  -1.735  0.00  0.00    -0.640 N 
ATOM      8  H   LIG    1       -7.894  -2.907  -1.129  0.00  0.00    +0.440 HD
ATOM      9  C   LIG    1       -7.255  -2.653  -3.079  0.00  0.00    +0.680 A 
ATOM     10  N   LIG    1       -6.091  -2.219  -3.599  0.00  0.00    -0.540 N 
ATOM     11  C   LIG    1       -5.782  -2.092  -5.025  0.00  0.00    +0.350 C 
ATOM     12  O   LIG    1       -8.223  -3.004  -3.727  0.00  0.00    -0.550 OA
ATOM     13  C   LIG    1       -5.231  -1.912  -2.546  0.00  0.00    +0.080 A 
ATOM     14  C   LIG    1       -3.935  -1.434  -2.490  0.00  0.00    +0.120 A 
ENDBRANCH   1   3
BRANCH   1  15
ATOM     15  O   LIG    1       -1.360  -0.507   0.012  0.00  0.00    -0.320 OA
BRANCH  15  17
ATOM     16  C   LIG    1       -0.019   1.526   0.010  0.00  0.00    +0.070 C 
ATOM     17  C   LIG    1        0.002  -0.004   0.002  0.00  0.00    +0.200 C 
BRANCH  17  18
ATOM     18  C   LIG    1        0.731  -0.503   1.223  0.00  0.00    +0.510 C 
ATOM     19  N   LIG    1        2.045  -0.246   1.375  0.00  0.00    -0.640 N 
ATOM     20  H   LIG    1        2.522   0.261   0.699  0.00  0.00    +0.430 HD
ATOM     21  O   LIG    1        0.135  -1.137   2.068  0.00  0.00    -0.440 OA
BRANCH  19  22
ATOM     22  C   LIG    1        2.717  -0.706   2.501  0.00  0.00    +0.540 A 
ATOM     23  N   LIG    1        2.050  -1.391   3.417  0.00  0.00    -0.510 NA
ATOM     24  C   LIG    1        2.660  -1.848   4.498  0.00  0.00    +0.350 A 
ATOM     25  C   LIG    1        4.011  -1.592   4.670  0.00  0.00    -0.110 A 
ATOM     26  C   LIG    1        4.678  -0.867   3.694  0.00  0.00    +0.360 A 
ATOM     27  N   LIG    1        4.008  -0.444   2.635  0.00  0.00    -0.550 NA
ENDBRANCH  19  22
ENDBRANCH  17  18
ENDBRANCH  15  17
ENDBRANCH   1  15
TORSDOF 5
