REMARK  Name = ZINCvU0000000FEe.0
REMARK                            x       y       z     vdW  Elec       q    Type
REMARK                         _______ _______ _______ _____ _____    ______ ____
ROOT
ATOM      1  C   LIG    1       -0.221   1.915   3.635  0.00  0.00    +0.200 A 
ATOM      2  N   LIG    1       -1.469   1.662   3.911  0.00  0.00    -0.250 NA
ATOM      3  N   LIG    1       -1.776   2.152   5.059  0.00  0.00    -0.290 NA
ATOM      4  C   LIG    1       -0.732   2.752   5.583  0.00  0.00    +0.160 A 
ATOM      5  N   LIG    1        0.297   2.615   4.692  0.00  0.00    -0.420 N 
ENDROOT
BRANCH   5   6
ATOM      6  C   LIG    1        1.608   3.094   4.832  0.00  0.00    +0.090 A 
ATOM      7  C   LIG    1        2.667   2.201   4.929  0.00  0.00    +0.070 A 
ATOM      8  C   LIG    1        3.958   2.675   5.061  0.00  0.00    +0.010 A 
ATOM      9  C   LIG    1        4.195   4.038   5.108  0.00  0.00    +0.120 A 
ATOM     10  C   LIG    1        3.139   4.930   5.017  0.00  0.00    +0.010 A 
ATOM     11  F   LIG    1        5.458   4.499   5.242  0.00  0.00    -0.130 F 
ATOM     12  C   LIG    1        1.848   4.460   4.879  0.00  0.00    +0.070 A 
ENDBRANCH   5   6
BRANCH   1  14
ATOM     13  C   LIG    1        0.836   0.014   2.444  0.00  0.00    +0.070 C 
ATOM     14  C   LIG    1        0.518   1.509   2.385  0.00  0.00    +0.230 C 
BRANCH  14  15
ATOM     15  N   LIG    1       -0.320   1.786   1.210  0.00  0.00    -0.530 NA
ATOM     16  C   LIG    1       -0.724   3.197   1.172  0.00  0.00    +0.190 C 
ATOM     17  C   LIG    1        0.369   1.402  -0.029  0.00  0.00    +0.210 C 
ENDBRANCH  14  15
ENDBRANCH   1  14
BRANCH   4  18
ATOM     18  S   LIG    1       -0.667   3.571   7.142  0.00  0.00    +0.030 S 
BRANCH  18  19
ATOM     19  C   LIG    1       -2.370   3.317   7.701  0.00  0.00    +0.210 C 
BRANCH  19  20
ATOM     20  C   LIG    1       -2.554   3.953   9.055  0.00  0.00    +0.110 A 
ATOM     21  C   LIG    1       -2.342   3.293  10.195  0.00  0.00    -0.100 A 
ATOM     22  S   LIG    1       -2.665   4.395  11.532  0.00  0.00    +0.150 S 
ATOM     23  C   LIG    1       -3.064   5.636  10.426  0.00  0.00    +0.300 A 
ATOM     24  N   LIG    1       -2.943   5.205   9.209  0.00  0.00    -0.520 NA
BRANCH  23  25
ATOM     25  N   LIG    1       -3.460   6.918  10.780  0.00  0.00    -0.630 N 
ATOM     26  H   LIG    1       -3.581   7.594  10.095  0.00  0.00    +0.420 HD
BRANCH  25  27
ATOM     27  C   LIG    1       -3.685   7.234  12.122  0.00  0.00    +0.160 A 
ATOM     28  C   LIG    1       -4.254   6.295  12.973  0.00  0.00    -0.030 A 
ATOM     29  C   LIG    1       -4.470   6.609  14.300  0.00  0.00    +0.050 A 
ATOM     30  C   LIG    1       -4.131   7.861  14.780  0.00  0.00    -0.010 A 
ATOM     31  C   LIG    1       -3.570   8.800  13.934  0.00  0.00    +0.040 A 
ATOM     32  C   LIG    1       -3.346   8.491  12.607  0.00  0.00    -0.010 A 
ENDBRANCH  25  27
ENDBRANCH  23  25
ENDBRANCH  19  20
ENDBRANCH  18  19
ENDBRANCH   4  18
TORSDOF 8
