REMARK  Name = ZINCkj000005fVbi.1
REMARK                            x       y       z     vdW  Elec       q    Type
REMARK                         _______ _______ _______ _____ _____    ______ ____
ROOT
ATOM      1  N   LIG    1        2.340  -0.078  -0.021  0.00  0.00    -0.550 N 
ATOM      2  C   LIG    1        1.117  -0.670  -0.012  0.00  0.00    +0.570 A 
ATOM      3  N   LIG    1        0.002  -0.004   0.002  0.00  0.00    -0.500 NA
ATOM      4  C   LIG    1       -0.016   1.352   0.009  0.00  0.00    +0.170 A 
ATOM      5  C   LIG    1       -1.215   2.069   0.030  0.00  0.00    -0.100 A 
ATOM      6  C   LIG    1       -1.186   3.446   0.033  0.00  0.00    +0.110 A 
ATOM      7  C   LIG    1        0.021   4.132   0.025  0.00  0.00    +0.030 A 
ATOM      8  C   LIG    1        1.216   3.447   0.009  0.00  0.00    +0.120 A 
ATOM      9  I   LIG    1       -3.048   1.054   0.051  0.00  0.00    +0.000 I 
ATOM     10  C   LIG    1        1.210   2.054   0.002  0.00  0.00    -0.190 A 
ATOM     11  C   LIG    1        2.454   1.270  -0.015  0.00  0.00    +0.560 A 
ATOM     12  O   LIG    1        3.543   1.813  -0.022  0.00  0.00    -0.500 OA
ENDROOT
BRANCH   1  13
ATOM     13  C   LIG    1        3.547  -0.908  -0.037  0.00  0.00    +0.300 C 
BRANCH  13  14
ATOM     14  C   LIG    1        3.953  -1.189  -1.485  0.00  0.00    +0.190 C 
BRANCH  14  15
ATOM     15  O   LIG    1        4.327   0.035  -2.121  0.00  0.00    -0.540 OA
ATOM     16  H   LIG    1        5.071   0.486  -1.698  0.00  0.00    +0.400 HD
ENDBRANCH  14  15
BRANCH  14  17
ATOM     17  C   LIG    1        5.139  -2.156  -1.504  0.00  0.00    +0.240 C 
BRANCH  17  18
ATOM     18  N   LIG    1        5.529  -2.426  -2.894  0.00  0.00    -0.380 N 
ATOM     19  C   LIG    1        4.439  -3.133  -3.580  0.00  0.00    +0.310 C 
ATOM     20  H   LIG    1        5.714  -1.554  -3.367  0.00  0.00    +0.430 HD
BRANCH  18  22
ATOM     21  C   LIG    1        7.217  -3.435  -4.354  0.00  0.00    +0.080 C 
ATOM     22  C   LIG    1        6.739  -3.258  -2.911  0.00  0.00    +0.250 C 
ENDBRANCH  18  22
ENDBRANCH  17  18
ENDBRANCH  14  17
ENDBRANCH  13  14
ENDBRANCH   1  13
TORSDOF 6
