REMARK  Name = ZINCkj000005fVbi.0
REMARK                            x       y       z     vdW  Elec       q    Type
REMARK                         _______ _______ _______ _____ _____    ______ ____
ROOT
ATOM      1  N   LIG    1        2.615   0.264  -0.044  0.00  0.00    -0.550 N 
ATOM      2  C   LIG    1        1.339  -0.202   0.004  0.00  0.00    +0.570 A 
ATOM      3  N   LIG    1        0.297   0.572   0.016  0.00  0.00    -0.500 NA
ATOM      4  C   LIG    1        0.413   1.923  -0.019  0.00  0.00    +0.170 A 
ATOM      5  C   LIG    1       -0.708   2.756  -0.001  0.00  0.00    -0.100 A 
ATOM      6  C   LIG    1       -0.543   4.123  -0.043  0.00  0.00    +0.110 A 
ATOM      7  C   LIG    1        0.726   4.685  -0.093  0.00  0.00    +0.030 A 
ATOM      8  C   LIG    1        1.847   3.884  -0.107  0.00  0.00    +0.120 A 
ATOM      9  I   LIG    1       -2.632   1.930   0.082  0.00  0.00    +0.000 I 
ATOM     10  C   LIG    1        1.702   2.499  -0.070  0.00  0.00    -0.190 A 
ATOM     11  C   LIG    1        2.862   1.595  -0.082  0.00  0.00    +0.560 A 
ATOM     12  O   LIG    1        3.999   2.026  -0.125  0.00  0.00    -0.500 OA
ENDROOT
BRANCH   1  13
ATOM     13  C   LIG    1        3.733  -0.682  -0.053  0.00  0.00    +0.310 C 
BRANCH  13  14
ATOM     14  C   LIG    1        4.081  -1.046  -1.498  0.00  0.00    +0.190 C 
BRANCH  14  15
ATOM     15  O   LIG    1        4.561   0.115  -2.179  0.00  0.00    -0.540 OA
ATOM     16  H   LIG    1        5.354   0.503  -1.784  0.00  0.00    +0.400 HD
ENDBRANCH  14  15
BRANCH  14  17
ATOM     17  C   LIG    1        5.163  -2.127  -1.506  0.00  0.00    +0.240 C 
BRANCH  17  18
ATOM     18  N   LIG    1        5.453  -2.520  -2.891  0.00  0.00    -0.380 N 
ATOM     19  C   LIG    1        6.591  -3.449  -2.909  0.00  0.00    +0.320 C 
ATOM     20  H   LIG    1        5.680  -1.700  -3.433  0.00  0.00    +0.430 HD
BRANCH  18  22
ATOM     21  C   LIG    1        4.530  -3.477  -4.948  0.00  0.00    +0.080 C 
ATOM     22  C   LIG    1        4.274  -3.179  -3.469  0.00  0.00    +0.240 C 
ENDBRANCH  18  22
ENDBRANCH  17  18
ENDBRANCH  14  17
ENDBRANCH  13  14
ENDBRANCH   1  13
TORSDOF 6
