REMARK  Name = ZINCAx000000082P.0
REMARK                            x       y       z     vdW  Elec       q    Type
REMARK                         _______ _______ _______ _____ _____    ______ ____
ROOT
ATOM      1  C   LIG    1        1.064  -5.053  -2.042  0.00  0.00    +0.530 C 
ATOM      2  N   LIG    1        0.040  -4.778  -1.210  0.00  0.00    -0.580 N 
ATOM      3  O   LIG    1        2.202  -4.796  -1.709  0.00  0.00    -0.520 OA
ENDROOT
BRANCH   1   5
ATOM      4  C   LIG    1        0.548  -4.583  -4.421  0.00  0.00    +0.070 C 
ATOM      5  C   LIG    1        0.795  -5.681  -3.385  0.00  0.00    +0.240 C 
BRANCH   5   6
ATOM      6  N   LIG    1        1.953  -6.483  -3.790  0.00  0.00    -0.710 N 
ATOM      7  H   LIG    1        2.833  -6.275  -3.439  0.00  0.00    +0.400 HD
ATOM      8  C   LIG    1        1.795  -7.509  -4.649  0.00  0.00    +0.600 C 
ATOM      9  O   LIG    1        0.691  -7.770  -5.090  0.00  0.00    -0.510 OA
BRANCH   8  10
ATOM     10  C   LIG    1        2.952  -8.310  -5.053  0.00  0.00    -0.040 A 
ATOM     11  C   LIG    1        2.953  -9.405  -5.928  0.00  0.00    -0.090 A 
ATOM     12  C   LIG    1        2.000 -10.094  -6.689  0.00  0.00    +0.070 A 
ATOM     13  C   LIG    1        2.391 -11.148  -7.456  0.00  0.00    +0.010 A 
ATOM     14  C   LIG    1        3.723 -11.558  -7.508  0.00  0.00    +0.030 A 
ATOM     15  C   LIG    1        4.695 -10.929  -6.798  0.00  0.00    +0.060 A 
ATOM     16  C   LIG    1        4.359  -9.829  -5.983  0.00  0.00    +0.050 A 
ATOM     17  N   LIG    1        5.023  -9.011  -5.186  0.00  0.00    -0.260 NA
ATOM     18  N   LIG    1        4.242  -8.143  -4.650  0.00  0.00    -0.320 N 
ATOM     19  H   LIG    1        4.536  -7.454  -4.034  0.00  0.00    +0.450 HD
ENDBRANCH   8  10
ENDBRANCH   5   6
ENDBRANCH   1   5
BRANCH   2  20
ATOM     20  C   LIG    1        0.308  -4.272   0.139  0.00  0.00    +0.350 C 
BRANCH  20  21
ATOM     21  C   LIG    1        0.359  -2.767   0.110  0.00  0.00    -0.140 A 
ATOM     22  C   LIG    1       -0.795  -2.033   0.314  0.00  0.00    +0.070 A 
ATOM     23  C   LIG    1       -0.751  -0.652   0.288  0.00  0.00    -0.020 A 
ATOM     24  C   LIG    1        0.453  -0.002   0.057  0.00  0.00    +0.140 A 
ATOM     25  C   LIG    1        1.609  -0.741  -0.153  0.00  0.00    -0.090 A 
ATOM     26  C   LIG    1        1.560  -2.121  -0.121  0.00  0.00    +0.080 A 
BRANCH  24  27
ATOM     27  O   LIG    1        0.499   1.356   0.031  0.00  0.00    -0.310 OA
BRANCH  27  28
ATOM     28  C   LIG    1        1.773   1.957  -0.212  0.00  0.00    +0.240 C 
BRANCH  28  29
ATOM     29  C   LIG    1        1.630   3.457  -0.205  0.00  0.00    -0.100 A 
ATOM     30  C   LIG    1        1.352   4.131  -1.379  0.00  0.00    +0.020 A 
ATOM     31  C   LIG    1        1.216   5.506  -1.372  0.00  0.00    +0.010 A 
ATOM     32  C   LIG    1        1.367   6.209  -0.191  0.00  0.00    +0.020 A 
ATOM     33  C   LIG    1        1.651   5.536   0.983  0.00  0.00    +0.010 A 
ATOM     34  C   LIG    1        1.782   4.160   0.976  0.00  0.00    +0.020 A 
ENDBRANCH  28  29
ENDBRANCH  27  28
ENDBRANCH  24  27
ENDBRANCH  20  21
ENDBRANCH   2  20
BRANCH   2  35
ATOM     35  C   LIG    1       -1.341  -4.984  -1.655  0.00  0.00    +0.310 C 
BRANCH  35  36
ATOM     36  C   LIG    1       -1.833  -3.743  -2.354  0.00  0.00    +0.490 C 
ATOM     37  O   LIG    1       -1.103  -2.782  -2.470  0.00  0.00    -0.500 OA
ATOM     38  N   LIG    1       -3.085  -3.702  -2.851  0.00  0.00    -0.850 N 
ATOM     39  H   LIG    1       -3.403  -2.903  -3.301  0.00  0.00    +0.410 HD
ATOM     40  H   LIG    1       -3.670  -4.471  -2.759  0.00  0.00    +0.400 HD
ENDBRANCH  35  36
ENDBRANCH   2  35
TORSDOF 10
