REMARK  Name = ZINCAx000000082P.1
REMARK                            x       y       z     vdW  Elec       q    Type
REMARK                         _______ _______ _______ _____ _____    ______ ____
ROOT
ATOM      1  C   LIG    1       -0.950  -4.963  -2.167  0.00  0.00    +0.520 C 
ATOM      2  N   LIG    1        0.160  -4.309  -1.772  0.00  0.00    -0.580 N 
ATOM      3  O   LIG    1       -1.926  -4.991  -1.446  0.00  0.00    -0.520 OA
ENDROOT
BRANCH   1   5
ATOM      4  C   LIG    1       -0.455  -7.087  -3.346  0.00  0.00    +0.070 C 
ATOM      5  C   LIG    1       -0.980  -5.658  -3.503  0.00  0.00    +0.240 C 
BRANCH   5   6
ATOM      6  N   LIG    1       -2.356  -5.696  -4.004  0.00  0.00    -0.700 N 
ATOM      7  H   LIG    1       -3.100  -5.653  -3.382  0.00  0.00    +0.420 HD
ATOM      8  C   LIG    1       -2.589  -5.789  -5.328  0.00  0.00    +0.610 C 
ATOM      9  O   LIG    1       -1.657  -5.842  -6.107  0.00  0.00    -0.530 OA
BRANCH   8  10
ATOM     10  C   LIG    1       -3.974  -5.827  -5.832  0.00  0.00    -0.000 A 
ATOM     11  N   LIG    1       -5.075  -5.784  -5.114  0.00  0.00    -0.200 NA
ATOM     12  N   LIG    1       -6.128  -5.832  -5.847  0.00  0.00    -0.410 N 
ATOM     13  H   LIG    1       -7.036  -5.810  -5.504  0.00  0.00    +0.450 HD
ATOM     14  C   LIG    1       -5.805  -5.925  -7.175  0.00  0.00    +0.060 A 
ATOM     15  C   LIG    1       -6.536  -6.008  -8.356  0.00  0.00    +0.010 A 
ATOM     16  C   LIG    1       -5.875  -6.090  -9.562  0.00  0.00    +0.050 A 
ATOM     17  C   LIG    1       -4.487  -6.091  -9.612  0.00  0.00    -0.010 A 
ATOM     18  C   LIG    1       -3.750  -6.010  -8.463  0.00  0.00    +0.090 A 
ATOM     19  C   LIG    1       -4.398  -5.926  -7.235  0.00  0.00    -0.110 A 
ENDBRANCH   8  10
ENDBRANCH   5   6
ENDBRANCH   1   5
BRANCH   2  20
ATOM     20  C   LIG    1        0.229  -3.727  -0.429  0.00  0.00    +0.360 C 
BRANCH  20  21
ATOM     21  C   LIG    1       -0.286  -2.312  -0.467  0.00  0.00    -0.150 A 
ATOM     22  C   LIG    1       -1.629  -2.060  -0.256  0.00  0.00    +0.090 A 
ATOM     23  C   LIG    1       -2.104  -0.763  -0.291  0.00  0.00    -0.020 A 
ATOM     24  C   LIG    1       -1.232   0.287  -0.538  0.00  0.00    +0.140 A 
ATOM     25  C   LIG    1        0.115   0.032  -0.755  0.00  0.00    -0.080 A 
ATOM     26  C   LIG    1        0.585  -1.266  -0.714  0.00  0.00    +0.050 A 
BRANCH  24  27
ATOM     27  O   LIG    1       -1.696   1.564  -0.572  0.00  0.00    -0.310 OA
BRANCH  27  28
ATOM     28  C   LIG    1       -0.741   2.595  -0.832  0.00  0.00    +0.240 C 
BRANCH  28  29
ATOM     29  C   LIG    1       -1.435   3.933  -0.832  0.00  0.00    -0.100 A 
ATOM     30  C   LIG    1       -1.952   4.443  -2.008  0.00  0.00    +0.020 A 
ATOM     31  C   LIG    1       -2.592   5.668  -2.007  0.00  0.00    +0.010 A 
ATOM     32  C   LIG    1       -2.706   6.388  -0.832  0.00  0.00    +0.020 A 
ATOM     33  C   LIG    1       -2.183   5.881   0.343  0.00  0.00    +0.010 A 
ATOM     34  C   LIG    1       -1.548   4.653   0.343  0.00  0.00    +0.020 A 
ENDBRANCH  28  29
ENDBRANCH  27  28
ENDBRANCH  24  27
ENDBRANCH  20  21
ENDBRANCH   2  20
BRANCH   2  35
ATOM     35  C   LIG    1        1.298  -4.179  -2.686  0.00  0.00    +0.320 C 
BRANCH  35  36
ATOM     36  C   LIG    1        2.288  -5.283  -2.414  0.00  0.00    +0.490 C 
ATOM     37  O   LIG    1        2.065  -6.097  -1.544  0.00  0.00    -0.520 OA
ATOM     38  N   LIG    1        3.421  -5.364  -3.140  0.00  0.00    -0.850 N 
ATOM     39  H   LIG    1        4.058  -6.075  -2.965  0.00  0.00    +0.410 HD
ATOM     40  H   LIG    1        3.599  -4.713  -3.836  0.00  0.00    +0.400 HD
ENDBRANCH  35  36
ENDBRANCH   2  35
TORSDOF 10
