REMARK  Name = ZINCtV000002yZIf.0
REMARK                            x       y       z     vdW  Elec       q    Type
REMARK                         _______ _______ _______ _____ _____    ______ ____
ROOT
ATOM      1  C   LIG    1        3.680  -0.670  -0.036  0.00  0.00    -0.070 A 
ATOM      2  C   LIG    1        4.823   0.117  -0.028  0.00  0.00    +0.030 A 
ATOM      3  C   LIG    1        4.697   1.514  -0.020  0.00  0.00    +0.180 A 
ATOM      4  N   LIG    1        3.526   2.115  -0.020  0.00  0.00    -0.420 NA
ATOM      5  C   LIG    1        2.377   1.438  -0.027  0.00  0.00    +0.130 A 
ATOM      6  C   LIG    1        1.139   2.107  -0.027  0.00  0.00    +0.050 A 
ATOM      7  C   LIG    1       -0.017   1.389  -0.034  0.00  0.00    +0.040 A 
ATOM      8  C   LIG    1        0.002  -0.004  -0.042  0.00  0.00    +0.030 A 
ATOM      9  C   LIG    1        1.183  -0.686  -0.043  0.00  0.00    +0.050 A 
ATOM     10  C   LIG    1        2.389   0.020  -0.036  0.00  0.00    -0.050 A 
ENDROOT
BRANCH   3  11
ATOM     11  C   LIG    1        5.926   2.343  -0.011  0.00  0.00    -0.030 A 
ATOM     12  C   LIG    1        7.180   1.734  -0.005  0.00  0.00    +0.070 A 
ATOM     13  C   LIG    1        8.322   2.509  -0.002  0.00  0.00    +0.060 A 
ATOM     14  C   LIG    1        8.225   3.890   0.006  0.00  0.00    -0.010 A 
ATOM     15  C   LIG    1        6.982   4.502   0.006  0.00  0.00    -0.040 A 
ATOM     16 CL   LIG    1        6.868   6.234   0.017  0.00  0.00    -0.020 Cl
ATOM     17 CL   LIG    1        9.665   4.859   0.018  0.00  0.00    -0.030 Cl
ATOM     18  C   LIG    1        5.832   3.735  -0.003  0.00  0.00    +0.010 A 
ATOM     19 CL   LIG    1        4.275   4.502  -0.003  0.00  0.00    +0.010 Cl
ENDBRANCH   3  11
BRANCH   1  22
ATOM     20  N   LIG    1        4.960  -2.753  -0.162  0.00  0.00    -0.620 N 
ATOM     21  H   LIG    1        5.768  -2.222  -0.240  0.00  0.00    +0.420 HD
ATOM     22  C   LIG    1        3.762  -2.146  -0.045  0.00  0.00    +0.560 C 
ATOM     23  O   LIG    1        2.750  -2.812   0.052  0.00  0.00    -0.440 OA
BRANCH  20  27
ATOM     24  C   LIG    1        5.527  -6.562  -0.220  0.00  0.00    +0.040 A 
ATOM     25  N   LIG    1        4.290  -6.201  -0.100  0.00  0.00    -0.240 NA
ATOM     26  N   LIG    1        4.036  -4.967  -0.069  0.00  0.00    -0.260 NA
ATOM     27  C   LIG    1        5.037  -4.141  -0.171  0.00  0.00    +0.250 A 
ATOM     28  S   LIG    1        6.511  -5.101  -0.314  0.00  0.00    +0.070 S 
BRANCH  24  30
ATOM     29  C   LIG    1        6.069  -8.458  -1.724  0.00  0.00    +0.040 C 
ATOM     30  C   LIG    1        6.037  -7.980  -0.271  0.00  0.00    +0.150 C 
ENDBRANCH  24  30
ENDBRANCH  20  27
ENDBRANCH   1  22
TORSDOF 4
