REMARK  Name = ZINCvU000000070K.0
REMARK                            x       y       z     vdW  Elec       q    Type
REMARK                         _______ _______ _______ _____ _____    ______ ____
ROOT
ATOM      1  N   LIG    1        0.840   7.192   0.195  0.00  0.00    -0.720 N 
ATOM      2  H   LIG    1        0.548   7.457   1.081  0.00  0.00    +0.400 HD
ATOM      3  C   LIG    1        1.825   7.873  -0.423  0.00  0.00    +0.520 C 
ATOM      4  O   LIG    1        2.189   7.541  -1.531  0.00  0.00    -0.530 OA
ENDROOT
BRANCH   1   5
ATOM      5  C   LIG    1        0.208   6.051  -0.473  0.00  0.00    +0.290 C 
ATOM      6  C   LIG    1       -0.911   6.550  -1.388  0.00  0.00    +0.040 C 
BRANCH   5  10
ATOM      7  C   LIG    1       -1.427   3.412   2.469  0.00  0.00    +0.110 A 
ATOM      8  C   LIG    1       -1.532   4.783   2.630  0.00  0.00    -0.030 A 
ATOM      9  C   LIG    1       -1.003   5.634   1.677  0.00  0.00    +0.020 A 
ATOM     10  C   LIG    1       -0.368   5.119   0.562  0.00  0.00    -0.090 A 
ATOM     11  C   LIG    1       -0.254   3.750   0.398  0.00  0.00    -0.020 A 
ATOM     12  C   LIG    1       -0.787   2.893   1.346  0.00  0.00    +0.110 A 
BRANCH  12  13
ATOM     13  O   LIG    1       -0.682   1.547   1.184  0.00  0.00    -0.300 OA
ATOM     14  C   LIG    1       -0.013   1.086   0.008  0.00  0.00    +0.240 C 
ENDBRANCH  12  13
BRANCH   7  15
ATOM     15  O   LIG    1       -1.946   2.574   3.405  0.00  0.00    -0.300 OA
BRANCH  15  17
ATOM     16  C   LIG    1       -3.106   2.084   5.468  0.00  0.00    +0.070 C 
ATOM     17  C   LIG    1       -2.588   3.177   4.530  0.00  0.00    +0.170 C 
ENDBRANCH  15  17
ENDBRANCH   7  15
ENDBRANCH   5  10
ENDBRANCH   1   5
BRANCH   3  18
ATOM     18  C   LIG    1        2.474   9.047   0.264  0.00  0.00    +0.070 C 
BRANCH  18  19
ATOM     19  C   LIG    1        3.553   9.637  -0.647  0.00  0.00    +0.210 C 
BRANCH  19  20
ATOM     20  C   LIG    1        4.202  10.812   0.040  0.00  0.00    +0.190 A 
ATOM     21  N   LIG    1        5.244  10.750   0.820  0.00  0.00    -0.470 NA
ATOM     22  C   LIG    1        5.542  11.987   1.246  0.00  0.00    +0.170 A 
ATOM     23  C   LIG    1        4.631  12.836   0.705  0.00  0.00    -0.000 A 
ATOM     24  O   LIG    1        3.797  12.086  -0.049  0.00  0.00    -0.190 OA
BRANCH  23  25
ATOM     25  C   LIG    1        4.565  14.299   0.901  0.00  0.00    -0.020 A 
ATOM     26  C   LIG    1        3.569  15.047   0.271  0.00  0.00    +0.030 A 
ATOM     27  C   LIG    1        3.510  16.412   0.463  0.00  0.00    +0.020 A 
ATOM     28  C   LIG    1        4.441  17.041   1.270  0.00  0.00    -0.080 A 
ATOM     29  C   LIG    1        5.434  16.306   1.893  0.00  0.00    -0.080 A 
ATOM     30  C   LIG    1        6.445  17.000   2.770  0.00  0.00    +0.090 C 
ATOM     31  C   LIG    1        4.373  18.533   1.471  0.00  0.00    +0.090 C 
ATOM     32  C   LIG    1        5.502  14.940   1.714  0.00  0.00    +0.040 A 
ENDBRANCH  23  25
ENDBRANCH  19  20
ENDBRANCH  18  19
ENDBRANCH   3  18
TORSDOF 9
