REMARK  Name = ZINCpe000000VKTC.0
REMARK                            x       y       z     vdW  Elec       q    Type
REMARK                         _______ _______ _______ _____ _____    ______ ____
ROOT
ATOM      1  C   LIG    1       -2.432  -4.503  -4.275  0.00  0.00    -0.120 C 
ATOM      2  C   LIG    1       -3.489  -4.293  -3.557  0.00  0.00    -0.030 C 
ATOM      3  C   LIG    1       -4.209  -2.974  -3.501  0.00  0.00    +0.300 C 
ATOM      4  N   LIG    1       -3.386  -1.946  -4.154  0.00  0.00    -0.630 N 
ATOM      5  C   LIG    1       -2.733  -2.311  -5.423  0.00  0.00    +0.300 C 
ATOM      6  C   LIG    1       -3.238  -0.719  -3.616  0.00  0.00    +0.720 C 
ATOM      7  N   LIG    1       -3.853  -0.414  -2.456  0.00  0.00    -0.730 N 
ATOM      8  H   LIG    1       -4.401  -1.077  -2.008  0.00  0.00    +0.400 HD
ATOM      9  O   LIG    1       -2.551   0.112  -4.178  0.00  0.00    -0.570 OA
ATOM     10  C   LIG    1       -1.766  -3.469  -5.133  0.00  0.00    +0.070 C 
ENDROOT
BRANCH   7  11
ATOM     11  C   LIG    1       -3.692   0.920  -1.871  0.00  0.00    +0.280 C 
ATOM     12  C   LIG    1       -4.897   1.261  -0.964  0.00  0.00    +0.060 C 
ATOM     13  C   LIG    1       -4.218   2.052   0.177  0.00  0.00    +0.290 C 
ATOM     14  N   LIG    1       -2.827   1.583   0.203  0.00  0.00    -0.560 N 
ATOM     15  C   LIG    1       -2.502   0.954  -0.939  0.00  0.00    +0.510 C 
ATOM     16  O   LIG    1       -1.413   0.480  -1.185  0.00  0.00    -0.480 OA
BRANCH  14  17
ATOM     17  C   LIG    1       -1.954   1.772   1.274  0.00  0.00    +0.310 A 
ATOM     18  C   LIG    1       -1.097   2.817   1.439  0.00  0.00    -0.090 A 
ATOM     19  C   LIG    1       -0.404   2.618   2.636  0.00  0.00    +0.080 A 
ATOM     20  N   LIG    1       -0.827   1.503   3.175  0.00  0.00    -0.280 NA
ATOM     21  C   LIG    1        0.650   3.531   3.208  0.00  0.00    +0.170 C 
ATOM     22  N   LIG    1       -1.806   0.952   2.340  0.00  0.00    -0.370 N 
ATOM     23  C   LIG    1       -2.537  -0.296   2.574  0.00  0.00    +0.350 C 
ENDBRANCH  14  17
ENDBRANCH   7  11
BRANCH   1  24
ATOM     24  C   LIG    1       -1.830  -5.884  -4.247  0.00  0.00    +0.210 C 
BRANCH  24  26
ATOM     25  C   LIG    1       -2.109  -8.061  -3.284  0.00  0.00    +0.200 C 
ATOM     26  O   LIG    1       -2.598  -6.721  -3.382  0.00  0.00    -0.390 OA
ENDBRANCH  24  26
ENDBRANCH   1  24
TORSDOF 4
