REMARK  Name = ZINCpk00000y6wHl.0
REMARK                            x       y       z     vdW  Elec       q    Type
REMARK                         _______ _______ _______ _____ _____    ______ ____
ROOT
ATOM      1  C   LIG    1       -0.014   1.212   0.009  0.00  0.00    +0.620 C 
ATOM      2  N   LIG    1       -1.191   1.869   0.018  0.00  0.00    -0.600 N 
ATOM      3  C   LIG    1       -1.356   3.334   0.026  0.00  0.00    +0.250 C 
ATOM      4  C   LIG    1       -2.755   3.572   0.645  0.00  0.00    +0.170 C 
ATOM      5  C   LIG    1       -3.562   2.384   0.058  0.00  0.00    +0.060 C 
ATOM      6  C   LIG    1       -2.522   1.245   0.015  0.00  0.00    +0.270 C 
ATOM      7  O   LIG    1        0.002  -0.004   0.002  0.00  0.00    -0.510 OA
ENDROOT
BRANCH   6   8
ATOM      8  C   LIG    1       -2.702   0.429  -1.239  0.00  0.00    -0.050 A 
ATOM      9  C   LIG    1       -2.204   0.893  -2.442  0.00  0.00    -0.020 A 
ATOM     10  C   LIG    1       -2.367   0.147  -3.595  0.00  0.00    +0.040 A 
ATOM     11  C   LIG    1       -3.029  -1.065  -3.547  0.00  0.00    -0.080 A 
ATOM     12  C   LIG    1       -3.531  -1.532  -2.341  0.00  0.00    +0.130 A 
ATOM     13  C   LIG    1       -3.361  -0.784  -1.185  0.00  0.00    +0.000 A 
BRANCH  12  14
ATOM     14  O   LIG    1       -4.183  -2.723  -2.290  0.00  0.00    -0.320 OA
ATOM     15  C   LIG    1       -4.315  -3.443  -3.518  0.00  0.00    +0.250 C 
ENDBRANCH  12  14
ENDBRANCH   6   8
BRANCH   1  19
ATOM     16  N   LIG    1        2.631   3.597  -0.004  0.00  0.00    -0.280 N 
ATOM     17  C   LIG    1        3.397   2.485  -0.017  0.00  0.00    +0.180 A 
ATOM     18  C   LIG    1        2.560   1.421  -0.009  0.00  0.00    -0.020 A 
ATOM     19  C   LIG    1        1.255   1.967   0.001  0.00  0.00    -0.010 A 
ATOM     20  N   LIG    1        1.387   3.279   0.007  0.00  0.00    -0.260 NA
BRANCH  16  21
ATOM     21  C   LIG    1        3.145   4.969  -0.001  0.00  0.00    +0.330 C 
BRANCH  21  22
ATOM     22  C   LIG    1        2.538   5.743  -1.172  0.00  0.00    +0.180 C 
BRANCH  22  24
ATOM     23  C   LIG    1        2.532   7.894  -2.230  0.00  0.00    +0.210 C 
ATOM     24  O   LIG    1        3.039   7.081  -1.170  0.00  0.00    -0.390 OA
ENDBRANCH  22  24
ENDBRANCH  21  22
ENDBRANCH  16  21
ENDBRANCH   1  19
BRANCH   4  25
ATOM     25  O   LIG    1       -3.299   4.823   0.218  0.00  0.00    -0.550 OA
ATOM     26  H   LIG    1       -2.772   5.591   0.479  0.00  0.00    +0.380 HD
ENDBRANCH   4  25
TORSDOF 7
