REMARK  Name = ZINCpk00000y6wXw.0
REMARK                            x       y       z     vdW  Elec       q    Type
REMARK                         _______ _______ _______ _____ _____    ______ ____
ROOT
ATOM      1  N   LIG    1       -0.011   0.966   0.012  0.00  0.00    -0.740 N 
ATOM      2  H   LIG    1        0.002  -0.004   0.010  0.00  0.00    +0.400 HD
ATOM      3  C   LIG    1        1.147   1.655   0.000  0.00  0.00    +0.720 C 
ATOM      4  N   LIG    1        2.322   1.001   0.087  0.00  0.00    -0.620 N 
ATOM      5  C   LIG    1        3.586   1.742   0.184  0.00  0.00    +0.290 C 
ATOM      6  C   LIG    1        4.534   1.256  -0.911  0.00  0.00    +0.030 C 
ATOM      7  C   LIG    1        4.686  -0.264  -0.813  0.00  0.00    +0.030 C 
ATOM      8  C   LIG    1        3.324  -0.929  -1.019  0.00  0.00    +0.260 C 
ATOM      9  C   LIG    1        2.363  -0.468   0.080  0.00  0.00    +0.280 C 
ATOM     10  O   LIG    1        1.132   2.868  -0.089  0.00  0.00    -0.580 OA
ENDROOT
BRANCH   8  11
ATOM     11  N   LIG    1        3.477  -2.385  -0.956  0.00  0.00    -0.380 N 
ATOM     12  C   LIG    1        3.482  -3.147   0.151  0.00  0.00    +0.470 A 
ATOM     13  N   LIG    1        3.641  -4.393  -0.215  0.00  0.00    -0.540 NA
ATOM     14  C   LIG    1        3.740  -4.466  -1.542  0.00  0.00    +0.420 A 
ATOM     15  N   LIG    1        3.640  -3.262  -2.041  0.00  0.00    -0.320 NA
ENDBRANCH   8  11
BRANCH   1  17
ATOM     16  C   LIG    1       -1.664   2.038   1.462  0.00  0.00    +0.060 C 
ATOM     17  C   LIG    1       -1.290   1.682   0.022  0.00  0.00    +0.370 C 
BRANCH  17  18
ATOM     18  C   LIG    1       -2.361   0.804  -0.573  0.00  0.00    +0.120 A 
ATOM     19  N   LIG    1       -2.554  -0.463  -0.316  0.00  0.00    -0.240 NA
ATOM     20  N   LIG    1       -3.554  -0.909  -0.991  0.00  0.00    -0.280 NA
ATOM     21  C   LIG    1       -4.055   0.066  -1.733  0.00  0.00    +0.200 A 
ATOM     22  C   LIG    1       -5.125   0.137  -2.646  0.00  0.00    +0.080 A 
ATOM     23  C   LIG    1       -5.393   1.318  -3.264  0.00  0.00    +0.070 A 
ATOM     24  C   LIG    1       -4.602   2.446  -2.986  0.00  0.00    +0.030 A 
ATOM     25  C   LIG    1       -3.580   2.363  -2.108  0.00  0.00    +0.230 A 
ATOM     26  N   LIG    1       -3.300   1.185  -1.481  0.00  0.00    -0.380 N 
ENDBRANCH  17  18
ENDBRANCH   1  17
TORSDOF 3
