REMARK  Name = ZINCah0000002sgK.0
REMARK                            x       y       z     vdW  Elec       q    Type
REMARK                         _______ _______ _______ _____ _____    ______ ____
ROOT
ATOM      1  N   LIG    1        0.626   3.564   0.015  0.00  0.00    -0.310 N 
ATOM      2  N   LIG    1       -0.772   3.531   0.028  0.00  0.00    -0.300 NA
ATOM      3  C   LIG    1       -1.168   2.288   0.019  0.00  0.00    +0.300 A 
ATOM      4  C   LIG    1       -0.018   1.462   0.010  0.00  0.00    -0.350 A 
ATOM      5  C   LIG    1        1.085   2.300   0.004  0.00  0.00    +0.160 A 
ATOM      6  C   LIG    1        2.530   1.875  -0.013  0.00  0.00    +0.180 C 
ENDROOT
BRANCH   1   8
ATOM      7  C   LIG    1        0.843   5.905   0.026  0.00  0.00    +0.070 C 
ATOM      8  C   LIG    1        1.413   4.716   0.015  0.00  0.00    +0.210 C 
ENDBRANCH   1   8
BRANCH   4   9
ATOM      9  C   LIG    1        0.002  -0.004   0.002  0.00  0.00    +0.530 C 
ATOM     10  O   LIG    1        1.061  -0.596  -0.011  0.00  0.00    -0.480 OA
ENDBRANCH   4   9
TORSDOF 2
