REMARK  Name = ZINCrD0000073W8E.0
REMARK                            x       y       z     vdW  Elec       q    Type
REMARK                         _______ _______ _______ _____ _____    ______ ____
ROOT
ATOM      1  C   LIG    1       -6.123  -0.601   0.060  0.00  0.00    +0.470 C 
ATOM      2  O   LIG    1       -6.094  -1.809   0.053  0.00  0.00    -0.510 OA
ENDROOT
BRANCH   1   3
ATOM      3  O   LIG    1       -7.302   0.042   0.075  0.00  0.00    -0.330 OA
BRANCH   3   5
ATOM      4  C   LIG    1       -8.935  -1.059  -1.357  0.00  0.00    +0.070 C 
ATOM      5  C   LIG    1       -8.500  -0.778   0.083  0.00  0.00    +0.160 C 
BRANCH   5   6
ATOM      6  C   LIG    1       -9.602  -0.050   0.808  0.00  0.00    +0.400 C 
ATOM      7  O   LIG    1       -9.541   1.152   0.953  0.00  0.00    -0.420 OA
BRANCH   6   8
ATOM      8  C   LIG    1      -10.752  -0.798   1.340  0.00  0.00    -0.160 A 
ATOM      9  C   LIG    1      -10.828  -2.185   1.170  0.00  0.00    +0.080 A 
ATOM     10  C   LIG    1      -11.906  -2.879   1.674  0.00  0.00    +0.020 A 
ATOM     11  C   LIG    1      -12.917  -2.207   2.341  0.00  0.00    -0.000 A 
ATOM     12  C   LIG    1      -12.851  -0.833   2.510  0.00  0.00    +0.020 A 
ATOM     13 CL   LIG    1      -14.274  -3.089   2.968  0.00  0.00    -0.050 Cl
ATOM     14  C   LIG    1      -11.777  -0.126   2.014  0.00  0.00    +0.110 A 
ENDBRANCH   6   8
ENDBRANCH   5   6
ENDBRANCH   3   5
ENDBRANCH   1   3
BRANCH   1  15
ATOM     15  C   LIG    1       -4.837   0.183   0.051  0.00  0.00    +0.140 C 
BRANCH  15  16
ATOM     16  C   LIG    1       -3.651  -0.783   0.034  0.00  0.00    +0.150 C 
BRANCH  16  17
ATOM     17  C   LIG    1       -2.364   0.002   0.026  0.00  0.00    +0.450 A 
ATOM     18  N   LIG    1       -2.434   1.304   0.034  0.00  0.00    -0.600 NA
ATOM     19  C   LIG    1       -1.329   2.074   0.032  0.00  0.00    +0.530 A 
ATOM     20  C   LIG    1       -0.017   1.403   0.010  0.00  0.00    -0.210 A 
ATOM     21  C   LIG    1        1.179   2.117   0.002  0.00  0.00    +0.110 A 
ATOM     22  C   LIG    1        2.376   1.433  -0.013  0.00  0.00    -0.010 A 
ATOM     23  C   LIG    1        2.394   0.046  -0.021  0.00  0.00    +0.080 A 
ATOM     24  C   LIG    1        1.218  -0.674  -0.013  0.00  0.00    -0.020 A 
ATOM     25  C   LIG    1        0.002  -0.004   0.002  0.00  0.00    +0.170 A 
ATOM     26  O   LIG    1       -1.412   3.290   0.040  0.00  0.00    -0.480 OA
ATOM     27  N   LIG    1       -1.204  -0.677   0.010  0.00  0.00    -0.620 N 
ATOM     28  H   LIG    1       -1.214  -1.647   0.005  0.00  0.00    +0.420 HD
ENDBRANCH  16  17
ENDBRANCH  15  16
ENDBRANCH   1  15
TORSDOF 7
