REMARK  Name = ZINCrH000004qyTG.0
REMARK                            x       y       z     vdW  Elec       q    Type
REMARK                         _______ _______ _______ _____ _____    ______ ____
ROOT
ATOM      1  C   LIG    1       -2.513   0.977   0.020  0.00  0.00    +0.290 C 
ENDROOT
BRANCH   1   5
ATOM      2  C   LIG    1        1.155   3.170   0.008  0.00  0.00    +0.170 A 
ATOM      3  C   LIG    1        1.175   1.782   0.000  0.00  0.00    +0.030 A 
ATOM      4  C   LIG    1       -0.013   1.076   0.008  0.00  0.00    +0.070 A 
ATOM      5  C   LIG    1       -1.220   1.750   0.017  0.00  0.00    -0.100 A 
ATOM      6  C   LIG    1       -1.242   3.133   0.030  0.00  0.00    +0.070 A 
ATOM      7  C   LIG    1       -0.059   3.844   0.022  0.00  0.00    +0.000 A 
BRANCH   2  14
ATOM      8  C   LIG    1        1.569   5.846  -1.433  0.00  0.00    +0.150 C 
ATOM      9  C   LIG    1        2.575   5.070  -0.624  0.00  0.00    +0.090 A 
ATOM     10  C   LIG    1        3.859   5.428  -0.390  0.00  0.00    -0.110 A 
ATOM     11  C   LIG    1        4.446   4.436   0.402  0.00  0.00    +0.080 A 
ATOM     12  N   LIG    1        3.546   3.516   0.641  0.00  0.00    -0.290 NA
ATOM     13  C   LIG    1        5.869   4.430   0.900  0.00  0.00    +0.160 C 
ATOM     14  N   LIG    1        2.358   3.890  -0.001  0.00  0.00    -0.330 N 
ENDBRANCH   2  14
ENDBRANCH   1   5
BRANCH   1  15
ATOM     15  O   LIG    1       -2.922   0.721   1.389  0.00  0.00    -0.330 OA
BRANCH  15  16
ATOM     16  C   LIG    1       -4.067   0.035   1.568  0.00  0.00    +0.530 C 
ATOM     17  O   LIG    1       -4.706  -0.339   0.606  0.00  0.00    -0.490 OA
BRANCH  16  18
ATOM     18  C   LIG    1       -4.546  -0.262   2.938  0.00  0.00    +0.060 A 
ATOM     19  N   LIG    1       -3.838   0.147   3.977  0.00  0.00    -0.360 NA
ATOM     20  C   LIG    1       -4.271  -0.116   5.209  0.00  0.00    +0.070 A 
ATOM     21  C   LIG    1       -3.561   0.299   6.350  0.00  0.00    +0.080 A 
ATOM     22  C   LIG    1       -4.045  -0.002   7.585  0.00  0.00    +0.040 A 
ATOM     23  C   LIG    1       -5.230  -0.713   7.752  0.00  0.00    +0.060 A 
ATOM     24  C   LIG    1       -5.963  -1.141   6.688  0.00  0.00    +0.060 A 
ATOM     25  C   LIG    1       -5.518  -0.863   5.385  0.00  0.00    +0.100 A 
ATOM     26  N   LIG    1       -6.200  -1.262   4.307  0.00  0.00    -0.420 NA
ATOM     27  C   LIG    1       -5.742  -0.979   3.110  0.00  0.00    +0.320 A 
ENDBRANCH  16  18
ENDBRANCH  15  16
ENDBRANCH   1  15
TORSDOF 5
