REMARK  Name = ZINCrD00000F5Lj8.2
REMARK                            x       y       z     vdW  Elec       q    Type
REMARK                         _______ _______ _______ _____ _____    ______ ____
ROOT
ATOM      1  C   LIG    1       -4.539   0.532   0.025  0.00  0.00    -0.000 A 
ATOM      2  C   LIG    1       -3.680   1.578   0.028  0.00  0.00    +0.150 A 
ATOM      3  N   LIG    1       -2.430   1.038   0.019  0.00  0.00    -0.250 N 
ATOM      4  N   LIG    1       -2.548  -0.244   0.006  0.00  0.00    -0.070 NA
ATOM      5  N   LIG    1       -3.790  -0.577   0.015  0.00  0.00    -0.240 NA
ENDROOT
BRANCH   3   6
ATOM      6  C   LIG    1       -1.224   1.754   0.017  0.00  0.00    +0.140 A 
ATOM      7  C   LIG    1       -1.240   3.142   0.031  0.00  0.00    +0.110 A 
ATOM      8  C   LIG    1       -0.051   3.845   0.023  0.00  0.00    +0.090 A 
ATOM      9  C   LIG    1        1.155   3.167   0.008  0.00  0.00    +0.020 A 
ATOM     10  C   LIG    1        1.173   1.783   0.000  0.00  0.00    -0.020 A 
ATOM     11 CL   LIG    1        2.648   4.053  -0.001  0.00  0.00    +0.010 Cl
ATOM     12  C   LIG    1       -0.013   1.076   0.008  0.00  0.00    +0.150 A 
BRANCH  10  13
ATOM     13  N   LIG    1        2.465   1.060  -0.015  0.00  0.00    +0.020 N 
ATOM     14  O   LIG    1        3.512   1.684  -0.022  0.00  0.00    -0.120 OA
ATOM     15  O   LIG    1        2.482  -0.157  -0.022  0.00  0.00    -0.150 OA
ENDBRANCH  10  13
ENDBRANCH   3   6
BRANCH   1  16
ATOM     16  C   LIG    1       -6.044   0.602   0.033  0.00  0.00    +0.150 C 
BRANCH  16  17
ATOM     17  C   LIG    1       -6.598  -0.194  -1.151  0.00  0.00    +0.020 C 
BRANCH  17  18
ATOM     18  C   LIG    1       -8.126  -0.122  -1.144  0.00  0.00    +0.020 C 
BRANCH  18  19
ATOM     19  C   LIG    1       -8.680  -0.918  -2.328  0.00  0.00    +0.170 C 
BRANCH  19  24
ATOM     20  C   LIG    1      -12.924  -2.511  -4.062  0.00  0.00    +0.090 C 
ATOM     21  C   LIG    1      -11.678  -2.532  -3.174  0.00  0.00    +0.010 C 
ATOM     22  C   LIG    1      -12.044  -2.184  -1.708  0.00  0.00    +0.070 C 
ATOM     23  C   LIG    1      -10.707  -1.605  -1.180  0.00  0.00    +0.180 C 
ATOM     24  N   LIG    1      -10.147  -0.850  -2.321  0.00  0.00    -0.520 NA
ATOM     25  C   LIG    1      -10.708  -1.399  -3.569  0.00  0.00    +0.220 C 
BRANCH  21  26
ATOM     26  C   LIG    1      -11.008  -3.840  -3.247  0.00  0.00    +0.210 C 
ATOM     27  N   LIG    1      -10.490  -4.850  -3.303  0.00  0.00    -0.420 NA
ENDBRANCH  21  26
ENDBRANCH  19  24
ENDBRANCH  18  19
ENDBRANCH  17  18
ENDBRANCH  16  17
ENDBRANCH   1  16
TORSDOF 8
