REMARK  Name = ZINCtV000002G2OI.0
REMARK                            x       y       z     vdW  Elec       q    Type
REMARK                         _______ _______ _______ _____ _____    ______ ____
ROOT
ATOM      1  N   LIG    1        2.542  -1.132  -0.196  0.00  0.00    -0.520 N 
ATOM      2  C   LIG    1        3.873  -0.931  -0.125  0.00  0.00    +0.510 C 
ATOM      3  O   LIG    1        4.331   0.174  -0.324  0.00  0.00    -0.460 OA
ENDROOT
BRANCH   1  10
ATOM      4  C   LIG    1       -2.300   4.646  -1.306  0.00  0.00    +0.110 C 
ATOM      5  C   LIG    1       -1.104   3.752  -1.102  0.00  0.00    -0.070 A 
ATOM      6  C   LIG    1        0.172   4.295  -1.081  0.00  0.00    +0.030 A 
ATOM      7  C   LIG    1        1.269   3.493  -0.895  0.00  0.00    -0.030 A 
ATOM      8  C   LIG    1        1.117   2.101  -0.724  0.00  0.00    +0.100 A 
ATOM      9  N   LIG    1        2.067   1.165  -0.532  0.00  0.00    -0.460 NA
ATOM     10  C   LIG    1        1.690  -0.059  -0.399  0.00  0.00    +0.340 A 
ATOM     11  S   LIG    1       -0.061  -0.176  -0.512  0.00  0.00    +0.050 S 
ATOM     12  C   LIG    1       -0.175   1.566  -0.749  0.00  0.00    -0.170 A 
ATOM     13  C   LIG    1        2.647   4.103  -0.874  0.00  0.00    +0.110 C 
ATOM     14  C   LIG    1       -1.278   2.397  -0.933  0.00  0.00    +0.050 A 
ENDBRANCH   1  10
BRANCH   2  15
ATOM     15  C   LIG    1        4.792  -2.079   0.203  0.00  0.00    +0.060 C 
BRANCH  15  16
ATOM     16  C   LIG    1        6.229  -1.566   0.319  0.00  0.00    +0.090 C 
BRANCH  16  17
ATOM     17  C   LIG    1        7.148  -2.714   0.646  0.00  0.00    -0.090 A 
ATOM     18  C   LIG    1        7.408  -3.038   1.965  0.00  0.00    +0.000 A 
ATOM     19  C   LIG    1        8.247  -4.094   2.265  0.00  0.00    +0.000 A 
ATOM     20  C   LIG    1        8.835  -4.821   1.247  0.00  0.00    +0.000 A 
ATOM     21  C   LIG    1        8.579  -4.495  -0.072  0.00  0.00    +0.000 A 
ATOM     22  C   LIG    1        7.735  -3.441  -0.372  0.00  0.00    +0.000 A 
ENDBRANCH  16  17
ENDBRANCH  15  16
ENDBRANCH   2  15
BRANCH   1  23
ATOM     23  C   LIG    1        1.998  -2.485  -0.059  0.00  0.00    +0.350 C 
BRANCH  23  24
ATOM     24  C   LIG    1        1.603  -2.725   1.375  0.00  0.00    -0.120 A 
ATOM     25  C   LIG    1        2.472  -3.373   2.232  0.00  0.00    +0.030 A 
ATOM     26  C   LIG    1        2.112  -3.588   3.550  0.00  0.00    +0.010 A 
ATOM     27  C   LIG    1        0.878  -3.165   4.007  0.00  0.00    +0.020 A 
ATOM     28  C   LIG    1        0.006  -2.522   3.148  0.00  0.00    +0.010 A 
ATOM     29  C   LIG    1        0.368  -2.301   1.832  0.00  0.00    +0.030 A 
ENDBRANCH  23  24
ENDBRANCH   1  23
TORSDOF 6
