REMARK  Name = ZINCrg00001Jdv7J.0
REMARK                            x       y       z     vdW  Elec       q    Type
REMARK                         _______ _______ _______ _____ _____    ______ ____
ROOT
ATOM      1  N   LIG    1       -1.160   1.902  -3.442  0.00  0.00    -0.680 N 
ATOM      2  H   LIG    1       -1.997   2.345  -3.231  0.00  0.00    +0.410 HD
ATOM      3  C   LIG    1       -0.399   1.394  -2.454  0.00  0.00    +0.730 C 
ATOM      4  N   LIG    1       -0.741   1.599  -1.166  0.00  0.00    -0.630 N 
ATOM      5  C   LIG    1       -1.917   2.357  -0.699  0.00  0.00    +0.260 C 
ATOM      6  C   LIG    1       -1.550   2.824   0.735  0.00  0.00    +0.100 C 
ATOM      7  C   LIG    1       -0.735   1.623   1.248  0.00  0.00    +0.100 C 
ATOM      8  N   LIG    1       -1.592   0.606   1.850  0.00  0.00    -0.710 N 
ATOM      9  H   LIG    1       -2.320   0.129   1.423  0.00  0.00    +0.440 HD
ATOM     10  C   LIG    1       -1.164   0.464   3.122  0.00  0.00    +0.700 C 
ATOM     11  N   LIG    1       -0.133   1.271   3.407  0.00  0.00    -0.580 N 
ATOM     12  C   LIG    1        0.533   1.330   4.710  0.00  0.00    +0.350 C 
ATOM     13  O   LIG    1       -1.658  -0.308   3.920  0.00  0.00    -0.530 OA
ATOM     14  C   LIG    1        0.216   2.025   2.340  0.00  0.00    +0.540 C 
ATOM     15  O   LIG    1        1.105   2.848   2.278  0.00  0.00    -0.450 OA
ATOM     16  C   LIG    1       -0.002   1.104   0.009  0.00  0.00    +0.330 C 
ATOM     17  O   LIG    1        0.597   0.750  -2.723  0.00  0.00    -0.550 OA
ENDROOT
BRANCH   1  21
ATOM     18  C   LIG    1        2.481   1.390  -6.697  0.00  0.00    +0.120 C 
ATOM     19  C   LIG    1        1.015   1.541  -6.381  0.00  0.00    -0.000 A 
ATOM     20  C   LIG    1        0.603   1.652  -5.069  0.00  0.00    +0.030 A 
ATOM     21  C   LIG    1       -0.745   1.791  -4.771  0.00  0.00    +0.220 A 
ATOM     22  C   LIG    1       -1.690   1.814  -5.807  0.00  0.00    -0.070 A 
ATOM     23  C   LIG    1       -1.264   1.708  -7.133  0.00  0.00    +0.060 A 
ATOM     24  C   LIG    1        0.084   1.568  -7.415  0.00  0.00    +0.060 A 
BRANCH  24  25
ATOM     25  N   LIG    1        0.512   1.455  -8.742  0.00  0.00    -0.500 N 
ATOM     26  C   LIG    1        0.214   2.680  -9.498  0.00  0.00    +0.200 C 
ATOM     27  C   LIG    1       -0.085   0.279  -9.390  0.00  0.00    +0.200 C 
ENDBRANCH  24  25
BRANCH  22  28
ATOM     28  C   LIG    1       -3.083   1.952  -5.507  0.00  0.00    +0.250 C 
ATOM     29  N   LIG    1       -4.189   2.061  -5.270  0.00  0.00    -0.410 NA
ENDBRANCH  22  28
ENDBRANCH   1  21
TORSDOF 3
