REMARK  Name = ZINCqH0000038OoK.0
REMARK                            x       y       z     vdW  Elec       q    Type
REMARK                         _______ _______ _______ _____ _____    ______ ____
ROOT
ATOM      1  C   LIG    1       -1.188   1.638  -0.055  0.00  0.00    +0.560 C 
ATOM      2  N   LIG    1       -0.015   1.006   0.153  0.00  0.00    -0.650 N 
ATOM      3  H   LIG    1       -0.000   0.049   0.306  0.00  0.00    +0.420 HD
ATOM      4  O   LIG    1       -1.199   2.818  -0.344  0.00  0.00    -0.490 OA
ENDROOT
BRANCH   1  13
ATOM      5  C   LIG    1       -2.950   4.002   1.191  0.00  0.00    +0.210 C 
ATOM      6  C   LIG    1       -3.914   2.848   1.097  0.00  0.00    +0.150 A 
ATOM      7  N   LIG    1       -5.162   2.857   1.452  0.00  0.00    -0.270 NA
ATOM      8  O   LIG    1       -5.736   1.588   1.213  0.00  0.00    -0.080 OA
ATOM      9  C   LIG    1       -4.804   0.766   0.690  0.00  0.00    +0.300 A 
ATOM     10  N   LIG    1       -4.831  -0.499   0.298  0.00  0.00    -0.460 NA
ATOM     11  C   LIG    1       -3.768  -1.100  -0.191  0.00  0.00    +0.240 A 
ATOM     12  C   LIG    1       -2.558  -0.439  -0.331  0.00  0.00    -0.010 A 
ATOM     13  C   LIG    1       -2.461   0.893   0.069  0.00  0.00    +0.000 A 
ATOM     14  C   LIG    1       -3.615   1.509   0.590  0.00  0.00    -0.210 A 
BRANCH  11  15
ATOM     15  C   LIG    1       -3.870  -2.542  -0.617  0.00  0.00    +0.020 C 
ATOM     16  C   LIG    1       -2.762  -3.094  -1.516  0.00  0.00    +0.040 C 
ATOM     17  C   LIG    1       -4.154  -2.824  -2.094  0.00  0.00    +0.060 C 
ENDBRANCH  11  15
ENDBRANCH   1  13
BRANCH   2  18
ATOM     18  C   LIG    1        1.181   1.731   0.141  0.00  0.00    +0.020 A 
ATOM     19  C   LIG    1        1.347   2.824  -0.706  0.00  0.00    +0.340 A 
ATOM     20  N   LIG    1        2.491   3.486  -0.683  0.00  0.00    -0.490 NA
ATOM     21  C   LIG    1        3.470   3.118   0.119  0.00  0.00    +0.320 A 
ATOM     22  N   LIG    1        3.354   2.087   0.932  0.00  0.00    -0.490 NA
ATOM     23  C   LIG    1        2.240   1.376   0.973  0.00  0.00    +0.310 A 
BRANCH  21  24
ATOM     24  C   LIG    1        4.759   3.898   0.106  0.00  0.00    +0.000 C 
ATOM     25  C   LIG    1        5.019   4.477   1.498  0.00  0.00    +0.050 C 
ATOM     26  C   LIG    1        4.655   5.038  -0.909  0.00  0.00    +0.050 C 
ATOM     27  C   LIG    1        5.912   2.971  -0.284  0.00  0.00    +0.050 C 
ENDBRANCH  21  24
ENDBRANCH   2  18
TORSDOF 4
