REMARK  Name = ZINCvU00000005hx.0
REMARK                            x       y       z     vdW  Elec       q    Type
REMARK                         _______ _______ _______ _____ _____    ______ ____
ROOT
ATOM      1  C   LIG    1       -1.003   3.164  -0.020  0.00  0.00    -0.330 A 
ATOM      2  C   LIG    1       -1.181   1.801   0.014  0.00  0.00    +0.250 A 
ATOM      3  C   LIG    1       -0.013   1.077   0.045  0.00  0.00    +0.030 A 
ATOM      4  C   LIG    1        1.125   1.827   0.028  0.00  0.00    -0.100 A 
ATOM      5  S   LIG    1        0.716   3.535  -0.024  0.00  0.00    +0.240 S 
ENDROOT
BRANCH   4   6
ATOM      6  C   LIG    1        2.499   1.284   0.049  0.00  0.00    -0.020 A 
ATOM      7  C   LIG    1        2.707  -0.096   0.096  0.00  0.00    +0.060 A 
ATOM      8  C   LIG    1        3.992  -0.597   0.110  0.00  0.00    +0.050 A 
ATOM      9  C   LIG    1        5.074   0.266   0.089  0.00  0.00    -0.080 A 
ATOM     10  C   LIG    1        4.875   1.635   0.048  0.00  0.00    +0.050 A 
ATOM     11 BR   LIG    1        6.833  -0.429   0.117  0.00  0.00    -0.040 Br
ATOM     12  C   LIG    1        3.595   2.148   0.028  0.00  0.00    +0.030 A 
ENDBRANCH   4   6
BRANCH   2  13
ATOM     13  N   LIG    1       -2.442   1.203   0.020  0.00  0.00    -0.640 N 
ATOM     14  H   LIG    1       -3.238   1.751   0.102  0.00  0.00    +0.430 HD
ATOM     15  C   LIG    1       -2.553  -0.136  -0.088  0.00  0.00    +0.520 C 
ATOM     16  O   LIG    1       -1.557  -0.828  -0.097  0.00  0.00    -0.490 OA
BRANCH  15  17
ATOM     17  C   LIG    1       -3.914  -0.772  -0.199  0.00  0.00    +0.270 C 
BRANCH  17  18
ATOM     18  O   LIG    1       -3.768  -2.213  -0.303  0.00  0.00    -0.330 OA
BRANCH  18  19
ATOM     19  C   LIG    1       -4.899  -2.936  -0.410  0.00  0.00    +0.520 C 
ATOM     20  O   LIG    1       -5.979  -2.379  -0.415  0.00  0.00    -0.490 OA
BRANCH  19  21
ATOM     21  C   LIG    1       -4.828  -4.408  -0.520  0.00  0.00    -0.120 A 
ATOM     22  C   LIG    1       -3.589  -5.051  -0.519  0.00  0.00    +0.100 A 
ATOM     23  C   LIG    1       -3.528  -6.426  -0.617  0.00  0.00    +0.030 A 
ATOM     24  C   LIG    1       -4.691  -7.167  -0.726  0.00  0.00    +0.070 A 
ATOM     25  C   LIG    1       -5.924  -6.535  -0.733  0.00  0.00    -0.050 A 
ATOM     26 CL   LIG    1       -7.378  -7.474  -0.871  0.00  0.00    -0.050 Cl
ATOM     27  C   LIG    1       -5.998  -5.161  -0.630  0.00  0.00    +0.100 A 
ENDBRANCH  19  21
ENDBRANCH  18  19
ENDBRANCH  17  18
ENDBRANCH  15  17
ENDBRANCH   2  13
BRANCH   1  28
ATOM     28  C   LIG    1       -2.043   4.121  -0.053  0.00  0.00    +0.550 C 
ATOM     29  O   LIG    1       -3.205   3.758  -0.048  0.00  0.00    -0.520 OA
BRANCH  28  30
ATOM     30  O   LIG    1       -1.748   5.438  -0.090  0.00  0.00    -0.350 OA
BRANCH  30  32
ATOM     31  C   LIG    1       -2.322   7.785  -0.162  0.00  0.00    +0.070 C 
ATOM     32  C   LIG    1       -2.849   6.349  -0.122  0.00  0.00    +0.200 C 
ENDBRANCH  30  32
ENDBRANCH  28  30
ENDBRANCH   1  28
TORSDOF 9
