REMARK  Name = ZINCb700000010vE.0
REMARK                            x       y       z     vdW  Elec       q    Type
REMARK                         _______ _______ _______ _____ _____    ______ ____
ROOT
ATOM      1  N   LIG    1        1.634   3.161   0.003  0.00  0.00    -0.600 N 
ATOM      2  C   LIG    1        0.641   4.231   0.128  0.00  0.00    +0.310 C 
ENDROOT
BRANCH   1   6
ATOM      3  C   LIG    1        1.776  -1.831  -0.025  0.00  0.00    +0.160 C 
ATOM      4  C   LIG    1        1.291  -0.405  -0.012  0.00  0.00    +0.130 A 
ATOM      5  C   LIG    1        2.069   0.701  -0.014  0.00  0.00    -0.180 A 
ATOM      6  C   LIG    1        1.224   1.823   0.000  0.00  0.00    +0.330 A 
ATOM      7  N   LIG    1       -0.017   1.397   0.010  0.00  0.00    -0.330 NA
ATOM      8  N   LIG    1        0.002  -0.004   0.002  0.00  0.00    -0.470 N 
ATOM      9  H   LIG    1       -0.775  -0.585   0.007  0.00  0.00    +0.450 HD
ENDBRANCH   1   6
BRANCH   1  10
ATOM     10  C   LIG    1        3.056   3.492  -0.120  0.00  0.00    +0.320 C 
BRANCH  10  11
ATOM     11  C   LIG    1        3.417   3.651  -1.598  0.00  0.00    +0.220 C 
BRANCH  11  12
ATOM     12  N   LIG    1        4.842   3.983  -1.722  0.00  0.00    -0.630 N 
ATOM     13  H   LIG    1        5.396   3.242  -1.318  0.00  0.00    +0.440 HD
ATOM     14  H   LIG    1        5.030   4.847  -1.235  0.00  0.00    +0.440 HD
ATOM     15  H   LIG    1        5.080   4.088  -2.696  0.00  0.00    +0.440 HD
ENDBRANCH  11  12
ENDBRANCH  10  11
ENDBRANCH   1  10
TORSDOF 4
