REMARK  Name = ZINCpe000000XT8T.0
REMARK                            x       y       z     vdW  Elec       q    Type
REMARK                         _______ _______ _______ _____ _____    ______ ____
ROOT
ATOM      1  N   LIG    1       -1.150  -4.464   4.372  0.00  0.00    -0.730 N 
ATOM      2  H   LIG    1       -1.829  -3.941   3.919  0.00  0.00    +0.400 HD
ATOM      3  C   LIG    1       -1.355  -4.886   5.636  0.00  0.00    +0.520 C 
ATOM      4  O   LIG    1       -0.506  -5.540   6.202  0.00  0.00    -0.520 OA
ENDROOT
BRANCH   3   5
ATOM      5  C   LIG    1       -2.641  -4.545   6.344  0.00  0.00    +0.180 C 
ATOM      6  C   LIG    1       -3.823  -5.125   5.563  0.00  0.00    +0.020 C 
BRANCH   5   7
ATOM      7  N   LIG    1       -2.621  -5.116   7.697  0.00  0.00    -0.520 NA
ATOM      8  C   LIG    1       -2.511  -6.581   7.649  0.00  0.00    +0.190 C 
ATOM      9  C   LIG    1       -2.413  -7.129   9.075  0.00  0.00    +0.180 C 
ATOM     10  N   LIG    1       -3.600  -6.717   9.838  0.00  0.00    -0.530 NA
ATOM     11  C   LIG    1       -3.710  -5.253   9.886  0.00  0.00    +0.180 C 
ATOM     12  C   LIG    1       -3.808  -4.704   8.460  0.00  0.00    +0.190 C 
BRANCH  10  13
ATOM     13  C   LIG    1       -3.580  -7.288  11.191  0.00  0.00    +0.140 C 
BRANCH  13  14
ATOM     14  C   LIG    1       -3.716  -8.809  11.105  0.00  0.00    +0.210 C 
ATOM     15  C   LIG    1       -3.695  -9.404  12.515  0.00  0.00    +0.010 C 
BRANCH  14  16
ATOM     16  O   LIG    1       -4.951  -9.142  10.467  0.00  0.00    -0.550 OA
ATOM     17  H   LIG    1       -5.734  -8.810  10.928  0.00  0.00    +0.370 HD
ENDBRANCH  14  16
ENDBRANCH  13  14
ENDBRANCH  10  13
ENDBRANCH   5   7
ENDBRANCH   3   5
BRANCH   1  18
ATOM     18  C   LIG    1        0.100  -4.796   3.684  0.00  0.00    +0.290 C 
BRANCH  18  19
ATOM     19  C   LIG    1        0.079  -4.202   2.274  0.00  0.00    +0.200 C 
BRANCH  19  20
ATOM     20  O   LIG    1        0.061  -2.775   2.359  0.00  0.00    -0.310 OA
BRANCH  20  26
ATOM     21  C   LIG    1       -0.018   1.503   0.010  0.00  0.00    +0.090 C 
ATOM     22  C   LIG    1        0.002  -0.004   0.002  0.00  0.00    -0.050 A 
ATOM     23  C   LIG    1       -0.006  -0.688  -1.199  0.00  0.00    -0.040 A 
ATOM     24  C   LIG    1        0.018  -2.071  -1.210  0.00  0.00    +0.050 A 
ATOM     25  C   LIG    1        0.039  -2.772  -0.020  0.00  0.00    -0.090 A 
ATOM     26  C   LIG    1        0.041  -2.088   1.187  0.00  0.00    +0.130 A 
ATOM     27  C   LIG    1        0.023  -0.701   1.195  0.00  0.00    -0.020 A 
ENDBRANCH  20  26
ENDBRANCH  19  20
ENDBRANCH  18  19
ENDBRANCH   1  18
TORSDOF 9
