REMARK  Name = ZINCpe000000Y2VQ.0
REMARK                            x       y       z     vdW  Elec       q    Type
REMARK                         _______ _______ _______ _____ _____    ______ ____
ROOT
ATOM      1  C   LIG    1       -1.743   1.784  -4.708  0.00  0.00    +0.170 C 
ATOM      2  C   LIG    1       -1.512   1.911  -3.224  0.00  0.00    +0.200 A 
ATOM      3  N   LIG    1       -2.106   2.765  -2.431  0.00  0.00    -0.480 NA
ATOM      4  C   LIG    1       -1.657   2.591  -1.185  0.00  0.00    +0.020 A 
ATOM      5  C   LIG    1       -0.751   1.590  -1.204  0.00  0.00    -0.030 A 
ATOM      6  C   LIG    1       -0.013   1.086   0.008  0.00  0.00    +0.120 C 
ATOM      7  C   LIG    1       -0.741   1.586   1.262  0.00  0.00    +0.040 C 
ATOM      8  C   LIG    1       -0.994   3.091   1.138  0.00  0.00    +0.250 C 
ATOM      9  C   LIG    1       -2.053   3.347   0.059  0.00  0.00    +0.130 C 
ATOM     10  N   LIG    1       -0.658   1.159  -2.492  0.00  0.00    -0.440 N 
ENDROOT
BRANCH   8  11
ATOM     11  N   LIG    1       -1.470   3.613   2.422  0.00  0.00    -0.710 N 
ATOM     12  H   LIG    1       -1.917   3.023   3.049  0.00  0.00    +0.410 HD
ATOM     13  C   LIG    1       -1.286   4.911   2.732  0.00  0.00    +0.620 C 
ATOM     14  O   LIG    1       -0.725   5.650   1.946  0.00  0.00    -0.510 OA
BRANCH  13  15
ATOM     15  C   LIG    1       -1.766   5.438   4.027  0.00  0.00    +0.130 A 
ATOM     16  N   LIG    1       -1.650   6.678   4.450  0.00  0.00    -0.240 NA
ATOM     17  N   LIG    1       -2.183   6.767   5.620  0.00  0.00    -0.290 N 
ATOM     18  C   LIG    1       -2.656   5.556   5.967  0.00  0.00    +0.410 A 
ATOM     19  N   LIG    1       -2.404   4.734   4.981  0.00  0.00    -0.490 NA
BRANCH  17  20
ATOM     20  C   LIG    1       -2.259   7.982   6.435  0.00  0.00    +0.170 C 
ATOM     21  C   LIG    1       -3.664   8.113   7.025  0.00  0.00    +0.070 C 
ATOM     22  C   LIG    1       -1.957   9.202   5.562  0.00  0.00    +0.080 C 
ATOM     23  C   LIG    1       -1.235   7.901   7.569  0.00  0.00    +0.070 C 
ENDBRANCH  17  20
ENDBRANCH  13  15
ENDBRANCH   8  11
BRANCH  10  24
ATOM     24  C   LIG    1        0.205   0.086  -2.991  0.00  0.00    +0.300 C 
BRANCH  24  25
ATOM     25  C   LIG    1       -0.545  -1.246  -2.921  0.00  0.00    +0.160 C 
BRANCH  25  26
ATOM     26  O   LIG    1        0.296  -2.293  -3.408  0.00  0.00    -0.570 OA
ATOM     27  H   LIG    1       -0.116  -3.168  -3.392  0.00  0.00    +0.390 HD
ENDBRANCH  25  26
ENDBRANCH  24  25
ENDBRANCH  10  24
TORSDOF 6
