REMARK  Name = ZINCtV00000L6kK7.0
REMARK                            x       y       z     vdW  Elec       q    Type
REMARK                         _______ _______ _______ _____ _____    ______ ____
ROOT
ATOM      1  N   LIG    1       -5.414   1.075  -1.082  0.00  0.00    -0.480 N 
ATOM      2  C   LIG    1       -6.442   0.255  -0.663  0.00  0.00    +0.060 A 
ATOM      3  C   LIG    1       -7.406  -0.499  -1.319  0.00  0.00    +0.010 A 
ATOM      4  C   LIG    1       -8.321  -1.225  -0.586  0.00  0.00    +0.040 A 
ATOM      5  C   LIG    1       -8.283  -1.208   0.801  0.00  0.00    +0.000 A 
ATOM      6  C   LIG    1       -7.341  -0.472   1.464  0.00  0.00    +0.070 A 
ATOM      7  C   LIG    1       -6.405   0.272   0.742  0.00  0.00    +0.040 A 
ATOM      8  N   LIG    1       -5.374   1.081   1.100  0.00  0.00    -0.460 NA
ATOM      9  C   LIG    1       -4.793   1.547   0.033  0.00  0.00    +0.270 A 
ENDROOT
BRANCH   1  10
ATOM     10  C   LIG    1       -5.056   1.379  -2.469  0.00  0.00    +0.330 C 
BRANCH  10  11
ATOM     11  C   LIG    1       -4.039   0.351  -2.970  0.00  0.00    +0.190 C 
BRANCH  11  12
ATOM     12  O   LIG    1       -3.689   0.647  -4.324  0.00  0.00    -0.310 OA
BRANCH  12  17
ATOM     13  C   LIG    1        0.040  -2.766  -6.807  0.00  0.00    +0.100 C 
ATOM     14  C   LIG    1       -0.958  -1.853  -6.143  0.00  0.00    -0.120 A 
ATOM     15  C   LIG    1       -1.490  -0.786  -6.843  0.00  0.00    +0.050 A 
ATOM     16  C   LIG    1       -2.405   0.053  -6.236  0.00  0.00    -0.010 A 
ATOM     17  C   LIG    1       -2.789  -0.176  -4.923  0.00  0.00    +0.120 A 
ATOM     18  C   LIG    1       -2.250  -1.244  -4.221  0.00  0.00    -0.070 A 
ATOM     19  C   LIG    1       -1.340  -2.083  -4.834  0.00  0.00    +0.040 A 
ENDBRANCH  12  17
ENDBRANCH  11  12
ENDBRANCH  10  11
ENDBRANCH   1  10
BRANCH   9  20
ATOM     20  C   LIG    1       -3.610   2.480   0.033  0.00  0.00    +0.340 C 
BRANCH  20  21
ATOM     21  O   LIG    1       -2.402   1.716   0.023  0.00  0.00    -0.290 OA
BRANCH  21  22
ATOM     22  C   LIG    1       -1.233   2.410   0.021  0.00  0.00    +0.150 A 
ATOM     23  C   LIG    1       -1.249   3.797   0.035  0.00  0.00    -0.040 A 
ATOM     24  C   LIG    1       -0.059   4.501   0.027  0.00  0.00    +0.090 A 
ATOM     25  C   LIG    1        1.147   3.823   0.012  0.00  0.00    -0.060 A 
ATOM     26  C   LIG    1        1.166   2.440   0.004  0.00  0.00    +0.090 A 
ATOM     27 CL   LIG    1        2.639   4.711   0.002  0.00  0.00    -0.050 Cl
ATOM     28  C   LIG    1       -0.021   1.732   0.012  0.00  0.00    -0.060 A 
ATOM     29 CL   LIG    1        0.002  -0.004   0.002  0.00  0.00    -0.040 Cl
ENDBRANCH  21  22
ENDBRANCH  20  21
ENDBRANCH   9  20
TORSDOF 7
