REMARK  Name = ZINCrH000004v6wD.0
REMARK                            x       y       z     vdW  Elec       q    Type
REMARK                         _______ _______ _______ _____ _____    ______ ____
ROOT
ATOM      1  O   LIG    1       -0.117   1.739  -2.358  0.00  0.00    -0.490 OA
ATOM      2  C   LIG    1       -0.703   1.297  -1.393  0.00  0.00    +0.510 C 
ATOM      3  N   LIG    1       -2.050   1.247  -1.386  0.00  0.00    -0.670 N 
ATOM      4  H   LIG    1       -2.516   0.826  -0.647  0.00  0.00    +0.410 HD
ENDROOT
BRANCH   2   5
ATOM      5  C   LIG    1        0.075   0.804  -0.200  0.00  0.00    +0.220 C 
ATOM      6  C   LIG    1       -0.280   1.643   1.046  0.00  0.00    +0.040 C 
ATOM      7  C   LIG    1        1.085   1.782   1.772  0.00  0.00    +0.040 C 
ATOM      8  C   LIG    1        2.064   1.885   0.576  0.00  0.00    +0.250 C 
ATOM      9  N   LIG    1        1.516   0.968  -0.441  0.00  0.00    -0.610 N 
ATOM     10  C   LIG    1        2.220   0.379  -1.428  0.00  0.00    +0.540 C 
ATOM     11  O   LIG    1        1.663  -0.360  -2.212  0.00  0.00    -0.520 OA
BRANCH  10  12
ATOM     12  C   LIG    1        3.699   0.638  -1.557  0.00  0.00    -0.010 C 
ATOM     13  C   LIG    1        3.938   2.133  -1.775  0.00  0.00    +0.020 C 
ATOM     14  C   LIG    1        5.439   2.396  -1.906  0.00  0.00    +0.010 C 
ATOM     15  C   LIG    1        5.992   1.612  -3.098  0.00  0.00    +0.000 C 
ATOM     16  C   LIG    1        5.753   0.117  -2.880  0.00  0.00    +0.010 C 
ATOM     17  C   LIG    1        4.251  -0.146  -2.749  0.00  0.00    +0.040 C 
ENDBRANCH  10  12
ENDBRANCH   2   5
BRANCH   3  18
ATOM     18  C   LIG    1       -2.777   1.802  -2.447  0.00  0.00    +0.150 A 
ATOM     19  C   LIG    1       -2.292   2.922  -3.110  0.00  0.00    +0.030 A 
ATOM     20  C   LIG    1       -3.006   3.467  -4.159  0.00  0.00    +0.060 A 
ATOM     21  C   LIG    1       -4.214   2.900  -4.545  0.00  0.00    +0.060 A 
ATOM     22  C   LIG    1       -4.701   1.783  -3.879  0.00  0.00    -0.010 A 
ATOM     23  C   LIG    1       -3.985   1.236  -2.833  0.00  0.00    -0.010 A 
BRANCH  21  24
ATOM     24  N   LIG    1       -4.939   3.454  -5.605  0.00  0.00    -0.480 N 
ATOM     25  C   LIG    1       -5.066   2.488  -6.726  0.00  0.00    +0.180 C 
ATOM     26  C   LIG    1       -6.279   3.028  -7.524  0.00  0.00    +0.030 C 
ATOM     27  C   LIG    1       -7.228   3.532  -6.412  0.00  0.00    +0.010 C 
ATOM     28  C   LIG    1       -6.323   3.774  -5.190  0.00  0.00    +0.170 C 
ENDBRANCH  21  24
ENDBRANCH   3  18
TORSDOF 4
