REMARK  Name = ZINCvU0000000EWX.0
REMARK                            x       y       z     vdW  Elec       q    Type
REMARK                         _______ _______ _______ _____ _____    ______ ____
ROOT
ATOM      1  C   LIG    1       -1.132  -2.114  -0.597  0.00  0.00    +0.430 C 
ATOM      2  O   LIG    1       -0.019  -2.587  -0.492  0.00  0.00    -0.440 OA
ENDROOT
BRANCH   1   3
ATOM      3  C   LIG    1       -2.286  -2.995  -0.791  0.00  0.00    -0.260 A 
ATOM      4  C   LIG    1       -2.275  -4.374  -0.881  0.00  0.00    +0.130 A 
ATOM      5  N   LIG    1       -3.543  -4.793  -1.055  0.00  0.00    -0.400 N 
ATOM      6  C   LIG    1       -4.396  -3.726  -1.092  0.00  0.00    +0.020 A 
ATOM      7  C   LIG    1       -5.890  -3.807  -1.278  0.00  0.00    +0.150 C 
ATOM      8  C   LIG    1       -1.056  -5.256  -0.796  0.00  0.00    +0.150 C 
ATOM      9  C   LIG    1       -3.692  -2.592  -0.937  0.00  0.00    +0.010 A 
BRANCH   5  10
ATOM     10  C   LIG    1       -3.932  -6.134  -1.186  0.00  0.00    +0.120 A 
ATOM     11  C   LIG    1       -3.767  -7.012  -0.124  0.00  0.00    +0.060 A 
ATOM     12  C   LIG    1       -4.157  -8.331  -0.253  0.00  0.00    +0.080 A 
ATOM     13  C   LIG    1       -4.700  -8.780  -1.443  0.00  0.00    -0.020 A 
ATOM     14  C   LIG    1       -4.862  -7.907  -2.506  0.00  0.00    -0.020 A 
ATOM     15 CL   LIG    1       -5.544  -8.474  -3.998  0.00  0.00    -0.030 Cl
ATOM     16 CL   LIG    1       -5.182 -10.440  -1.604  0.00  0.00    -0.030 Cl
ATOM     17  C   LIG    1       -4.479  -6.585  -2.380  0.00  0.00    +0.060 A 
ENDBRANCH   5  10
ENDBRANCH   1   3
BRANCH   1  18
ATOM     18  C   LIG    1       -1.327  -0.622  -0.527  0.00  0.00    +0.250 C 
BRANCH  18  19
ATOM     19  O   LIG    1       -0.042   0.025  -0.332  0.00  0.00    -0.330 OA
BRANCH  19  20
ATOM     20  C   LIG    1       -0.040   1.365  -0.248  0.00  0.00    +0.460 C 
ATOM     21  O   LIG    1       -1.078   1.977  -0.340  0.00  0.00    -0.480 OA
BRANCH  20  22
ATOM     22  C   LIG    1        1.256   2.106  -0.045  0.00  0.00    +0.210 C 
BRANCH  22  24
ATOM     23  C   LIG    1        3.276   2.311   1.411  0.00  0.00    +0.030 C 
ATOM     24  C   LIG    1        1.903   1.653   1.266  0.00  0.00    +0.040 C 
ENDBRANCH  22  24
BRANCH  22  25
ATOM     25  O   LIG    1        0.998   3.510   0.011  0.00  0.00    -0.290 OA
BRANCH  25  26
ATOM     26  C   LIG    1        1.949   4.333  -0.505  0.00  0.00    +0.130 A 
ATOM     27  C   LIG    1        1.787   5.710  -0.439  0.00  0.00    -0.020 A 
ATOM     28  C   LIG    1        2.757   6.544  -0.959  0.00  0.00    +0.050 A 
ATOM     29  C   LIG    1        3.883   6.009  -1.556  0.00  0.00    -0.030 A 
ATOM     30  C   LIG    1        4.044   4.637  -1.629  0.00  0.00    +0.050 A 
ATOM     31  C   LIG    1        3.080   3.799  -1.105  0.00  0.00    -0.080 A 
ENDBRANCH  25  26
ENDBRANCH  22  25
ENDBRANCH  20  22
ENDBRANCH  19  20
ENDBRANCH  18  19
ENDBRANCH   1  18
TORSDOF 9
