REMARK  Name = ZINCpk000000mTWw.0
REMARK                            x       y       z     vdW  Elec       q    Type
REMARK                         _______ _______ _______ _____ _____    ______ ____
ROOT
ATOM      1  C   LIG    1       -0.030   0.650   4.976  0.00  0.00    +0.510 C 
ATOM      2  N   LIG    1       -0.534   1.068   6.154  0.00  0.00    -0.720 N 
ATOM      3  H   LIG    1       -1.363   1.573   6.176  0.00  0.00    +0.410 HD
ATOM      4  O   LIG    1        1.005   0.020   4.949  0.00  0.00    -0.530 OA
ENDROOT
BRANCH   2   5
ATOM      5  C   LIG    1        0.169   0.760   7.402  0.00  0.00    +0.290 C 
ATOM      6  C   LIG    1       -0.215   1.783   8.475  0.00  0.00    +0.040 C 
ATOM      7  C   LIG    1        0.875   1.907   9.520  0.00  0.00    -0.060 C 
ATOM      8  C   LIG    1        1.054   0.679  10.390  0.00  0.00    +0.040 C 
ATOM      9  C   LIG    1        1.609  -0.492   9.576  0.00  0.00    +0.060 C 
ATOM     10  C   LIG    1        0.449  -1.211   8.917  0.00  0.00    -0.070 A 
ATOM     11  C   LIG    1        0.086  -2.469   9.362  0.00  0.00    +0.000 A 
ATOM     12  C   LIG    1       -0.972  -3.128   8.761  0.00  0.00    +0.000 A 
ATOM     13  C   LIG    1       -1.660  -2.529   7.722  0.00  0.00    +0.000 A 
ATOM     14  C   LIG    1       -1.292  -1.270   7.282  0.00  0.00    +0.010 A 
ATOM     15  C   LIG    1        2.198   2.192   8.805  0.00  0.00    +0.020 C 
ATOM     16  C   LIG    1        0.548   3.098  10.424  0.00  0.00    +0.040 C 
ATOM     17  C   LIG    1       -0.233  -0.617   7.887  0.00  0.00    -0.090 A 
ENDBRANCH   2   5
BRANCH   1  18
ATOM     18  C   LIG    1       -0.754   0.967   3.693  0.00  0.00    +0.300 C 
BRANCH  18  20
ATOM     19  C   LIG    1       -0.471   0.568   1.306  0.00  0.00    +0.520 C 
ATOM     20  N   LIG    1       -0.009   0.408   2.562  0.00  0.00    -0.710 N 
ATOM     21  H   LIG    1        0.816  -0.078   2.717  0.00  0.00    +0.420 HD
ATOM     22  O   LIG    1       -1.503   1.175   1.112  0.00  0.00    -0.540 OA
BRANCH  19  23
ATOM     23  C   LIG    1        0.295  -0.007   0.142  0.00  0.00    +0.300 C 
BRANCH  23  26
ATOM     24  C   LIG    1       -0.628   0.199  -3.567  0.00  0.00    +0.110 C 
ATOM     25  C   LIG    1        0.096  -0.117  -2.284  0.00  0.00    +0.510 C 
ATOM     26  N   LIG    1       -0.408   0.300  -1.105  0.00  0.00    -0.720 N 
ATOM     27  H   LIG    1       -1.236   0.805  -1.084  0.00  0.00    +0.410 HD
ATOM     28  O   LIG    1        1.131  -0.748  -2.311  0.00  0.00    -0.550 OA
ENDBRANCH  23  26
ENDBRANCH  19  23
ENDBRANCH  18  20
ENDBRANCH   1  18
TORSDOF 5
