REMARK  Name = ZINCvU0000000Ajt.0
REMARK                            x       y       z     vdW  Elec       q    Type
REMARK                         _______ _______ _______ _____ _____    ______ ____
ROOT
ATOM      1  O   LIG    1       -0.876   3.525   0.317  0.00  0.00    -0.490 OA
ATOM      2  C   LIG    1        0.181   4.098   0.157  0.00  0.00    +0.520 C 
ATOM      3  N   LIG    1        1.324   3.390   0.061  0.00  0.00    -0.670 N 
ATOM      4  H   LIG    1        2.177   3.849   0.016  0.00  0.00    +0.420 HD
ENDROOT
BRANCH   3   5
ATOM      5  C   LIG    1        1.279   1.990   0.025  0.00  0.00    +0.140 A 
ATOM      6  C   LIG    1        0.218   1.343  -0.591  0.00  0.00    +0.030 A 
ATOM      7  C   LIG    1        0.177  -0.038  -0.625  0.00  0.00    +0.040 A 
ATOM      8  C   LIG    1        1.191  -0.778  -0.046  0.00  0.00    +0.020 A 
ATOM      9  C   LIG    1        2.252  -0.141   0.569  0.00  0.00    +0.040 A 
ATOM     10  C   LIG    1        2.302   1.243   0.607  0.00  0.00    +0.060 A 
BRANCH  10  11
ATOM     11  O   LIG    1        3.345   1.871   1.212  0.00  0.00    -0.260 OA
BRANCH  11  12
ATOM     12  C   LIG    1        3.166   2.332   2.478  0.00  0.00    +0.110 A 
ATOM     13  C   LIG    1        1.917   2.250   3.076  0.00  0.00    -0.060 A 
ATOM     14  C   LIG    1        1.739   2.714   4.365  0.00  0.00    +0.050 A 
ATOM     15  C   LIG    1        2.801   3.269   5.055  0.00  0.00    -0.020 A 
ATOM     16  C   LIG    1        4.045   3.357   4.458  0.00  0.00    +0.050 A 
ATOM     17  C   LIG    1        4.231   2.889   3.171  0.00  0.00    -0.010 A 
ENDBRANCH  11  12
ENDBRANCH  10  11
ENDBRANCH   3   5
BRANCH   2  18
ATOM     18  C   LIG    1        0.216   5.601   0.064  0.00  0.00    +0.270 C 
BRANCH  18  19
ATOM     19  O   LIG    1       -1.131   6.127   0.196  0.00  0.00    -0.330 OA
BRANCH  19  20
ATOM     20  C   LIG    1       -1.274   7.460   0.135  0.00  0.00    +0.470 C 
ATOM     21  O   LIG    1       -0.306   8.165  -0.023  0.00  0.00    -0.500 OA
BRANCH  20  22
ATOM     22  C   LIG    1       -2.643   8.077   0.263  0.00  0.00    +0.120 C 
BRANCH  22  23
ATOM     23  C   LIG    1       -2.527   9.599   0.160  0.00  0.00    +0.170 C 
BRANCH  23  24
ATOM     24  C   LIG    1       -3.896  10.217   0.288  0.00  0.00    +0.090 A 
ATOM     25  N   LIG    1       -4.426  10.568   1.399  0.00  0.00    -0.460 NA
ATOM     26  C   LIG    1       -5.657  11.112   1.364  0.00  0.00    +0.080 A 
ATOM     27  C   LIG    1       -6.462  11.585   2.419  0.00  0.00    +0.080 A 
ATOM     28  C   LIG    1       -7.698  12.100   2.167  0.00  0.00    +0.030 A 
ATOM     29  C   LIG    1       -8.186  12.171   0.870  0.00  0.00    +0.040 A 
ATOM     30  C   LIG    1       -7.421  11.717  -0.181  0.00  0.00    +0.060 A 
ATOM     31  C   LIG    1       -6.156  11.186   0.058  0.00  0.00    -0.180 A 
ATOM     32  S   LIG    1       -4.936  10.528  -1.028  0.00  0.00    +0.110 S 
ENDBRANCH  23  24
ENDBRANCH  22  23
ENDBRANCH  20  22
ENDBRANCH  19  20
ENDBRANCH  18  19
ENDBRANCH   2  18
TORSDOF 9
