REMARK  Name = ZINCpk00000eb5Ui.0
REMARK                            x       y       z     vdW  Elec       q    Type
REMARK                         _______ _______ _______ _____ _____    ______ ____
ROOT
ATOM      1  C   LIG    1       -1.163   3.818   5.129  0.00  0.00    +0.170 C 
ATOM      2  C   LIG    1       -1.188   4.314   6.577  0.00  0.00    +0.160 C 
ATOM      3  N   LIG    1       -1.768   5.664   6.618  0.00  0.00    -0.520 NA
ATOM      4  C   LIG    1       -0.991   6.590   5.782  0.00  0.00    +0.150 C 
ATOM      5  C   LIG    1       -0.968   6.072   4.341  0.00  0.00    +0.230 C 
ATOM      6  O   LIG    1       -0.430   4.747   4.325  0.00  0.00    -0.380 OA
ENDROOT
BRANCH   1   7
ATOM      7  C   LIG    1       -0.487   2.447   5.070  0.00  0.00    +0.340 C 
BRANCH   7  11
ATOM      8  C   LIG    1        0.796   0.567   0.604  0.00  0.00    +0.110 C 
ATOM      9  C   LIG    1       -0.012   1.105   1.757  0.00  0.00    -0.240 A 
ATOM     10  C   LIG    1        0.478   1.516   2.949  0.00  0.00    +0.230 A 
ATOM     11  N   LIG    1       -0.564   1.923   3.704  0.00  0.00    -0.370 N 
ATOM     12  N   LIG    1       -1.734   1.757   2.950  0.00  0.00    -0.290 NA
ATOM     13  C   LIG    1       -1.401   1.272   1.782  0.00  0.00    +0.230 A 
ENDBRANCH   7  11
ENDBRANCH   1   7
BRANCH   3  14
ATOM     14  C   LIG    1       -1.863   6.155   7.999  0.00  0.00    +0.160 C 
BRANCH  14  15
ATOM     15  C   LIG    1       -2.978   5.405   8.732  0.00  0.00    +0.220 C 
BRANCH  15  16
ATOM     16  O   LIG    1       -4.228   5.662   8.088  0.00  0.00    -0.540 OA
ATOM     17  H   LIG    1       -4.476   6.596   8.070  0.00  0.00    +0.370 HD
ENDBRANCH  15  16
BRANCH  15  18
ATOM     18  C   LIG    1       -3.045   5.882  10.184  0.00  0.00    +0.140 C 
BRANCH  18  19
ATOM     19  O   LIG    1       -4.006   5.102  10.898  0.00  0.00    -0.370 OA
BRANCH  19  20
ATOM     20  C   LIG    1       -4.147   5.468  12.272  0.00  0.00    +0.220 C 
BRANCH  20  21
ATOM     21  C   LIG    1       -5.180   4.585  12.924  0.00  0.00    -0.090 A 
ATOM     22  C   LIG    1       -6.509   4.966  12.931  0.00  0.00    +0.020 A 
ATOM     23  C   LIG    1       -7.457   4.154  13.525  0.00  0.00    +0.000 A 
ATOM     24  C   LIG    1       -7.074   2.966  14.120  0.00  0.00    +0.010 A 
ATOM     25  C   LIG    1       -5.745   2.588  14.117  0.00  0.00    +0.000 A 
ATOM     26  C   LIG    1       -4.797   3.398  13.519  0.00  0.00    +0.020 A 
ENDBRANCH  20  21
ENDBRANCH  19  20
ENDBRANCH  18  19
ENDBRANCH  15  18
ENDBRANCH  14  15
ENDBRANCH   3  14
TORSDOF 9
