REMARK  Name = ZINCb800000011kV.0
REMARK                            x       y       z     vdW  Elec       q    Type
REMARK                         _______ _______ _______ _____ _____    ______ ____
ROOT
ATOM      1  C   LIG    1       -0.967   1.699  -1.032  0.00  0.00    +0.170 C 
ATOM      2  C   LIG    1       -0.013   1.086   0.008  0.00  0.00    +0.230 C 
ATOM      3  N   LIG    1       -0.911   1.664   1.032  0.00  0.00    -0.430 N 
ATOM      4  C   LIG    1       -1.372   2.693   0.070  0.00  0.00    +0.170 C 
ENDROOT
BRANCH   3   5
ATOM      5  C   LIG    1       -0.182   2.238   2.067  0.00  0.00    +0.270 A 
ATOM      6  C   LIG    1       -0.850   2.837   3.130  0.00  0.00    -0.020 A 
ATOM      7  C   LIG    1       -0.112   3.404   4.154  0.00  0.00    +0.080 A 
ATOM      8  C   LIG    1        1.274   3.353   4.080  0.00  0.00    -0.050 A 
ATOM      9  C   LIG    1        1.870   2.742   2.994  0.00  0.00    +0.280 A 
ATOM     10  N   LIG    1        1.141   2.205   2.035  0.00  0.00    -0.510 NA
ENDBRANCH   3   5
BRANCH   1  11
ATOM     11  O   LIG    1       -0.298   2.306  -2.140  0.00  0.00    -0.560 OA
ATOM     12  H   LIG    1       -0.894   2.692  -2.796  0.00  0.00    +0.380 HD
ENDBRANCH   1  11
TORSDOF 2
