REMARK  Name = ZINCkj00000dDX5X.0
REMARK                            x       y       z     vdW  Elec       q    Type
REMARK                         _______ _______ _______ _____ _____    ______ ____
ROOT
ATOM      1  C   LIG    1       -4.684   2.769   2.607  0.00  0.00    +0.490 C 
ATOM      2  C   LIG    1       -4.263   4.115   2.751  0.00  0.00    -0.080 C 
ATOM      3  C   LIG    1       -3.101   4.267   2.090  0.00  0.00    +0.400 C 
ATOM      4  N   LIG    1       -2.749   3.071   1.520  0.00  0.00    -0.390 N 
ATOM      5  N   LIG    1       -3.736   2.127   1.833  0.00  0.00    -0.430 NA
ATOM      6  H   LIG    1       -3.751   1.196   1.558  0.00  0.00    +0.460 HD
ENDROOT
BRANCH   4   7
ATOM      7  C   LIG    1       -1.549   2.824   0.717  0.00  0.00    +0.310 C 
ATOM      8  C   LIG    1       -0.756   1.603   1.259  0.00  0.00    +0.080 C 
ATOM      9  C   LIG    1       -0.012   1.091   0.007  0.00  0.00    +0.290 C 
ATOM     10  N   LIG    1       -0.748   1.582  -1.173  0.00  0.00    -0.510 N 
ATOM     11  H   LIG    1       -1.054   0.800  -1.732  0.00  0.00    +0.440 HD
ATOM     12  H   LIG    1       -0.148   2.179  -1.723  0.00  0.00    +0.440 HD
ATOM     13  C   LIG    1       -1.924   2.349  -0.709  0.00  0.00    +0.270 C 
ENDBRANCH   4   7
BRANCH   1  14
ATOM     14  N   LIG    1       -5.780   2.231   3.114  0.00  0.00    -0.560 N 
ATOM     15  H   LIG    1       -6.345   2.750   3.707  0.00  0.00    +0.440 HD
BRANCH  14  17
ATOM     16  C   LIG    1       -7.287   0.443   3.239  0.00  0.00    -0.230 C 
ATOM     17  C   LIG    1       -6.112   0.960   2.806  0.00  0.00    +0.380 C 
ATOM     18  O   LIG    1       -5.268   0.199   2.063  0.00  0.00    -0.670 OA
BRANCH  16  22
ATOM     19  C   LIG    1       -6.559  -3.978   1.159  0.00  0.00    +0.170 C 
ATOM     20  C   LIG    1       -7.300  -2.935   1.956  0.00  0.00    +0.040 A 
ATOM     21  N   LIG    1       -6.871  -1.742   2.181  0.00  0.00    -0.430 NA
ATOM     22  C   LIG    1       -7.649  -0.945   2.903  0.00  0.00    +0.180 A 
ATOM     23  C   LIG    1       -8.803  -1.524   3.307  0.00  0.00    -0.140 A 
ATOM     24  S   LIG    1       -8.828  -3.172   2.683  0.00  0.00    +0.070 S 
ENDBRANCH  16  22
ENDBRANCH  14  17
ENDBRANCH   1  14
TORSDOF 4
