REMARK  Name = ZINCkj00000dDX5X.1
REMARK                            x       y       z     vdW  Elec       q    Type
REMARK                         _______ _______ _______ _____ _____    ______ ____
ROOT
ATOM      1  N   LIG    1       -2.430   1.463   0.020  0.00  0.00    -0.660 NA
ATOM      2  C   LIG    1       -1.166   1.887   0.017  0.00  0.00    +0.490 A 
ATOM      3  C   LIG    1       -0.013   1.076   0.008  0.00  0.00    -0.070 A 
ATOM      4  C   LIG    1        1.071   1.883   0.002  0.00  0.00    +0.340 A 
ATOM      5  N   LIG    1        0.656   3.181   0.013  0.00  0.00    -0.400 N 
ATOM      6  N   LIG    1       -0.746   3.193   0.026  0.00  0.00    -0.490 N 
ATOM      7  H   LIG    1       -1.314   3.980   0.036  0.00  0.00    +0.440 HD
ENDROOT
BRANCH   5   8
ATOM      8  C   LIG    1        1.524   4.361   0.011  0.00  0.00    +0.320 C 
ATOM      9  C   LIG    1        1.223   5.245  -1.217  0.00  0.00    +0.070 C 
ATOM     10  C   LIG    1        0.762   6.598  -0.632  0.00  0.00    +0.280 C 
ATOM     11  N   LIG    1        1.361   6.642   0.726  0.00  0.00    -0.520 N 
ATOM     12  H   LIG    1        0.855   7.287   1.314  0.00  0.00    +0.440 HD
ATOM     13  H   LIG    1        2.335   6.902   0.675  0.00  0.00    +0.440 HD
ATOM     14  C   LIG    1        1.222   5.252   1.234  0.00  0.00    +0.280 C 
ENDBRANCH   5   8
BRANCH   1  15
ATOM     15  C   LIG    1       -2.694   0.160   0.015  0.00  0.00    +0.510 C 
ATOM     16  O   LIG    1       -1.783  -0.645   0.007  0.00  0.00    -0.530 OA
BRANCH  15  17
ATOM     17  C   LIG    1       -4.123  -0.319   0.018  0.00  0.00    +0.180 C 
BRANCH  17  21
ATOM     18  C   LIG    1       -2.983  -4.813  -1.751  0.00  0.00    +0.180 C 
ATOM     19  C   LIG    1       -3.620  -3.828  -0.806  0.00  0.00    +0.050 A 
ATOM     20  N   LIG    1       -3.531  -2.545  -0.906  0.00  0.00    -0.450 NA
ATOM     21  C   LIG    1       -4.147  -1.826   0.011  0.00  0.00    +0.080 A 
ATOM     22  C   LIG    1       -4.800  -2.543   0.930  0.00  0.00    -0.080 A 
ATOM     23  S   LIG    1       -4.570  -4.248   0.552  0.00  0.00    +0.120 S 
ENDBRANCH  17  21
ENDBRANCH  15  17
ENDBRANCH   1  15
TORSDOF 4
