REMARK  Name = ZINCrD00000F5LGZ.0
REMARK                            x       y       z     vdW  Elec       q    Type
REMARK                         _______ _______ _______ _____ _____    ______ ____
ROOT
ATOM      1  C   LIG    1       -0.211   1.220  -2.363  0.00  0.00    +0.470 C 
ATOM      2  O   LIG    1        0.783   0.536  -2.424  0.00  0.00    -0.500 OA
ENDROOT
BRANCH   1   3
ATOM      3  O   LIG    1       -0.715   1.567  -1.168  0.00  0.00    -0.330 OA
BRANCH   3   4
ATOM      4  C   LIG    1       -0.013   1.086   0.008  0.00  0.00    +0.270 C 
BRANCH   4   7
ATOM      5  N   LIG    1       -0.242   1.246   2.466  0.00  0.00    -0.720 N 
ATOM      6  H   LIG    1        0.555   0.699   2.544  0.00  0.00    +0.410 HD
ATOM      7  C   LIG    1       -0.718   1.572   1.248  0.00  0.00    +0.510 C 
ATOM      8  O   LIG    1       -1.714   2.256   1.150  0.00  0.00    -0.500 OA
BRANCH   5   9
ATOM      9  C   LIG    1       -0.927   1.718   3.671  0.00  0.00    +0.280 C 
ATOM     10  C   LIG    1       -0.893   3.260   3.728  0.00  0.00    +0.050 C 
ATOM     11  C   LIG    1       -0.710   3.580   5.233  0.00  0.00    +0.020 C 
ATOM     12  C   LIG    1        0.261   2.469   5.703  0.00  0.00    +0.040 C 
ATOM     13  C   LIG    1       -0.193   1.216   4.926  0.00  0.00    +0.060 C 
BRANCH   9  15
ATOM     14  N   LIG    1       -3.396   0.876   3.682  0.00  0.00    -0.400 NA
ATOM     15  C   LIG    1       -2.320   1.243   3.677  0.00  0.00    +0.200 C 
ENDBRANCH   9  15
ENDBRANCH   5   9
ENDBRANCH   4   7
ENDBRANCH   3   4
ENDBRANCH   1   3
BRANCH   1  16
ATOM     16  C   LIG    1       -0.887   1.682  -3.629  0.00  0.00    +0.120 C 
BRANCH  16  17
ATOM     17  C   LIG    1       -0.117   1.152  -4.840  0.00  0.00    +0.170 C 
BRANCH  17  18
ATOM     18  C   LIG    1       -0.792   1.614  -6.106  0.00  0.00    -0.010 A 
ATOM     19  C   LIG    1       -0.525   2.757  -6.766  0.00  0.00    -0.050 A 
ATOM     20  C   LIG    1       -1.378   2.796  -7.887  0.00  0.00    -0.040 A 
ATOM     21  C   LIG    1       -2.127   1.662  -7.848  0.00  0.00    +0.030 A 
ATOM     22  O   LIG    1       -1.757   0.952  -6.765  0.00  0.00    -0.170 OA
BRANCH  21  23
ATOM     23  C   LIG    1       -3.163   1.273  -8.828  0.00  0.00    -0.020 A 
ATOM     24  C   LIG    1       -3.451   2.105  -9.912  0.00  0.00    +0.030 A 
ATOM     25  C   LIG    1       -4.415   1.733 -10.825  0.00  0.00    +0.010 A 
ATOM     26  C   LIG    1       -5.105   0.545 -10.663  0.00  0.00    +0.020 A 
ATOM     27  C   LIG    1       -4.829  -0.281  -9.588  0.00  0.00    +0.010 A 
ATOM     28  C   LIG    1       -3.863   0.076  -8.670  0.00  0.00    +0.030 A 
ENDBRANCH  21  23
ENDBRANCH  17  18
ENDBRANCH  16  17
ENDBRANCH   1  16
TORSDOF 9
