REMARK  Name = ZINCrD0000070WJf.0
REMARK                            x       y       z     vdW  Elec       q    Type
REMARK                         _______ _______ _______ _____ _____    ______ ____
ROOT
ATOM      1  C   LIG    1       -0.241  -4.798  -2.208  0.00  0.00    +0.510 C 
ATOM      2  O   LIG    1       -1.270  -4.760  -1.564  0.00  0.00    -0.490 OA
ENDROOT
BRANCH   1   5
ATOM      3  C   LIG    1       -0.485  -8.196  -3.794  0.00  0.00    +0.110 A 
ATOM      4  C   LIG    1       -0.794  -7.079  -3.037  0.00  0.00    +0.130 A 
ATOM      5  C   LIG    1        0.082  -5.992  -3.013  0.00  0.00    -0.110 A 
ATOM      6  C   LIG    1        1.263  -6.036  -3.759  0.00  0.00    +0.110 A 
ATOM      7  C   LIG    1        1.566  -7.155  -4.506  0.00  0.00    +0.010 A 
ATOM      8  C   LIG    1        0.697  -8.233  -4.529  0.00  0.00    +0.110 A 
ATOM      9  F   LIG    1        0.997  -9.324  -5.268  0.00  0.00    -0.130 F 
BRANCH   3  12
ATOM     10  C   LIG    1       -3.590 -10.299  -3.464  0.00  0.00    +0.120 C 
ATOM     11  C   LIG    1       -2.671  -9.109  -3.559  0.00  0.00    +0.510 C 
ATOM     12  N   LIG    1       -1.361  -9.289  -3.820  0.00  0.00    -0.670 N 
ATOM     13  H   LIG    1       -1.024 -10.175  -4.026  0.00  0.00    +0.420 HD
ATOM     14  O   LIG    1       -3.110  -7.990  -3.400  0.00  0.00    -0.520 OA
ENDBRANCH   3  12
ENDBRANCH   1   5
BRANCH   1  15
ATOM     15  O   LIG    1        0.606  -3.750  -2.187  0.00  0.00    -0.330 OA
BRANCH  15  16
ATOM     16  C   LIG    1        0.224  -2.610  -1.373  0.00  0.00    +0.260 C 
BRANCH  16  17
ATOM     17  C   LIG    1        1.284  -1.544  -1.473  0.00  0.00    +0.530 C 
ATOM     18  N   LIG    1        1.143  -0.387  -0.796  0.00  0.00    -0.620 N 
ATOM     19  C   LIG    1        0.005  -0.034   0.073  0.00  0.00    +0.250 C 
ATOM     20  C   LIG    1       -0.013   1.515   0.092  0.00  0.00    +0.040 C 
ATOM     21  C   LIG    1        1.503   1.844   0.087  0.00  0.00    +0.050 C 
ATOM     22  C   LIG    1        2.096   0.732  -0.804  0.00  0.00    +0.310 C 
ATOM     23  O   LIG    1        2.266  -1.728  -2.161  0.00  0.00    -0.500 OA
BRANCH  22  24
ATOM     24  C   LIG    1        3.421   0.281  -0.246  0.00  0.00    -0.180 A 
ATOM     25  C   LIG    1        4.616   0.652  -0.708  0.00  0.00    +0.020 A 
ATOM     26  C   LIG    1        5.696   0.110  -0.033  0.00  0.00    +0.010 A 
ATOM     27  C   LIG    1        5.378  -0.709   0.971  0.00  0.00    -0.050 A 
ATOM     28  S   LIG    1        3.628  -0.823   1.107  0.00  0.00    +0.100 S 
ENDBRANCH  22  24
ENDBRANCH  16  17
ENDBRANCH  15  16
ENDBRANCH   1  15
TORSDOF 6
