REMARK  Name = ZINCrD00000F5LH4.0
REMARK                            x       y       z     vdW  Elec       q    Type
REMARK                         _______ _______ _______ _____ _____    ______ ____
ROOT
ATOM      1  N   LIG    1        6.157   1.354   0.895  0.00  0.00    -0.430 NA
ATOM      2  C   LIG    1        6.089   1.720  -0.533  0.00  0.00    +0.180 C 
ATOM      3  C   LIG    1        5.427   0.363  -0.787  0.00  0.00    -0.060 C 
ATOM      4  C   LIG    1        4.277   0.406  -1.790  0.00  0.00    +0.000 C 
ATOM      5  C   LIG    1        4.857   0.419  -3.210  0.00  0.00    +0.220 C 
ATOM      6  O   LIG    1        5.728  -0.702  -3.374  0.00  0.00    -0.380 OA
ATOM      7  C   LIG    1        6.871  -0.692  -2.518  0.00  0.00    +0.210 C 
ATOM      8  C   LIG    1        6.411  -0.772  -1.057  0.00  0.00    +0.040 C 
ATOM      9  C   LIG    1        4.989   0.479   0.673  0.00  0.00    +0.120 C 
ENDROOT
BRANCH   9  10
ATOM     10  C   LIG    1        3.669   1.183   0.850  0.00  0.00    +0.520 C 
ATOM     11  N   LIG    1        2.622   0.527   1.389  0.00  0.00    -0.690 N 
ATOM     12  H   LIG    1        2.719  -0.399   1.662  0.00  0.00    +0.400 HD
ATOM     13  O   LIG    1        3.548   2.341   0.509  0.00  0.00    -0.530 OA
BRANCH  11  14
ATOM     14  C   LIG    1        1.339   1.212   1.562  0.00  0.00    +0.220 C 
ATOM     15  C   LIG    1        0.400   0.690   2.651  0.00  0.00    -0.050 C 
ATOM     16  C   LIG    1       -0.449   1.716   3.404  0.00  0.00    +0.060 C 
ATOM     17  C   LIG    1        0.072   0.445   1.177  0.00  0.00    -0.050 C 
ATOM     18  C   LIG    1        0.242  -0.979   0.643  0.00  0.00    +0.050 C 
ENDBRANCH  11  14
ENDBRANCH   9  10
BRANCH   1  19
ATOM     19  C   LIG    1        5.805   2.496   1.749  0.00  0.00    +0.200 C 
BRANCH  19  23
ATOM     20  C   LIG    1        9.177   5.092   2.120  0.00  0.00    -0.080 A 
ATOM     21  C   LIG    1        8.269   5.281   1.095  0.00  0.00    +0.000 A 
ATOM     22  C   LIG    1        7.178   4.441   0.975  0.00  0.00    +0.010 A 
ATOM     23  C   LIG    1        6.994   3.412   1.880  0.00  0.00    -0.080 A 
ATOM     24  C   LIG    1        7.900   3.226   2.908  0.00  0.00    +0.020 A 
ATOM     25  C   LIG    1        8.994   4.063   3.025  0.00  0.00    +0.000 A 
BRANCH  20  26
ATOM     26  C   LIG    1       10.367   6.007   2.251  0.00  0.00    +0.060 C 
BRANCH  26  28
ATOM     27  C   LIG    1       11.208   8.126   3.273  0.00  0.00    +0.010 C 
ATOM     28  C   LIG    1       10.000   7.197   3.140  0.00  0.00    +0.000 C 
ENDBRANCH  26  28
ENDBRANCH  20  26
ENDBRANCH  19  23
ENDBRANCH   1  19
TORSDOF 6
