REMARK  Name = ZINCnE00000rhmQR.0
REMARK                            x       y       z     vdW  Elec       q    Type
REMARK                         _______ _______ _______ _____ _____    ______ ____
ROOT
ATOM      1  C   LIG    1        1.644  -0.952  -5.809  0.00  0.00    +0.320 C 
ENDROOT
BRANCH   1   9
ATOM      2  C   LIG    1        4.156   2.157  -8.611  0.00  0.00    +0.040 C 
ATOM      3  C   LIG    1        2.801   2.621  -8.074  0.00  0.00    +0.100 C 
ATOM      4  C   LIG    1        1.714   2.521  -9.171  0.00  0.00    +0.080 C 
ATOM      5  C   LIG    1        1.134   1.144  -8.913  0.00  0.00    -0.180 A 
ATOM      6  C   LIG    1        0.338   0.319  -9.675  0.00  0.00    +0.070 A 
ATOM      7  C   LIG    1       -0.037  -0.922  -9.189  0.00  0.00    -0.020 A 
ATOM      8  C   LIG    1        0.394  -1.329  -7.941  0.00  0.00    +0.070 A 
ATOM      9  C   LIG    1        1.184  -0.500  -7.171  0.00  0.00    -0.130 A 
ATOM     10  C   LIG    1        1.563   0.751  -7.651  0.00  0.00    +0.130 A 
ATOM     11  C   LIG    1        2.895   4.049  -7.533  0.00  0.00    +0.080 C 
ATOM     12  O   LIG    1        2.317   1.720  -7.064  0.00  0.00    -0.290 OA
ENDBRANCH   1   9
BRANCH   1  13
ATOM     13  N   LIG    1        0.799  -0.341  -4.781  0.00  0.00    -0.690 N 
ATOM     14  H   LIG    1        0.076   0.252  -5.037  0.00  0.00    +0.410 HD
BRANCH  13  15
ATOM     15  C   LIG    1        1.032  -0.612  -3.442  0.00  0.00    +0.320 A 
ATOM     16  N   LIG    1        0.345  -0.125  -2.455  0.00  0.00    -0.540 NA
ATOM     17  C   LIG    1        0.707  -0.490  -1.238  0.00  0.00    +0.130 A 
ATOM     18  C   LIG    1        1.751  -1.319  -1.195  0.00  0.00    -0.140 A 
ATOM     19  S   LIG    1        2.267  -1.635  -2.849  0.00  0.00    +0.060 S 
BRANCH  17  20
ATOM     20  C   LIG    1        0.002  -0.004   0.002  0.00  0.00    +0.140 C 
BRANCH  20  21
ATOM     21  C   LIG    1       -0.019   1.526   0.010  0.00  0.00    -0.060 C 
BRANCH  21  22
ATOM     22  C   LIG    1       -0.724   2.012   1.250  0.00  0.00    +0.490 C 
ATOM     23  O   LIG    1       -0.850   3.208   1.451  0.00  0.00    -0.710 OA
ATOM     24  O   LIG    1       -1.169   1.209   2.053  0.00  0.00    -0.700 OA
ENDBRANCH  21  22
ENDBRANCH  20  21
ENDBRANCH  17  20
ENDBRANCH  13  15
ENDBRANCH   1  13
TORSDOF 6
