REMARK  Name = ZINCrH000004skSz.0
REMARK                            x       y       z     vdW  Elec       q    Type
REMARK                         _______ _______ _______ _____ _____    ______ ____
ROOT
ATOM      1  C   LIG    1       -1.943   0.265   3.484  0.00  0.00    +0.060 C 
ENDROOT
BRANCH   1   2
ATOM      2  C   LIG    1       -2.750   0.567   2.248  0.00  0.00    +0.520 C 
ATOM      3  N   LIG    1       -2.235   1.352   1.281  0.00  0.00    -0.600 N 
ATOM      4  C   LIG    1       -0.887   1.922   1.419  0.00  0.00    +0.270 C 
ATOM      5  C   LIG    1       -0.069   1.557   0.175  0.00  0.00    +0.040 C 
ATOM      6  C   LIG    1       -0.820   2.015  -1.077  0.00  0.00    +0.080 C 
ATOM      7  C   LIG    1       -2.168   1.294  -1.157  0.00  0.00    +0.040 C 
ATOM      8  C   LIG    1       -3.010   1.655   0.070  0.00  0.00    +0.290 C 
ATOM      9  O   LIG    1       -3.864   0.103   2.122  0.00  0.00    -0.530 OA
BRANCH   6  10
ATOM     10  C   LIG    1       -0.003   1.688  -2.300  0.00  0.00    +0.050 A 
ATOM     11  N   LIG    1        0.371   0.502  -2.643  0.00  0.00    -0.460 NA
ATOM     12  C   LIG    1        1.081   0.392  -3.748  0.00  0.00    +0.210 A 
ATOM     13  C   LIG    1        1.327   1.551  -4.366  0.00  0.00    -0.220 A 
ATOM     14  C   LIG    1        2.114   1.727  -5.640  0.00  0.00    +0.150 C 
ATOM     15  S   LIG    1        0.570   2.837  -3.430  0.00  0.00    +0.120 S 
ENDBRANCH   6  10
ENDBRANCH   1   2
BRANCH   1  16
ATOM     16  C   LIG    1       -2.794  -0.544   4.464  0.00  0.00    +0.200 C 
BRANCH  16  21
ATOM     17  C   LIG    1       -5.073  -4.943   4.177  0.00  0.00    +0.160 C 
ATOM     18  C   LIG    1       -4.175  -3.840   3.679  0.00  0.00    +0.070 A 
ATOM     19  C   LIG    1       -3.536  -3.901   2.507  0.00  0.00    -0.070 A 
ATOM     20  S   LIG    1       -2.604  -2.418   2.319  0.00  0.00    +0.170 S 
ATOM     21  C   LIG    1       -3.166  -1.863   3.836  0.00  0.00    -0.010 A 
ATOM     22  N   LIG    1       -3.951  -2.738   4.367  0.00  0.00    -0.430 NA
ENDBRANCH  16  21
BRANCH  16  23
ATOM     23  C   LIG    1       -1.996  -0.797   5.745  0.00  0.00    +0.480 C 
ATOM     24  F   LIG    1       -0.851  -1.542   5.441  0.00  0.00    -0.170 F 
ATOM     25  F   LIG    1       -2.787  -1.507   6.654  0.00  0.00    -0.150 F 
ATOM     26  F   LIG    1       -1.621   0.427   6.309  0.00  0.00    -0.170 F 
ENDBRANCH  16  23
BRANCH  16  27
ATOM     27  O   LIG    1       -3.982   0.185   4.779  0.00  0.00    -0.520 OA
ATOM     28  H   LIG    1       -4.538   0.382   4.012  0.00  0.00    +0.410 HD
ENDBRANCH  16  27
ENDBRANCH   1  16
TORSDOF 6
