REMARK  Name = ZINCqH000003961A.0
REMARK                            x       y       z     vdW  Elec       q    Type
REMARK                         _______ _______ _______ _____ _____    ______ ____
ROOT
ATOM      1  C   LIG    1        5.407  -4.287   4.399  0.00  0.00    +0.060 A 
ATOM      2  C   LIG    1        4.156  -4.829   4.136  0.00  0.00    +0.030 A 
ATOM      3  C   LIG    1        3.185  -4.060   3.527  0.00  0.00    +0.000 A 
ATOM      4  C   LIG    1        3.459  -2.744   3.178  0.00  0.00    +0.170 A 
ATOM      5  C   LIG    1        4.712  -2.204   3.437  0.00  0.00    +0.050 A 
ATOM      6  C   LIG    1        5.681  -2.973   4.050  0.00  0.00    +0.040 A 
ENDROOT
BRANCH   4   7
ATOM      7  N   LIG    1        2.473  -1.963   2.559  0.00  0.00    -0.690 N 
ATOM      8  H   LIG    1        1.862  -2.368   1.924  0.00  0.00    +0.410 HD
ATOM      9  C   LIG    1        2.375  -0.650   2.847  0.00  0.00    +0.710 C 
ATOM     10  N   LIG    1        1.369   0.080   2.326  0.00  0.00    -0.620 N 
ATOM     11  C   LIG    1        0.422  -0.509   1.347  0.00  0.00    +0.250 C 
ATOM     12  C   LIG    1        0.270   0.497   0.194  0.00  0.00    +0.180 C 
ATOM     13  C   LIG    1        1.676   0.829  -0.355  0.00  0.00    +0.010 C 
ATOM     14  C   LIG    1        2.127   2.046   0.481  0.00  0.00    +0.010 C 
ATOM     15  C   LIG    1        0.940   2.305   1.436  0.00  0.00    +0.190 C 
ATOM     16  O   LIG    1       -0.204   1.739   0.760  0.00  0.00    -0.360 OA
ATOM     17  C   LIG    1        1.173   1.486   2.717  0.00  0.00    +0.300 C 
ATOM     18  O   LIG    1        3.193  -0.125   3.577  0.00  0.00    -0.570 OA
ENDBRANCH   4   7
BRANCH   1  19
ATOM     19  O   LIG    1        6.363  -5.045   4.999  0.00  0.00    -0.250 OA
BRANCH  19  24
ATOM     20  C   LIG    1        8.377  -7.965   4.147  0.00  0.00    +0.010 A 
ATOM     21  C   LIG    1        8.036  -8.124   2.803  0.00  0.00    +0.040 A 
ATOM     22  C   LIG    1        7.143  -7.254   2.210  0.00  0.00    +0.060 A 
ATOM     23  C   LIG    1        6.583  -6.225   2.944  0.00  0.00    -0.030 A 
ATOM     24  C   LIG    1        6.916  -6.059   4.283  0.00  0.00    +0.120 A 
ATOM     25  C   LIG    1        7.815  -6.922   4.886  0.00  0.00    +0.040 A 
BRANCH  20  27
ATOM     26  N   LIG    1       10.038  -9.579   5.256  0.00  0.00    -0.400 NA
ATOM     27  C   LIG    1        9.303  -8.865   4.765  0.00  0.00    +0.250 C 
ENDBRANCH  20  27
ENDBRANCH  19  24
ENDBRANCH   1  19
TORSDOF 4
