REMARK  Name = ZINCrg000000rRX5.0
REMARK                            x       y       z     vdW  Elec       q    Type
REMARK                         _______ _______ _______ _____ _____    ______ ____
ROOT
ATOM      1  C   LIG    1        0.324  -2.801   2.164  0.00  0.00    +0.510 C 
ATOM      2  N   LIG    1       -0.391  -1.988   1.361  0.00  0.00    -0.610 N 
ATOM      3  C   LIG    1       -1.356  -2.535   0.394  0.00  0.00    +0.260 C 
ATOM      4  C   LIG    1       -1.071  -1.915  -0.978  0.00  0.00    +0.220 C 
ATOM      5  O   LIG    1       -1.036  -0.491  -0.852  0.00  0.00    -0.370 OA
ATOM      6  C   LIG    1        0.002  -0.004   0.002  0.00  0.00    +0.200 C 
ATOM      7  C   LIG    1       -0.228  -0.527   1.425  0.00  0.00    +0.270 C 
ATOM      8  O   LIG    1        1.115  -2.331   2.954  0.00  0.00    -0.520 OA
ENDROOT
BRANCH   6   9
ATOM      9  C   LIG    1       -0.018   1.503   0.010  0.00  0.00    -0.070 A 
ATOM     10  C   LIG    1       -1.225   2.177   0.020  0.00  0.00    +0.030 A 
ATOM     11  C   LIG    1       -1.247   3.560   0.032  0.00  0.00    +0.030 A 
ATOM     12  C   LIG    1       -0.063   4.271   0.025  0.00  0.00    -0.010 A 
ATOM     13  C   LIG    1        1.149   3.596   0.010  0.00  0.00    +0.110 A 
ATOM     14  C   LIG    1        1.169   2.209   0.003  0.00  0.00    +0.000 A 
BRANCH  13  15
ATOM     15  O   LIG    1        2.316   4.293   0.002  0.00  0.00    -0.500 OA
ATOM     16  H   LIG    1        2.645   4.500  -0.883  0.00  0.00    +0.390 HD
ENDBRANCH  13  15
ENDBRANCH   6   9
BRANCH   1  17
ATOM     17  C   LIG    1        0.140  -4.295   2.081  0.00  0.00    +0.360 C 
BRANCH  17  23
ATOM     18  C   LIG    1        2.414  -5.080   6.115  0.00  0.00    +0.090 C 
ATOM     19  C   LIG    1        1.888  -5.902   4.936  0.00  0.00    +0.160 C 
ATOM     20  N   LIG    1        2.870  -5.919   3.838  0.00  0.00    -0.710 N 
ATOM     21  H   LIG    1        3.771  -6.277   3.872  0.00  0.00    +0.440 HD
ATOM     22  C   LIG    1        2.271  -5.347   2.778  0.00  0.00    +0.710 C 
ATOM     23  N   LIG    1        1.022  -4.950   3.049  0.00  0.00    -0.560 N 
ATOM     24  O   LIG    1        2.806  -5.204   1.696  0.00  0.00    -0.540 OA
ATOM     25  C   LIG    1        0.675  -5.233   4.320  0.00  0.00    +0.540 C 
ATOM     26  O   LIG    1       -0.386  -5.001   4.858  0.00  0.00    -0.450 OA
BRANCH  19  27
ATOM     27  C   LIG    1        1.550  -7.327   5.379  0.00  0.00    -0.050 C 
ATOM     28  C   LIG    1        1.401  -7.583   6.880  0.00  0.00    +0.050 C 
ATOM     29  C   LIG    1        2.629  -8.107   6.133  0.00  0.00    +0.040 C 
ENDBRANCH  19  27
ENDBRANCH  17  23
ENDBRANCH   1  17
TORSDOF 5
