REMARK  Name = ZINCrD000000CuzC.0
REMARK                            x       y       z     vdW  Elec       q    Type
REMARK                         _______ _______ _______ _____ _____    ______ ____
ROOT
ATOM      1  O   LIG    1       -0.305  -2.847  -1.832  0.00  0.00    -0.500 OA
ATOM      2  C   LIG    1       -1.077  -3.736  -1.541  0.00  0.00    +0.530 C 
ATOM      3  N   LIG    1       -2.393  -3.473  -1.416  0.00  0.00    -0.590 N 
ATOM      4  C   LIG    1       -3.349  -4.547  -0.984  0.00  0.00    +0.280 C 
ATOM      5  C   LIG    1       -4.171  -4.897  -2.142  0.00  0.00    +0.000 C 
ATOM      6  C   LIG    1       -4.956  -3.729  -2.729  0.00  0.00    +0.020 C 
ATOM      7  C   LIG    1       -4.047  -3.111  -3.752  0.00  0.00    +0.000 C 
ATOM      8  C   LIG    1       -3.308  -1.884  -3.162  0.00  0.00    +0.020 C 
ATOM      9  C   LIG    1       -2.903  -2.161  -1.693  0.00  0.00    +0.250 C 
ENDROOT
BRANCH   2  10
ATOM     10  C   LIG    1       -0.565  -5.136  -1.321  0.00  0.00    +0.140 C 
ATOM     11  C   LIG    1       -0.556  -5.454   0.181  0.00  0.00    +0.250 C 
ATOM     12  O   LIG    1       -0.053  -6.782   0.355  0.00  0.00    -0.300 OA
ATOM     13  C   LIG    1        1.071  -7.107  -0.340  0.00  0.00    +0.040 A 
ATOM     14  C   LIG    1        1.810  -8.217   0.040  0.00  0.00    +0.030 A 
ATOM     15  C   LIG    1        2.952  -8.561  -0.659  0.00  0.00    +0.020 A 
ATOM     16  C   LIG    1        3.361  -7.800  -1.737  0.00  0.00    +0.020 A 
ATOM     17  C   LIG    1        2.630  -6.691  -2.120  0.00  0.00    +0.030 A 
ATOM     18  C   LIG    1        1.484  -6.340  -1.423  0.00  0.00    +0.050 A 
ATOM     19  O   LIG    1        0.777  -5.242  -1.808  0.00  0.00    -0.280 OA
ENDBRANCH   2  10
BRANCH   9  20
ATOM     20  C   LIG    1       -1.836  -1.140  -1.293  0.00  0.00    +0.020 C 
BRANCH  20  21
ATOM     21  C   LIG    1       -1.449  -1.355   0.172  0.00  0.00    +0.320 C 
BRANCH  21  22
ATOM     22  C   LIG    1       -0.313  -0.432   0.532  0.00  0.00    -0.050 A 
ATOM     23  C   LIG    1        0.994  -0.748   0.508  0.00  0.00    -0.040 A 
ATOM     24  C   LIG    1        1.702   0.406   0.916  0.00  0.00    -0.060 A 
ATOM     25  C   LIG    1        0.784   1.358   1.164  0.00  0.00    +0.160 A 
ATOM     26  O   LIG    1       -0.434   0.845   0.930  0.00  0.00    -0.180 OA
ENDBRANCH  21  22
BRANCH  21  27
ATOM     27  O   LIG    1       -2.574  -1.073   1.008  0.00  0.00    -0.560 OA
ATOM     28  H   LIG    1       -2.905  -0.169   0.929  0.00  0.00    +0.380 HD
ENDBRANCH  21  27
ENDBRANCH  20  21
ENDBRANCH   9  20
TORSDOF 5
