REMARK  Name = ZINCpk000000oG78.0
REMARK                            x       y       z     vdW  Elec       q    Type
REMARK                         _______ _______ _______ _____ _____    ______ ____
ROOT
ATOM      1  C   LIG    1        2.783   1.976   0.017  0.00  0.00    +0.260 C 
ATOM      2  C   LIG    1        2.334   0.821   0.914  0.00  0.00    +0.100 C 
ENDROOT
BRANCH   1   3
ATOM      3  N   LIG    1        1.827   3.081   0.129  0.00  0.00    -0.280 N 
ATOM      4  C   LIG    1        0.489   2.958   0.296  0.00  0.00    +0.180 A 
ATOM      5  C   LIG    1       -0.002   4.218   0.344  0.00  0.00    -0.040 A 
ATOM      6  N   LIG    1        1.046   5.040   0.213  0.00  0.00    -0.240 NA
ATOM      7  N   LIG    1        2.114   4.335   0.085  0.00  0.00    -0.070 NA
BRANCH   5   8
ATOM      8  C   LIG    1       -1.445   4.618   0.514  0.00  0.00    +0.190 C 
ATOM      9  C   LIG    1       -1.602   6.162   0.448  0.00  0.00    +0.070 C 
ATOM     10  C   LIG    1       -3.055   6.284  -0.084  0.00  0.00    +0.210 C 
ATOM     11  O   LIG    1       -3.213   5.195  -1.007  0.00  0.00    -0.380 OA
ATOM     12  C   LIG    1       -2.291   4.146  -0.688  0.00  0.00    +0.200 C 
BRANCH   8  13
ATOM     13  O   LIG    1       -1.971   4.105   1.739  0.00  0.00    -0.540 OA
ATOM     14  H   LIG    1       -1.935   3.141   1.810  0.00  0.00    +0.380 HD
ENDBRANCH   8  13
ENDBRANCH   5   8
ENDBRANCH   1   3
BRANCH   1  16
ATOM     15  N   LIG    1        3.951   0.895  -1.876  0.00  0.00    -0.600 N 
ATOM     16  C   LIG    1        2.843   1.508  -1.413  0.00  0.00    +0.510 C 
ATOM     17  O   LIG    1        1.895   1.681  -2.149  0.00  0.00    -0.510 OA
BRANCH  15  19
ATOM     18  C   LIG    1        4.960  -0.854  -0.496  0.00  0.00    +0.020 C 
ATOM     19  C   LIG    1        5.059   0.599  -0.964  0.00  0.00    +0.260 C 
ENDBRANCH  15  19
BRANCH  15  20
ATOM     20  C   LIG    1        4.048   0.525  -3.290  0.00  0.00    +0.350 C 
BRANCH  20  21
ATOM     21  C   LIG    1        4.659   1.663  -4.066  0.00  0.00    -0.120 A 
ATOM     22  C   LIG    1        3.848   2.636  -4.620  0.00  0.00    +0.020 A 
ATOM     23  C   LIG    1        4.408   3.683  -5.328  0.00  0.00    +0.000 A 
ATOM     24  C   LIG    1        5.779   3.751  -5.491  0.00  0.00    +0.010 A 
ATOM     25  C   LIG    1        6.590   2.776  -4.941  0.00  0.00    +0.000 A 
ATOM     26  C   LIG    1        6.030   1.732  -4.229  0.00  0.00    +0.010 A 
ENDBRANCH  20  21
ENDBRANCH  15  20
ENDBRANCH   1  16
TORSDOF 7
