REMARK  Name = ZINCvU00000006qb.0
REMARK                            x       y       z     vdW  Elec       q    Type
REMARK                         _______ _______ _______ _____ _____    ______ ____
ROOT
ATOM      1  C   LIG    1        4.664  -1.786  -0.050  0.00  0.00    +0.210 C 
ENDROOT
BRANCH   1   5
ATOM      2  C   LIG    1        2.481   1.070  -0.015  0.00  0.00    +0.210 A 
ATOM      3  N   LIG    1        3.671   1.613  -0.023  0.00  0.00    -0.370 NA
ATOM      4  O   LIG    1        4.523   0.750  -0.036  0.00  0.00    +0.090 OA
ATOM      5  C   LIG    1        3.951  -0.458  -0.037  0.00  0.00    +0.190 A 
ATOM      6  N   LIG    1        2.655  -0.271  -0.018  0.00  0.00    -0.470 NA
BRANCH   2  11
ATOM      7  C   LIG    1       -0.052   3.848   0.023  0.00  0.00    -0.180 A 
ATOM      8  C   LIG    1       -1.236   3.134   0.031  0.00  0.00    +0.090 A 
ATOM      9  C   LIG    1       -1.216   1.751   0.017  0.00  0.00    +0.030 A 
ATOM     10  C   LIG    1       -0.013   1.076   0.008  0.00  0.00    +0.110 A 
ATOM     11  C   LIG    1        1.184   1.790   0.000  0.00  0.00    -0.020 A 
ATOM     12  C   LIG    1        1.158   3.183   0.008  0.00  0.00    +0.100 A 
BRANCH   7  14
ATOM     13  F   LIG    1       -0.104   5.827  -1.285  0.00  0.00    -0.170 F 
ATOM     14  C   LIG    1       -0.082   5.355   0.031  0.00  0.00    +0.510 C 
ATOM     15  F   LIG    1        1.057   5.840   0.682  0.00  0.00    -0.170 F 
ATOM     16  F   LIG    1       -1.227   5.795   0.704  0.00  0.00    -0.170 F 
ENDBRANCH   7  14
ENDBRANCH   2  11
ENDBRANCH   1   5
BRANCH   1  17
ATOM     17  C   LIG    1        4.892  -2.228  -1.497  0.00  0.00    +0.080 C 
BRANCH  17  18
ATOM     18  C   LIG    1        5.616  -3.576  -1.510  0.00  0.00    +0.110 C 
BRANCH  18  19
ATOM     19  S   LIG    1        5.886  -4.100  -3.226  0.00  0.00    +0.010 S 
BRANCH  19  20
ATOM     20  C   LIG    1        6.716  -5.644  -3.042  0.00  0.00    +0.210 A 
ATOM     21  N   LIG    1        7.032  -6.219  -1.907  0.00  0.00    -0.280 NA
ATOM     22  N   LIG    1        7.679  -7.426  -2.198  0.00  0.00    -0.320 NA
ATOM     23  C   LIG    1        7.738  -7.551  -3.505  0.00  0.00    +0.440 A 
ATOM     24  N   LIG    1        8.178  -8.379  -4.523  0.00  0.00    -0.600 N 
ATOM     25  H   LIG    1        8.634  -9.228  -4.411  0.00  0.00    +0.450 HD
ATOM     26  C   LIG    1        7.850  -7.782  -5.737  0.00  0.00    +0.140 A 
ATOM     27  C   LIG    1        8.048  -8.163  -7.057  0.00  0.00    +0.020 A 
ATOM     28  C   LIG    1        7.605  -7.349  -8.081  0.00  0.00    +0.060 A 
ATOM     29  C   LIG    1        6.966  -6.155  -7.797  0.00  0.00    +0.020 A 
ATOM     30  C   LIG    1        6.765  -5.768  -6.486  0.00  0.00    +0.070 A 
ATOM     31  C   LIG    1        7.205  -6.578  -5.450  0.00  0.00    +0.060 A 
ATOM     32  N   LIG    1        7.140  -6.455  -4.060  0.00  0.00    -0.440 N 
ENDBRANCH  19  20
ENDBRANCH  18  19
ENDBRANCH  17  18
ENDBRANCH   1  17
TORSDOF 7
