REMARK  Name = ZINCrH000004oWXN.0
REMARK                            x       y       z     vdW  Elec       q    Type
REMARK                         _______ _______ _______ _____ _____    ______ ____
ROOT
ATOM      1  C   LIG    1        1.237   1.802  -2.902  0.00  0.00    +0.070 C 
ATOM      2  C   LIG    1        1.962   1.468  -1.597  0.00  0.00    -0.090 C 
ATOM      3  C   LIG    1        1.193   2.070  -0.418  0.00  0.00    +0.060 C 
ATOM      4  C   LIG    1       -0.233   1.515  -0.399  0.00  0.00    +0.020 C 
ATOM      5  C   LIG    1       -0.182  -0.005  -0.217  0.00  0.00    +0.280 C 
ATOM      6  N   LIG    1        0.675  -0.578  -1.264  0.00  0.00    -0.600 N 
ATOM      7  C   LIG    1        0.221  -1.568  -2.059  0.00  0.00    +0.560 C 
ATOM      8  O   LIG    1        0.901  -1.965  -2.984  0.00  0.00    -0.530 OA
ATOM      9  C   LIG    1        2.037  -0.052  -1.428  0.00  0.00    +0.300 C 
ENDROOT
BRANCH   7  10
ATOM     10  C   LIG    1       -1.105  -2.170  -1.804  0.00  0.00    -0.130 A 
ATOM     11  C   LIG    1       -1.585  -2.284  -0.498  0.00  0.00    +0.040 A 
ATOM     12  C   LIG    1       -2.825  -2.842  -0.269  0.00  0.00    +0.000 A 
ATOM     13  C   LIG    1       -3.589  -3.298  -1.328  0.00  0.00    +0.040 A 
ATOM     14  C   LIG    1       -3.117  -3.193  -2.625  0.00  0.00    +0.010 A 
ATOM     15  C   LIG    1       -1.881  -2.632  -2.869  0.00  0.00    +0.070 A 
ENDBRANCH   7  10
BRANCH   2  16
ATOM     16  C   LIG    1        3.355   2.040  -1.634  0.00  0.00    +0.530 C 
ATOM     17  N   LIG    1        4.218   1.650  -2.592  0.00  0.00    -0.660 N 
ATOM     18  H   LIG    1        3.920   1.062  -3.304  0.00  0.00    +0.420 HD
ATOM     19  O   LIG    1        3.700   2.852  -0.801  0.00  0.00    -0.510 OA
BRANCH  17  20
ATOM     20  C   LIG    1        5.545   2.092  -2.561  0.00  0.00    +0.210 A 
ATOM     21  C   LIG    1        6.297   2.149  -3.742  0.00  0.00    -0.010 A 
ATOM     22  N   LIG    1        6.031   1.850  -5.043  0.00  0.00    -0.480 NA
ATOM     23  C   LIG    1        7.094   2.086  -5.751  0.00  0.00    +0.490 A 
ATOM     24  O   LIG    1        8.085   2.541  -4.967  0.00  0.00    -0.210 OA
ATOM     25  C   LIG    1        7.625   2.595  -3.697  0.00  0.00    +0.030 A 
ATOM     26  C   LIG    1        8.185   2.977  -2.487  0.00  0.00    +0.020 A 
ATOM     27  C   LIG    1        7.436   2.918  -1.330  0.00  0.00    +0.090 A 
ATOM     28  C   LIG    1        6.121   2.482  -1.365  0.00  0.00    +0.020 A 
ENDBRANCH  17  20
ENDBRANCH   2  16
TORSDOF 3
