REMARK  Name = ZINCpk00000BXVUP.1
REMARK                            x       y       z     vdW  Elec       q    Type
REMARK                         _______ _______ _______ _____ _____    ______ ____
ROOT
ATOM      1  C   LIG    1       -0.304   1.293   6.316  0.00  0.00    +0.530 C 
ATOM      2  N   LIG    1        0.287   0.889   7.458  0.00  0.00    -0.610 N 
ATOM      3  O   LIG    1       -1.303   1.980   6.361  0.00  0.00    -0.520 OA
ENDROOT
BRANCH   2   4
ATOM      4  C   LIG    1       -0.277   1.278   8.752  0.00  0.00    +0.260 C 
ATOM      5  C   LIG    1       -0.655   0.023   9.542  0.00  0.00    +0.040 C 
BRANCH   4   6
ATOM      6  C   LIG    1        0.760   2.082   9.540  0.00  0.00    +0.040 C 
BRANCH   6   7
ATOM      7  C   LIG    1        1.041   3.377   8.822  0.00  0.00    +0.510 C 
ATOM      8  N   LIG    1        1.928   4.253   9.334  0.00  0.00    -0.620 N 
ATOM      9  C   LIG    1        2.629   3.967  10.595  0.00  0.00    +0.280 C 
ATOM     10  C   LIG    1        2.473   5.167  11.527  0.00  0.00    +0.170 C 
ATOM     11  N   LIG    1        2.914   6.385  10.834  0.00  0.00    -0.690 NA
ATOM     12  H   LIG    1        2.931   7.173  11.463  0.00  0.00    +0.350 HD
ATOM     13  C   LIG    1        2.074   6.664   9.662  0.00  0.00    +0.170 C 
ATOM     14  C   LIG    1        2.218   5.522   8.650  0.00  0.00    +0.280 C 
ATOM     15  O   LIG    1        0.469   3.631   7.783  0.00  0.00    -0.520 OA
ENDBRANCH   6   7
ENDBRANCH   4   6
ENDBRANCH   2   4
BRANCH   2  16
ATOM     16  C   LIG    1        1.494   0.060   7.404  0.00  0.00    +0.260 C 
ATOM     17  C   LIG    1        2.731   0.960   7.384  0.00  0.00    +0.010 C 
ENDBRANCH   2  16
BRANCH   1  18
ATOM     18  C   LIG    1        0.277   0.893   4.984  0.00  0.00    +0.030 C 
BRANCH  18  19
ATOM     19  C   LIG    1       -0.578   1.479   3.859  0.00  0.00    +0.130 C 
BRANCH  19  20
ATOM     20  C   LIG    1        0.011   1.072   2.506  0.00  0.00    +0.040 C 
ATOM     21  N   LIG    1        1.454   0.835   2.413  0.00  0.00    -0.120 NA
ATOM     22  N   LIG    1        0.751  -0.189   2.414  0.00  0.00    -0.120 NA
BRANCH  20  23
ATOM     23  C   LIG    1       -0.729   1.579   1.267  0.00  0.00    +0.120 C 
BRANCH  23  24
ATOM     24  C   LIG    1       -0.013   1.086   0.008  0.00  0.00    +0.160 C 
BRANCH  24  26
ATOM     25  C   LIG    1       -1.292   1.962  -2.136  0.00  0.00    +0.030 C 
ATOM     26  C   LIG    1       -0.725   1.573  -1.185  0.00  0.00    -0.190 C 
ENDBRANCH  24  26
ENDBRANCH  23  24
ENDBRANCH  20  23
ENDBRANCH  19  20
ENDBRANCH  18  19
ENDBRANCH   1  18
TORSDOF 10
