REMARK  Name = ZINCah0000002pWD.0
REMARK                            x       y       z     vdW  Elec       q    Type
REMARK                         _______ _______ _______ _____ _____    ______ ____
ROOT
ATOM      1  C   LIG    1       -1.410  -0.530  -0.262  0.00  0.00    +0.060 C 
ATOM      2  C   LIG    1        0.002  -0.004   0.002  0.00  0.00    +0.000 C 
ATOM      3  C   LIG    1       -0.019   1.526   0.010  0.00  0.00    +0.040 C 
ATOM      4  C   LIG    1        1.429   2.031  -0.001  0.00  0.00    -0.080 C 
ATOM      5  C   LIG    1        2.061   1.676  -1.347  0.00  0.00    +0.270 C 
ATOM      6  N   LIG    1        1.857   0.266  -1.651  0.00  0.00    -0.720 N 
ATOM      7  H   LIG    1        2.433  -0.145  -2.315  0.00  0.00    +0.400 HD
ATOM      8  C   LIG    1        2.215   1.360   1.127  0.00  0.00    +0.030 C 
ATOM      9  C   LIG    1        1.446   3.549   0.190  0.00  0.00    +0.040 C 
ATOM     10  C   LIG    1        0.927  -0.497  -1.074  0.00  0.00    +0.520 C 
ATOM     11  O   LIG    1        0.823  -1.649  -1.437  0.00  0.00    -0.550 OA
ENDROOT
TORSDOF 0
