REMARK  Name = ZINCvU00000009Ji.0
REMARK                            x       y       z     vdW  Elec       q    Type
REMARK                         _______ _______ _______ _____ _____    ______ ____
ROOT
ATOM      1  C   LIG    1       -3.428  -0.940   1.182  0.00  0.00    +0.200 A 
ATOM      2  C   LIG    1       -3.611  -2.304   0.974  0.00  0.00    -0.010 A 
ATOM      3  C   LIG    1       -4.882  -2.816   0.850  0.00  0.00    +0.160 A 
ATOM      4  C   LIG    1       -5.986  -1.961   0.923  0.00  0.00    -0.130 A 
ATOM      5  C   LIG    1       -5.793  -0.591   1.127  0.00  0.00    +0.180 A 
ATOM      6  C   LIG    1       -4.529  -0.090   1.254  0.00  0.00    -0.040 A 
ENDROOT
BRANCH   1  12
ATOM      7  C   LIG    1       -0.318   1.134   2.954  0.00  0.00    +0.030 C 
ATOM      8  C   LIG    1       -0.091  -0.348   2.647  0.00  0.00    -0.010 C 
ATOM      9  C   LIG    1        0.743  -0.484   1.371  0.00  0.00    +0.020 C 
ATOM     10  C   LIG    1       -0.032   0.122   0.197  0.00  0.00    +0.000 C 
ATOM     11  C   LIG    1       -1.384  -0.583   0.066  0.00  0.00    +0.190 C 
ATOM     12  N   LIG    1       -2.144  -0.424   1.312  0.00  0.00    -0.500 N 
ATOM     13  C   LIG    1        0.769  -0.062  -1.093  0.00  0.00    +0.020 C 
ATOM     14  C   LIG    1       -1.442  -1.040   2.446  0.00  0.00    +0.180 C 
ENDBRANCH   1  12
BRANCH   6  15
ATOM     15  N   LIG    1       -4.328   1.361   1.470  0.00  0.00    +0.030 N 
ATOM     16  O   LIG    1       -3.202   1.824   1.485  0.00  0.00    -0.090 OA
ATOM     17  O   LIG    1       -5.289   2.091   1.634  0.00  0.00    -0.190 OA
ENDBRANCH   6  15
BRANCH   4  18
ATOM     18  C   LIG    1       -7.350  -2.502   0.786  0.00  0.00    +0.520 C 
ATOM     19  O   LIG    1       -8.308  -1.757   0.850  0.00  0.00    -0.490 OA
BRANCH  18  20
ATOM     20  O   LIG    1       -7.535  -3.822   0.589  0.00  0.00    -0.330 OA
BRANCH  20  21
ATOM     21  C   LIG    1       -8.905  -4.285   0.463  0.00  0.00    +0.260 C 
BRANCH  21  22
ATOM     22  C   LIG    1       -8.915  -5.777   0.250  0.00  0.00    +0.400 C 
ATOM     23  O   LIG    1       -7.869  -6.389   0.208  0.00  0.00    -0.420 OA
BRANCH  22  24
ATOM     24  C   LIG    1      -10.192  -6.489   0.092  0.00  0.00    -0.150 A 
ATOM     25  C   LIG    1      -10.204  -7.874  -0.106  0.00  0.00    +0.110 A 
ATOM     26  C   LIG    1      -11.404  -8.536  -0.253  0.00  0.00    +0.040 A 
ATOM     27  C   LIG    1      -12.597  -7.833  -0.205  0.00  0.00    +0.000 A 
ATOM     28  C   LIG    1      -12.593  -6.460  -0.009  0.00  0.00    -0.040 A 
ATOM     29 CL   LIG    1      -14.094  -5.589   0.050  0.00  0.00    -0.030 Cl
ATOM     30 CL   LIG    1      -14.104  -8.675  -0.391  0.00  0.00    -0.030 Cl
ATOM     31  C   LIG    1      -11.400  -5.786   0.145  0.00  0.00    +0.090 A 
ENDBRANCH  22  24
ENDBRANCH  21  22
ENDBRANCH  20  21
ENDBRANCH  18  20
ENDBRANCH   4  18
TORSDOF 7
