REMARK  Name = ZINCvU0000000Ez4.0
REMARK                            x       y       z     vdW  Elec       q    Type
REMARK                         _______ _______ _______ _____ _____    ______ ____
ROOT
ATOM      1  N   LIG    1       -1.468   1.867   0.177  0.00  0.00    -0.660 N 
ATOM      2  H   LIG    1       -2.338   1.443   0.119  0.00  0.00    +0.410 HD
ATOM      3  C   LIG    1       -1.375   3.211   0.224  0.00  0.00    +0.590 C 
ATOM      4  O   LIG    1       -0.283   3.746   0.211  0.00  0.00    -0.500 OA
ENDROOT
BRANCH   1   8
ATOM      5  C   LIG    1        1.983  -0.471   0.267  0.00  0.00    -0.040 A 
ATOM      6  C   LIG    1        0.822  -0.915   0.897  0.00  0.00    +0.070 A 
ATOM      7  C   LIG    1       -0.318  -0.139   0.868  0.00  0.00    -0.010 A 
ATOM      8  C   LIG    1       -0.309   1.085   0.210  0.00  0.00    +0.150 A 
ATOM      9  C   LIG    1        0.847   1.530  -0.419  0.00  0.00    +0.030 A 
ATOM     10  C   LIG    1        1.989   0.758  -0.392  0.00  0.00    +0.050 A 
BRANCH   5  14
ATOM     11  C   LIG    1        4.650  -4.452   1.493  0.00  0.00    +0.180 C 
ATOM     12  C   LIG    1        4.392  -3.108   0.862  0.00  0.00    +0.050 A 
ATOM     13  N   LIG    1        3.270  -2.477   0.910  0.00  0.00    -0.470 NA
ATOM     14  C   LIG    1        3.210  -1.304   0.296  0.00  0.00    +0.110 A 
ATOM     15  C   LIG    1        4.364  -0.932  -0.293  0.00  0.00    -0.080 A 
ATOM     16  S   LIG    1        5.549  -2.205  -0.013  0.00  0.00    +0.130 S 
ENDBRANCH   5  14
ENDBRANCH   1   8
BRANCH   3  17
ATOM     17  C   LIG    1       -2.597   4.032   0.292  0.00  0.00    -0.220 A 
ATOM     18  C   LIG    1       -2.656   5.411   0.345  0.00  0.00    +0.060 A 
ATOM     19  N   LIG    1       -3.956   5.755   0.397  0.00  0.00    -0.280 N 
ATOM     20  N   LIG    1       -4.725   4.587   0.376  0.00  0.00    -0.240 NA
ATOM     21  C   LIG    1       -3.928   3.556   0.308  0.00  0.00    +0.300 A 
BRANCH  19  22
ATOM     22  C   LIG    1       -4.455   7.064   0.461  0.00  0.00    +0.080 A 
ATOM     23  C   LIG    1       -3.965   7.950   1.411  0.00  0.00    +0.060 A 
ATOM     24  C   LIG    1       -4.454   9.240   1.468  0.00  0.00    +0.040 A 
ATOM     25  C   LIG    1       -5.440   9.648   0.589  0.00  0.00    +0.080 A 
ATOM     26  C   LIG    1       -5.936   8.768  -0.355  0.00  0.00    +0.010 A 
ATOM     27  C   LIG    1       -5.447   7.476  -0.423  0.00  0.00    +0.130 A 
ATOM     28  F   LIG    1       -5.931   6.616  -1.345  0.00  0.00    -0.120 F 
ENDBRANCH  19  22
BRANCH  18  29
ATOM     29  C   LIG    1       -1.482   6.355   0.346  0.00  0.00    +0.540 C 
ATOM     30  F   LIG    1       -1.898   7.617  -0.094  0.00  0.00    -0.170 F 
ATOM     31  F   LIG    1       -0.490   5.867  -0.511  0.00  0.00    -0.130 F 
ATOM     32  F   LIG    1       -0.969   6.460   1.643  0.00  0.00    -0.160 F 
ENDBRANCH  18  29
ENDBRANCH   3  17
TORSDOF 5
