REMARK  Name = ZINCrH000004j5zA.0
REMARK                            x       y       z     vdW  Elec       q    Type
REMARK                         _______ _______ _______ _____ _____    ______ ____
ROOT
ATOM      1  S   LIG    1        3.921   3.172  -2.136  0.00  0.00    +2.610 S 
ATOM      2  O   LIG    1        4.670   2.599  -1.074  0.00  0.00    -0.950 OA
ATOM      3  O   LIG    1        4.548   3.983  -3.121  0.00  0.00    -0.950 OA
ENDROOT
BRANCH   1   4
ATOM      4  N   LIG    1        2.858   4.194  -1.383  0.00  0.00    -0.960 NA
BRANCH   4   5
ATOM      5  C   LIG    1        2.325   5.355  -2.099  0.00  0.00    +0.210 C 
ATOM      6  C   LIG    1        1.514   6.372  -1.293  0.00  0.00    +0.030 C 
ATOM      7  C   LIG    1        0.808   5.439  -2.280  0.00  0.00    +0.000 C 
ENDBRANCH   4   5
BRANCH   4   8
ATOM      8  C   LIG    1        2.451   3.937   0.001  0.00  0.00    +0.360 C 
BRANCH   8  12
ATOM      9  C   LIG    1       -1.219   1.751   0.017  0.00  0.00    -0.070 A 
ATOM     10  C   LIG    1       -0.013   1.076   0.008  0.00  0.00    +0.010 A 
ATOM     11  C   LIG    1        1.175   1.783   0.000  0.00  0.00    +0.010 A 
ATOM     12  C   LIG    1        1.156   3.165   0.008  0.00  0.00    -0.120 A 
ATOM     13  C   LIG    1       -0.050   3.840   0.023  0.00  0.00    +0.030 A 
ATOM     14  C   LIG    1       -1.238   3.133   0.029  0.00  0.00    +0.000 A 
BRANCH   9  16
ATOM     15  C   LIG    1       -2.945   0.711   1.462  0.00  0.00    +0.030 C 
ATOM     16  C   LIG    1       -2.514   0.980   0.019  0.00  0.00    +0.050 C 
ENDBRANCH   9  16
ENDBRANCH   8  12
ENDBRANCH   4   8
ENDBRANCH   1   4
BRANCH   1  17
ATOM     17  C   LIG    1        2.868   1.920  -2.919  0.00  0.00    -0.350 C 
BRANCH  17  18
ATOM     18  C   LIG    1        3.743   0.905  -3.657  0.00  0.00    +0.110 C 
BRANCH  18  19
ATOM     19  C   LIG    1        2.868  -0.135  -4.308  0.00  0.00    -0.100 A 
ATOM     20  C   LIG    1        2.529  -1.285  -3.619  0.00  0.00    +0.050 A 
ATOM     21  C   LIG    1        1.727  -2.240  -4.210  0.00  0.00    +0.000 A 
ATOM     22  C   LIG    1        1.261  -2.058  -5.509  0.00  0.00    +0.110 A 
ATOM     23  O   LIG    1        0.483  -2.868  -6.279  0.00  0.00    -0.300 OA
ATOM     24  C   LIG    1       -0.089  -2.098  -7.349  0.00  0.00    +0.240 C 
ATOM     25  C   LIG    1        0.951  -0.971  -7.555  0.00  0.00    +0.070 C 
ATOM     26  C   LIG    1        1.608  -0.898  -6.190  0.00  0.00    -0.170 A 
ATOM     27  C   LIG    1        2.405   0.056  -5.598  0.00  0.00    +0.070 A 
ENDBRANCH  18  19
ENDBRANCH  17  18
ENDBRANCH   1  17
TORSDOF 8
