REMARK  Name = ZINCqH00000515SH.0
REMARK                            x       y       z     vdW  Elec       q    Type
REMARK                         _______ _______ _______ _____ _____    ______ ____
ROOT
ATOM      1  C   LIG    1        2.558   1.510  -0.017  0.00  0.00    +0.330 C 
ATOM      2  C   LIG    1        3.389   2.729  -0.434  0.00  0.00    +0.020 C 
ATOM      3  C   LIG    1        2.985   3.938   0.414  0.00  0.00    +0.040 C 
ATOM      4  C   LIG    1        1.578   4.397   0.013  0.00  0.00    +0.110 C 
ATOM      5  C   LIG    1        0.667   3.195   0.013  0.00  0.00    +0.100 A 
ATOM      6  N   LIG    1       -0.676   3.173   0.024  0.00  0.00    -0.360 N 
ATOM      7  N   LIG    1       -1.084   1.831   0.017  0.00  0.00    -0.300 NA
ATOM      8  C   LIG    1       -0.013   1.076   0.008  0.00  0.00    +0.260 A 
ATOM      9  C   LIG    1        1.104   1.909   0.002  0.00  0.00    -0.250 A 
ENDROOT
BRANCH   1  12
ATOM     10  O   LIG    1        2.192  -1.106   0.532  0.00  0.00    -0.540 OA
ATOM     11  C   LIG    1        2.549  -0.855  -0.605  0.00  0.00    +0.550 C 
ATOM     12  N   LIG    1        2.759   0.423  -0.978  0.00  0.00    -0.720 N 
ATOM     13  H   LIG    1        3.044   0.623  -1.883  0.00  0.00    +0.400 HD
BRANCH  11  14
ATOM     14  C   LIG    1        2.743  -1.905  -1.534  0.00  0.00    -0.080 C 
ATOM     15  C   LIG    1        2.532  -3.191  -1.158  0.00  0.00    +0.180 C 
BRANCH  15  16
ATOM     16  C   LIG    1        2.726  -4.242  -2.087  0.00  0.00    -0.020 A 
ATOM     17  C   LIG    1        2.549  -5.587  -1.842  0.00  0.00    +0.000 A 
ATOM     18  C   LIG    1        2.851  -6.255  -3.038  0.00  0.00    -0.060 A 
ATOM     19  C   LIG    1        3.193  -5.313  -3.946  0.00  0.00    +0.190 A 
ATOM     20  O   LIG    1        3.112  -4.104  -3.373  0.00  0.00    -0.170 OA
ENDBRANCH  15  16
ENDBRANCH  11  14
ENDBRANCH   1  12
BRANCH   6  21
ATOM     21  C   LIG    1       -1.557   4.343   0.037  0.00  0.00    +0.370 C 
BRANCH  21  22
ATOM     22  C   LIG    1       -1.871   4.751  -1.379  0.00  0.00    -0.120 A 
ATOM     23  C   LIG    1       -1.062   5.663  -2.032  0.00  0.00    +0.020 A 
ATOM     24  C   LIG    1       -1.348   6.033  -3.333  0.00  0.00    +0.010 A 
ATOM     25  C   LIG    1       -2.448   5.500  -3.978  0.00  0.00    +0.010 A 
ATOM     26  C   LIG    1       -3.260   4.592  -3.324  0.00  0.00    +0.010 A 
ATOM     27  C   LIG    1       -2.971   4.218  -2.025  0.00  0.00    +0.040 A 
ENDBRANCH  21  22
ENDBRANCH   6  21
TORSDOF 5
