REMARK  Name = ZINCvU0000000JlK.0
REMARK                            x       y       z     vdW  Elec       q    Type
REMARK                         _______ _______ _______ _____ _____    ______ ____
ROOT
ATOM      1  N   LIG    1        3.307   6.148   1.358  0.00  0.00    -0.990 NA
ATOM      2  C   LIG    1        4.475   5.560   2.031  0.00  0.00    +0.300 C 
ATOM      3  C   LIG    1        4.994   4.397   1.179  0.00  0.00    +0.170 C 
ATOM      4  N   LIG    1        3.894   3.461   0.912  0.00  0.00    -0.520 NA
ATOM      5  C   LIG    1        2.830   4.099   0.126  0.00  0.00    +0.180 C 
ATOM      6  C   LIG    1        2.222   5.250   0.936  0.00  0.00    +0.300 C 
ENDROOT
BRANCH   1   8
ATOM      7  O   LIG    1        4.554   8.235   0.931  0.00  0.00    -0.940 OA
ATOM      8  S   LIG    1        3.217   7.779   1.083  0.00  0.00    +2.690 S 
ATOM      9  O   LIG    1        2.215   7.963   0.093  0.00  0.00    -0.930 OA
BRANCH   8  10
ATOM     10  C   LIG    1        2.602   8.523   2.558  0.00  0.00    -0.660 A 
ATOM     11  C   LIG    1        3.403   9.386   3.281  0.00  0.00    +0.180 A 
ATOM     12  C   LIG    1        2.921   9.971   4.439  0.00  0.00    -0.050 A 
ATOM     13  C   LIG    1        1.636   9.691   4.872  0.00  0.00    +0.030 A 
ATOM     14  C   LIG    1        0.835   8.826   4.148  0.00  0.00    +0.050 A 
ATOM     15 CL   LIG    1        1.031  10.424   6.325  0.00  0.00    -0.020 Cl
ATOM     16 CL   LIG    1        3.927  11.055   5.348  0.00  0.00    -0.020 Cl
ATOM     17  C   LIG    1        1.316   8.246   2.988  0.00  0.00    +0.070 A 
ATOM     18 CL   LIG    1        0.309   7.167   2.075  0.00  0.00    -0.020 Cl
ENDBRANCH   8  10
ENDBRANCH   1   8
BRANCH   4  19
ATOM     19  C   LIG    1        4.386   2.248   0.245  0.00  0.00    +0.230 C 
BRANCH  19  20
ATOM     20  C   LIG    1        3.232   1.312  -0.010  0.00  0.00    -0.080 A 
ATOM     21  C   LIG    1        2.299   1.079   0.983  0.00  0.00    +0.040 A 
ATOM     22  C   LIG    1        1.238   0.224   0.748  0.00  0.00    +0.000 A 
ATOM     23  C   LIG    1        1.116  -0.405  -0.477  0.00  0.00    +0.000 A 
ATOM     24  C   LIG    1        2.052  -0.176  -1.468  0.00  0.00    +0.000 A 
ATOM     25  C   LIG    1        3.110   0.682  -1.234  0.00  0.00    +0.010 A 
ENDBRANCH  19  20
BRANCH  19  26
ATOM     26  C   LIG    1        5.400   1.566   1.126  0.00  0.00    -0.080 A 
ATOM     27  C   LIG    1        5.160   1.431   2.480  0.00  0.00    +0.040 A 
ATOM     28  C   LIG    1        6.091   0.805   3.289  0.00  0.00    +0.000 A 
ATOM     29  C   LIG    1        7.263   0.316   2.743  0.00  0.00    +0.000 A 
ATOM     30  C   LIG    1        7.504   0.452   1.388  0.00  0.00    +0.000 A 
ATOM     31  C   LIG    1        6.572   1.077   0.580  0.00  0.00    +0.010 A 
ENDBRANCH  19  26
ENDBRANCH   4  19
TORSDOF 5
