REMARK  Name = ZINCpe000000Zc48.0
REMARK                            x       y       z     vdW  Elec       q    Type
REMARK                         _______ _______ _______ _____ _____    ______ ____
ROOT
ATOM      1  O   LIG    1        5.544   4.281  -0.027  0.00  0.00    -0.520 OA
ATOM      2  C   LIG    1        4.976   5.355  -0.015  0.00  0.00    +0.560 C 
ATOM      3  N   LIG    1        5.692   6.496  -0.016  0.00  0.00    -0.710 N 
ATOM      4  H   LIG    1        5.239   7.354  -0.006  0.00  0.00    +0.410 HD
ENDROOT
BRANCH   2   5
ATOM      5  C   LIG    1        3.495   5.410  -0.001  0.00  0.00    -0.070 A 
ATOM      6  C   LIG    1        2.822   6.636   0.012  0.00  0.00    +0.000 A 
ATOM      7  C   LIG    1        1.441   6.645   0.024  0.00  0.00    +0.320 A 
ATOM      8  N   LIG    1        0.755   5.519   0.019  0.00  0.00    -0.490 NA
ATOM      9  C   LIG    1        1.349   4.337   0.013  0.00  0.00    +0.360 A 
ATOM     10  C   LIG    1        2.734   4.239  -0.001  0.00  0.00    +0.060 A 
BRANCH   9  11
ATOM     11  N   LIG    1        0.573   3.173   0.013  0.00  0.00    -0.340 N 
ATOM     12  C   LIG    1       -0.772   3.099   0.025  0.00  0.00    +0.520 A 
ATOM     13  N   LIG    1       -1.108   1.835   0.017  0.00  0.00    -0.540 NA
ATOM     14  C   LIG    1       -0.013   1.076   0.008  0.00  0.00    +0.450 A 
ATOM     15  N   LIG    1        1.041   1.849   0.002  0.00  0.00    -0.310 NA
ENDBRANCH   9  11
ENDBRANCH   2   5
BRANCH   3  16
ATOM     16  C   LIG    1        7.156   6.442  -0.030  0.00  0.00    +0.260 C 
BRANCH  16  17
ATOM     17  C   LIG    1        7.720   7.864  -0.027  0.00  0.00    +0.220 C 
BRANCH  17  18
ATOM     18  O   LIG    1        7.258   8.562  -1.185  0.00  0.00    -0.550 OA
ATOM     19  H   LIG    1        7.520   8.153  -2.021  0.00  0.00    +0.380 HD
ENDBRANCH  17  18
BRANCH  17  20
ATOM     20  C   LIG    1        9.248   7.808  -0.042  0.00  0.00    +0.180 C 
BRANCH  20  21
ATOM     21  O   LIG    1        9.775   9.131   0.078  0.00  0.00    -0.300 OA
BRANCH  21  22
ATOM     22  C   LIG    1       11.128   9.258   0.082  0.00  0.00    +0.130 A 
ATOM     23  C   LIG    1       11.932   8.132  -0.022  0.00  0.00    -0.080 A 
ATOM     24  C   LIG    1       13.307   8.265  -0.024  0.00  0.00    +0.050 A 
ATOM     25  C   LIG    1       13.883   9.517   0.089  0.00  0.00    -0.030 A 
ATOM     26  C   LIG    1       13.083  10.640   0.199  0.00  0.00    +0.050 A 
ATOM     27  C   LIG    1       11.708  10.513   0.195  0.00  0.00    -0.020 A 
ENDBRANCH  21  22
ENDBRANCH  20  21
ENDBRANCH  17  20
ENDBRANCH  16  17
ENDBRANCH   3  16
TORSDOF 8
