REMARK  Name = ZINCrD000000D8zB.0
REMARK                            x       y       z     vdW  Elec       q    Type
REMARK                         _______ _______ _______ _____ _____    ______ ____
ROOT
ATOM      1  C   LIG    1        1.262   0.456   5.692  0.00  0.00    +0.080 A 
ATOM      2  N   LIG    1        1.687   1.539   6.298  0.00  0.00    -0.290 NA
ATOM      3  O   LIG    1        2.177   1.287   7.374  0.00  0.00    +0.160 OA
ATOM      4  C   LIG    1        2.146  -0.031   7.639  0.00  0.00    -0.000 A 
ATOM      5  C   LIG    1        1.547  -0.627   6.565  0.00  0.00    +0.040 A 
ENDROOT
BRANCH   4   6
ATOM      6  C   LIG    1        2.653  -0.702   8.855  0.00  0.00    +0.020 A 
ATOM      7  C   LIG    1        1.845  -1.606   9.546  0.00  0.00    +0.070 A 
ATOM      8  C   LIG    1        2.324  -2.229  10.680  0.00  0.00    +0.060 A 
ATOM      9  C   LIG    1        3.603  -1.959  11.133  0.00  0.00    +0.040 A 
ATOM     10  C   LIG    1        4.410  -1.063  10.453  0.00  0.00    +0.080 A 
ATOM     11  C   LIG    1        3.945  -0.439   9.315  0.00  0.00    -0.160 A 
BRANCH  11  12
ATOM     12  C   LIG    1        4.827   0.531   8.571  0.00  0.00    +0.500 C 
ATOM     13  F   LIG    1        4.216   1.789   8.542  0.00  0.00    -0.160 F 
ATOM     14  F   LIG    1        5.021   0.076   7.263  0.00  0.00    -0.170 F 
ATOM     15  F   LIG    1        6.063   0.628   9.219  0.00  0.00    -0.170 F 
ENDBRANCH  11  12
ENDBRANCH   4   6
BRANCH   1  19
ATOM     16  C   LIG    1       -0.244   0.844   2.481  0.00  0.00    +0.190 A 
ATOM     17  N   LIG    1       -0.306  -0.440   2.674  0.00  0.00    -0.360 NA
ATOM     18  O   LIG    1        0.178  -0.731   3.748  0.00  0.00    +0.110 OA
ATOM     19  C   LIG    1        0.610   0.379   4.364  0.00  0.00    +0.260 A 
ATOM     20  N   LIG    1        0.348   1.388   3.555  0.00  0.00    -0.440 NA
BRANCH  16  25
ATOM     21  O   LIG    1       -2.866   3.163  -0.747  0.00  0.00    -0.930 OA
ATOM     22  S   LIG    1       -2.503   1.791  -0.692  0.00  0.00    +2.400 S 
ATOM     23  C   LIG    1       -0.767   1.601  -1.234  0.00  0.00    -0.300 C 
ATOM     24  C   LIG    1       -0.013   1.086   0.008  0.00  0.00    +0.080 C 
ATOM     25  C   LIG    1       -0.742   1.586   1.267  0.00  0.00    +0.130 C 
ATOM     26  O   LIG    1       -3.309   0.819  -1.344  0.00  0.00    -0.930 OA
ATOM     27  C   LIG    1       -2.247   1.300   1.056  0.00  0.00    -0.290 C 
ENDBRANCH  16  25
ENDBRANCH   1  19
TORSDOF 4
