REMARK  Name = ZINCpe000000Zlso.0
REMARK                            x       y       z     vdW  Elec       q    Type
REMARK                         _______ _______ _______ _____ _____    ______ ____
ROOT
ATOM      1  C   LIG    1        3.672   2.186  -0.021  0.00  0.00    +0.180 C 
ENDROOT
BRANCH   1   2
ATOM      2  C   LIG    1        2.378   1.413  -0.013  0.00  0.00    -0.060 A 
ATOM      3  C   LIG    1        1.171   2.086   0.002  0.00  0.00    +0.050 A 
ATOM      4  C   LIG    1       -0.017   1.377   0.010  0.00  0.00    +0.050 A 
ATOM      5  C   LIG    1        0.002  -0.004   0.002  0.00  0.00    +0.000 A 
ATOM      6  C   LIG    1        1.211  -0.679  -0.013  0.00  0.00    +0.100 A 
ATOM      7  F   LIG    1        1.230  -2.030  -0.020  0.00  0.00    -0.140 F 
ATOM      8  C   LIG    1        2.399   0.030  -0.021  0.00  0.00    -0.020 A 
ENDBRANCH   1   2
BRANCH   1   9
ATOM      9  N   LIG    1        3.539   3.352  -0.904  0.00  0.00    -0.510 NA
ATOM     10  C   LIG    1        3.144   2.945  -2.260  0.00  0.00    +0.160 C 
ATOM     11  C   LIG    1        2.959   4.192  -3.129  0.00  0.00    +0.230 C 
ATOM     12  O   LIG    1        4.170   4.954  -3.124  0.00  0.00    -0.380 OA
ATOM     13  C   LIG    1        4.584   5.368  -1.819  0.00  0.00    +0.230 C 
ATOM     14  C   LIG    1        4.785   4.132  -0.937  0.00  0.00    +0.150 C 
ENDBRANCH   1   9
BRANCH   1  16
ATOM     15  O   LIG    1        3.746   3.788   1.709  0.00  0.00    -0.500 OA
ATOM     16  C   LIG    1        3.990   2.648   1.377  0.00  0.00    +0.520 C 
ATOM     17  N   LIG    1        4.545   1.793   2.259  0.00  0.00    -0.720 N 
ATOM     18  H   LIG    1        4.740   0.881   1.994  0.00  0.00    +0.400 HD
BRANCH  17  19
ATOM     19  C   LIG    1        4.854   2.242   3.619  0.00  0.00    +0.270 C 
ATOM     20  C   LIG    1        3.609   2.112   4.491  0.00  0.00    +0.020 C 
ATOM     21  C   LIG    1        3.820   2.802   5.836  0.00  0.00    +0.070 C 
ATOM     22  C   LIG    1        4.826   2.011   6.675  0.00  0.00    -0.320 C 
ATOM     23  S   LIG    1        6.436   2.021   5.833  0.00  0.00    +2.430 S 
ATOM     24  O   LIG    1        6.868   3.368   5.695  0.00  0.00    -0.930 OA
ATOM     25  O   LIG    1        7.287   1.078   6.469  0.00  0.00    -0.930 OA
ATOM     26  C   LIG    1        5.984   1.384   4.193  0.00  0.00    -0.350 C 
ENDBRANCH  17  19
ENDBRANCH   1  16
TORSDOF 4
