REMARK  Name = ZINCrD000000A7D4.0
REMARK                            x       y       z     vdW  Elec       q    Type
REMARK                         _______ _______ _______ _____ _____    ______ ____
ROOT
ATOM      1  O   LIG    1        2.382  -1.472   3.147  0.00  0.00    -0.510 OA
ATOM      2  C   LIG    1        2.976  -0.742   2.382  0.00  0.00    +0.520 C 
ATOM      3  N   LIG    1        4.113  -0.135   2.776  0.00  0.00    -0.580 N 
ENDROOT
BRANCH   3   4
ATOM      4  C   LIG    1        4.651  -0.385   4.115  0.00  0.00    +0.290 C 
ATOM      5  C   LIG    1        3.716   0.212   5.188  0.00  0.00    +0.030 C 
ATOM      6  C   LIG    1        2.798  -0.981   5.529  0.00  0.00    +0.090 C 
ATOM      7  C   LIG    1        3.616  -2.214   5.212  0.00  0.00    -0.030 A 
ATOM      8  C   LIG    1        3.444  -3.530   5.604  0.00  0.00    +0.000 A 
ATOM      9  C   LIG    1        4.332  -4.502   5.186  0.00  0.00    +0.010 A 
ATOM     10  C   LIG    1        5.396  -4.160   4.373  0.00  0.00    -0.020 A 
ATOM     11  C   LIG    1        5.570  -2.847   3.981  0.00  0.00    +0.020 A 
ATOM     12  C   LIG    1        4.684  -1.872   4.399  0.00  0.00    -0.120 A 
ENDBRANCH   3   4
BRANCH   2  13
ATOM     13  C   LIG    1        2.442  -0.514   0.991  0.00  0.00    -0.030 C 
ATOM     14  C   LIG    1        2.103  -1.860   0.346  0.00  0.00    +0.050 C 
ATOM     15  C   LIG    1        1.507  -1.619  -1.043  0.00  0.00    +0.210 C 
ATOM     16  N   LIG    1        0.297  -0.795  -0.921  0.00  0.00    -0.460 N 
ATOM     17  C   LIG    1        0.606   0.521  -0.347  0.00  0.00    +0.220 C 
ATOM     18  C   LIG    1        1.175   0.344   1.062  0.00  0.00    +0.060 C 
BRANCH  16  19
ATOM     19  C   LIG    1       -0.340  -0.666  -2.143  0.00  0.00    +0.490 A 
ATOM     20  N   LIG    1        0.181  -1.255  -3.209  0.00  0.00    -0.550 NA
ATOM     21  C   LIG    1       -0.406  -1.156  -4.391  0.00  0.00    +0.340 A 
ATOM     22  C   LIG    1       -1.573  -0.417  -4.506  0.00  0.00    -0.110 A 
ATOM     23  C   LIG    1       -2.088   0.191  -3.372  0.00  0.00    +0.350 A 
ATOM     24  N   LIG    1       -1.454   0.048  -2.219  0.00  0.00    -0.530 NA
ENDBRANCH  16  19
ENDBRANCH   2  13
BRANCH   3  25
ATOM     25  C   LIG    1        4.811   0.775   1.864  0.00  0.00    +0.220 C 
ATOM     26  C   LIG    1        3.964   1.543   0.847  0.00  0.00    +0.010 C 
ATOM     27  C   LIG    1        4.861   0.392   0.384  0.00  0.00    +0.020 C 
ENDBRANCH   3  25
TORSDOF 4
