REMARK  Name = ZINCc70000001Ezl.0
REMARK                            x       y       z     vdW  Elec       q    Type
REMARK                         _______ _______ _______ _____ _____    ______ ____
ROOT
ATOM      1  C   LIG    1       -1.571   2.658  -1.501  0.00  0.00    -0.630 A 
ATOM      2  C   LIG    1       -1.089   3.951  -1.587  0.00  0.00    +0.060 A 
ATOM      3  C   LIG    1       -1.173   4.646  -2.780  0.00  0.00    +0.040 A 
ATOM      4  C   LIG    1       -1.748   4.054  -3.886  0.00  0.00    -0.010 A 
ATOM      5  C   LIG    1       -2.239   2.757  -3.803  0.00  0.00    +0.200 A 
ATOM      6  C   LIG    1       -2.148   2.060  -2.605  0.00  0.00    +0.040 A 
ENDROOT
BRANCH   1   7
ATOM      7  S   LIG    1       -1.456   1.774   0.019  0.00  0.00    +2.700 S 
ATOM      8  O   LIG    1       -1.361   2.752   1.045  0.00  0.00    -0.950 OA
ATOM      9  O   LIG    1       -2.472   0.781  -0.017  0.00  0.00    -0.960 OA
BRANCH   7  11
ATOM     10  C   LIG    1        1.248   1.716  -0.001  0.00  0.00    +0.290 C 
ATOM     11  N   LIG    1       -0.011   0.966   0.007  0.00  0.00    -1.120 NA
ATOM     12  H   LIG    1        0.002  -0.004   0.002  0.00  0.00    +0.420 HD
ENDBRANCH   7  11
ENDBRANCH   1   7
BRANCH   5  13
ATOM     13  N   LIG    1       -2.822   2.156  -4.920  0.00  0.00    -0.880 N 
ATOM     14  H   LIG    1       -2.885   2.644  -5.756  0.00  0.00    +0.400 HD
ATOM     15  H   LIG    1       -3.164   1.251  -4.861  0.00  0.00    +0.400 HD
ENDBRANCH   5  13
TORSDOF 3
