REMARK  Name = ZINCqH00000390yc.0
REMARK                            x       y       z     vdW  Elec       q    Type
REMARK                         _______ _______ _______ _____ _____    ______ ____
ROOT
ATOM      1  C   LIG    1        0.714  -1.104  -5.188  0.00  0.00    +0.080 C 
ATOM      2  C   LIG    1        1.138  -2.418  -4.499  0.00  0.00    +0.060 C 
ATOM      3  C   LIG    1        2.098  -3.087  -5.515  0.00  0.00    +0.020 C 
ATOM      4  C   LIG    1        2.878  -1.880  -6.092  0.00  0.00    +0.020 C 
ATOM      5  C   LIG    1        1.821  -0.762  -6.200  0.00  0.00    +0.040 C 
ENDROOT
BRANCH   1  10
ATOM      6  F   LIG    1       -4.188  -1.817  -7.853  0.00  0.00    -0.130 F 
ATOM      7  C   LIG    1       -3.010  -1.645  -7.213  0.00  0.00    +0.130 A 
ATOM      8  C   LIG    1       -2.388  -2.722  -6.606  0.00  0.00    -0.010 A 
ATOM      9  C   LIG    1       -1.183  -2.546  -5.952  0.00  0.00    +0.100 A 
ATOM     10  C   LIG    1       -0.599  -1.295  -5.902  0.00  0.00    -0.110 A 
ATOM     11  C   LIG    1       -1.223  -0.214  -6.504  0.00  0.00    +0.140 A 
ATOM     12  F   LIG    1       -0.654   1.010  -6.450  0.00  0.00    -0.130 F 
ATOM     13  C   LIG    1       -2.426  -0.391  -7.164  0.00  0.00    -0.040 A 
ENDBRANCH   1  10
BRANCH   1  14
ATOM     14  C   LIG    1        0.591  -0.003  -4.166  0.00  0.00    +0.180 A 
ATOM     15  N   LIG    1        1.298   1.086  -4.120  0.00  0.00    -0.370 NA
ATOM     16  O   LIG    1        0.956   1.769  -3.178  0.00  0.00    +0.080 OA
ATOM     17  C   LIG    1       -0.032   1.163  -2.514  0.00  0.00    +0.180 A 
ATOM     18  N   LIG    1       -0.269   0.031  -3.132  0.00  0.00    -0.470 NA
BRANCH  17  19
ATOM     19  C   LIG    1       -0.736   1.678  -1.285  0.00  0.00    +0.200 C 
BRANCH  19  20
ATOM     20  C   LIG    1       -0.004   1.186  -0.034  0.00  0.00    +0.140 C 
BRANCH  20  21
ATOM     21  C   LIG    1       -0.708   1.702   1.195  0.00  0.00    +0.080 A 
ATOM     22  C   LIG    1       -1.132   0.817   2.170  0.00  0.00    +0.230 A 
ATOM     23  N   LIG    1       -1.749   1.269   3.248  0.00  0.00    -0.430 NA
ATOM     24  C   LIG    1       -1.960   2.565   3.394  0.00  0.00    +0.220 A 
ATOM     25  C   LIG    1       -1.536   3.450   2.418  0.00  0.00    +0.230 A 
ATOM     26  N   LIG    1       -0.915   2.998   1.343  0.00  0.00    -0.430 NA
ENDBRANCH  20  21
ENDBRANCH  19  20
ENDBRANCH  17  19
ENDBRANCH   1  14
TORSDOF 5
