REMARK  Name = ZINCbu0000000GAB.0
REMARK                            x       y       z     vdW  Elec       q    Type
REMARK                         _______ _______ _______ _____ _____    ______ ____
ROOT
ATOM      1  C   LIG    1        0.002  -0.004   0.002  0.00  0.00    +0.240 C 
ENDROOT
BRANCH   1   2
ATOM      2  C   LIG    1       -1.412  -0.526   0.013  0.00  0.00    -0.160 A 
ATOM      3  C   LIG    1       -2.386   0.103  -0.740  0.00  0.00    +0.000 A 
ATOM      4  C   LIG    1       -3.682  -0.378  -0.733  0.00  0.00    +0.030 A 
ATOM      5  C   LIG    1       -4.005  -1.482   0.033  0.00  0.00    -0.050 A 
ATOM      6  C   LIG    1       -3.032  -2.108   0.789  0.00  0.00    +0.030 A 
ATOM      7  C   LIG    1       -5.419  -2.005   0.043  0.00  0.00    +0.110 C 
ATOM      8  C   LIG    1       -1.735  -1.629   0.779  0.00  0.00    +0.050 A 
ENDBRANCH   1   2
BRANCH   1   9
ATOM      9  N   LIG    1       -0.018   1.465   0.010  0.00  0.00    -0.640 N 
ATOM     10  H   LIG    1       -0.490   1.790   0.840  0.00  0.00    +0.440 HD
ATOM     11  H   LIG    1       -0.506   1.799  -0.807  0.00  0.00    +0.430 HD
ATOM     12  H   LIG    1        0.929   1.814   0.003  0.00  0.00    +0.440 HD
ENDBRANCH   1   9
BRANCH   1  14
ATOM     13  C   LIG    1        2.187  -0.073  -1.207  0.00  0.00    +0.020 C 
ATOM     14  C   LIG    1        0.718  -0.497  -1.257  0.00  0.00    +0.060 C 
ENDBRANCH   1  14
TORSDOF 3
