REMARK  Name = ZINCpk000000oYeN.0
REMARK                            x       y       z     vdW  Elec       q    Type
REMARK                         _______ _______ _______ _____ _____    ______ ____
ROOT
ATOM      1  C   LIG    1       10.300  -2.949  -1.868  0.00  0.00    +0.650 C 
ATOM      2  N   LIG    1        8.995  -2.815  -1.560  0.00  0.00    -0.600 N 
ATOM      3  C   LIG    1        7.956  -3.339  -2.458  0.00  0.00    +0.300 C 
ATOM      4  C   LIG    1        6.994  -2.199  -2.814  0.00  0.00    +0.290 C 
ATOM      5  N   LIG    1        6.584  -1.526  -1.573  0.00  0.00    -0.610 N 
ATOM      6  C   LIG    1        7.622  -0.997  -0.678  0.00  0.00    +0.270 C 
ATOM      7  C   LIG    1        5.279  -1.392  -1.265  0.00  0.00    +0.500 C 
ATOM      8  O   LIG    1        4.434  -1.908  -1.965  0.00  0.00    -0.500 OA
ATOM      9  C   LIG    1        8.584  -2.142  -0.319  0.00  0.00    +0.290 C 
ATOM     10  O   LIG    1       10.627  -3.507  -2.897  0.00  0.00    -0.570 OA
ENDROOT
BRANCH   7  11
ATOM     11  C   LIG    1        4.869  -0.602  -0.049  0.00  0.00    +0.270 C 
ATOM     12  C   LIG    1        4.958  -1.492   1.192  0.00  0.00    +0.080 C 
BRANCH  11  13
ATOM     13  N   LIG    1        3.492  -0.130  -0.215  0.00  0.00    -0.540 N 
ATOM     14  C   LIG    1        2.401  -0.902  -0.387  0.00  0.00    +0.640 A 
ATOM     15  O   LIG    1        1.315  -0.121  -0.503  0.00  0.00    -0.240 OA
ATOM     16  C   LIG    1        1.688   1.179  -0.408  0.00  0.00    +0.040 A 
ATOM     17  C   LIG    1        0.984   2.371  -0.460  0.00  0.00    +0.060 A 
ATOM     18  C   LIG    1        1.653   3.573  -0.329  0.00  0.00    +0.030 A 
ATOM     19  C   LIG    1        3.024   3.592  -0.146  0.00  0.00    +0.040 A 
ATOM     20  C   LIG    1        3.735   2.409  -0.093  0.00  0.00    +0.030 A 
ATOM     21  O   LIG    1        2.399  -2.117  -0.429  0.00  0.00    -0.460 OA
ATOM     22  C   LIG    1        3.071   1.200  -0.224  0.00  0.00    +0.070 A 
ENDBRANCH  11  13
ENDBRANCH   7  11
BRANCH   1  23
ATOM     23  O   LIG    1       11.241  -2.464  -1.037  0.00  0.00    -0.370 OA
BRANCH  23  25
ATOM     24  C   LIG    1       13.544  -2.033  -0.371  0.00  0.00    +0.070 C 
ATOM     25  C   LIG    1       12.626  -2.644  -1.433  0.00  0.00    +0.220 C 
ENDBRANCH  23  25
ENDBRANCH   1  23
TORSDOF 4
