REMARK  Name = ZINCqH0000005Xb2.0
REMARK                            x       y       z     vdW  Elec       q    Type
REMARK                         _______ _______ _______ _____ _____    ______ ____
ROOT
ATOM      1  N   LIG    1       -4.767   4.090   0.047  0.00  0.00    -0.460 N 
ATOM      2  C   LIG    1       -5.566   3.848  -1.160  0.00  0.00    +0.280 C 
ATOM      3  C   LIG    1       -4.907   4.475  -2.355  0.00  0.00    -0.020 C 
ATOM      4  C   LIG    1       -3.972   5.397  -2.257  0.00  0.00    -0.090 C 
ATOM      5  C   LIG    1       -3.470   5.906  -0.934  0.00  0.00    +0.050 C 
ATOM      6  C   LIG    1       -4.455   5.523   0.173  0.00  0.00    +0.260 C 
ENDROOT
BRANCH   4   7
ATOM      7  C   LIG    1       -3.394   5.953  -3.495  0.00  0.00    -0.040 A 
ATOM      8  C   LIG    1       -3.749   7.221  -3.927  0.00  0.00    +0.010 A 
ATOM      9  C   LIG    1       -3.205   7.752  -5.090  0.00  0.00    +0.000 A 
ATOM     10  C   LIG    1       -2.318   7.043  -5.841  0.00  0.00    +0.020 A 
ATOM     11  C   LIG    1       -1.932   5.750  -5.444  0.00  0.00    -0.050 A 
ATOM     12  C   LIG    1       -1.018   4.998  -6.202  0.00  0.00    +0.020 A 
ATOM     13  C   LIG    1       -0.667   3.750  -5.789  0.00  0.00    +0.010 A 
ATOM     14  C   LIG    1       -1.200   3.204  -4.624  0.00  0.00    +0.020 A 
ATOM     15  C   LIG    1       -2.088   3.906  -3.864  0.00  0.00    +0.030 A 
ATOM     16  C   LIG    1       -2.472   5.194  -4.259  0.00  0.00    -0.040 A 
ENDBRANCH   4   7
BRANCH   1  20
ATOM     17  C   LIG    1       -1.379   1.818  -0.074  0.00  0.00    +0.010 A 
ATOM     18  C   LIG    1       -1.619   2.555   1.092  0.00  0.00    +0.130 A 
ATOM     19  C   LIG    1       -2.764   3.330   1.147  0.00  0.00    +0.030 A 
ATOM     20  C   LIG    1       -3.610   3.329   0.037  0.00  0.00    +0.280 A 
ATOM     21  N   LIG    1       -3.304   2.598  -1.030  0.00  0.00    -0.270 NA
ATOM     22  N   LIG    1       -2.239   1.883  -1.085  0.00  0.00    -0.150 NA
BRANCH  17  23
ATOM     23  C   LIG    1       -0.171   0.975  -0.183  0.00  0.00    +0.530 C 
ATOM     24  O   LIG    1        0.616   0.920   0.740  0.00  0.00    -0.490 OA
BRANCH  23  26
ATOM     25  C   LIG    1        1.259  -0.548  -1.338  0.00  0.00    +0.280 C 
ATOM     26  O   LIG    1        0.055   0.262  -1.304  0.00  0.00    -0.330 OA
ENDBRANCH  23  26
ENDBRANCH  17  23
ENDBRANCH   1  20
TORSDOF 4
