REMARK  Name = ZINCrH000004otDz.0
REMARK                            x       y       z     vdW  Elec       q    Type
REMARK                         _______ _______ _______ _____ _____    ______ ____
ROOT
ATOM      1  N   LIG    1       -3.509   3.263  -1.041  0.00  0.00    -0.620 N 
ATOM      2  C   LIG    1       -3.907   4.009  -2.091  0.00  0.00    +0.710 C 
ATOM      3  N   LIG    1       -4.749   3.490  -3.006  0.00  0.00    -0.680 N 
ATOM      4  H   LIG    1       -5.017   2.560  -2.946  0.00  0.00    +0.410 HD
ATOM      5  O   LIG    1       -3.506   5.151  -2.212  0.00  0.00    -0.570 OA
ATOM      6  C   LIG    1       -3.992   1.888  -0.895  0.00  0.00    +0.280 C 
ENDROOT
BRANCH   3   7
ATOM      7  C   LIG    1       -5.234   4.290  -4.042  0.00  0.00    +0.160 A 
ATOM      8  C   LIG    1       -4.438   5.270  -4.595  0.00  0.00    +0.020 A 
ATOM      9  C   LIG    1       -4.912   6.073  -5.629  0.00  0.00    +0.040 A 
ATOM     10  C   LIG    1       -6.171   5.915  -6.120  0.00  0.00    +0.010 A 
ATOM     11  C   LIG    1       -7.016   4.928  -5.584  0.00  0.00    -0.040 A 
ATOM     12  C   LIG    1       -8.321   4.742  -6.071  0.00  0.00    +0.030 A 
ATOM     13  C   LIG    1       -9.112   3.777  -5.528  0.00  0.00    +0.000 A 
ATOM     14  C   LIG    1       -8.648   2.967  -4.494  0.00  0.00    +0.010 A 
ATOM     15  C   LIG    1       -7.389   3.119  -3.997  0.00  0.00    +0.010 A 
ATOM     16  C   LIG    1       -6.542   4.100  -4.536  0.00  0.00    -0.060 A 
ENDBRANCH   3   7
BRANCH   1  18
ATOM     17  C   LIG    1       -3.215   3.701   1.347  0.00  0.00    +0.060 C 
ATOM     18  C   LIG    1       -2.595   3.828  -0.046  0.00  0.00    +0.310 C 
BRANCH  18  19
ATOM     19  C   LIG    1       -1.287   3.080  -0.084  0.00  0.00    -0.040 A 
ATOM     20  C   LIG    1       -0.845   2.521  -1.268  0.00  0.00    +0.000 A 
ATOM     21  C   LIG    1        0.353   1.831  -1.302  0.00  0.00    +0.120 A 
ATOM     22  C   LIG    1        1.112   1.708  -0.153  0.00  0.00    -0.680 A 
ATOM     23  C   LIG    1        0.672   2.270   1.030  0.00  0.00    +0.140 A 
ATOM     24  C   LIG    1       -0.528   2.956   1.065  0.00  0.00    +0.010 A 
BRANCH  22  25
ATOM     25  S   LIG    1        2.642   0.834  -0.198  0.00  0.00    +2.700 S 
ATOM     26  O   LIG    1        2.563  -0.057  -1.302  0.00  0.00    -0.960 OA
ATOM     27  O   LIG    1        2.896   0.402   1.132  0.00  0.00    -0.960 OA
BRANCH  25  28
ATOM     28  N   LIG    1        3.824   1.933  -0.567  0.00  0.00    -1.250 NA
ATOM     29  H   LIG    1        3.614   2.706  -1.115  0.00  0.00    +0.420 HD
ATOM     30  H   LIG    1        4.726   1.805  -0.235  0.00  0.00    +0.420 HD
ENDBRANCH  25  28
ENDBRANCH  22  25
ENDBRANCH  18  19
ENDBRANCH   1  18
TORSDOF 5
