REMARK  Name = ZINCpe000000SE3a.0
REMARK                            x       y       z     vdW  Elec       q    Type
REMARK                         _______ _______ _______ _____ _____    ______ ____
ROOT
ATOM      1  N   LIG    1       -1.827   2.312  -7.549  0.00  0.00    -0.420 N 
ATOM      2  C   LIG    1       -2.916   3.056  -7.917  0.00  0.00    +0.400 A 
ATOM      3  N   LIG    1       -3.502   3.452  -6.822  0.00  0.00    -0.280 NA
ATOM      4  N   LIG    1       -2.869   3.010  -5.796  0.00  0.00    -0.280 NA
ATOM      5  C   LIG    1       -1.828   2.308  -6.181  0.00  0.00    +0.150 A 
ENDROOT
BRANCH   1  10
ATOM      6  C   LIG    1       -0.432   0.259 -10.272  0.00  0.00    +0.160 A 
ATOM      7  C   LIG    1        0.929   0.448 -10.069  0.00  0.00    +0.040 A 
ATOM      8  C   LIG    1        1.370   1.251  -9.035  0.00  0.00    +0.060 A 
ATOM      9  C   LIG    1        0.459   1.873  -8.203  0.00  0.00    +0.020 A 
ATOM     10  C   LIG    1       -0.903   1.684  -8.397  0.00  0.00    +0.130 A 
ATOM     11  C   LIG    1       -1.349   0.879  -9.434  0.00  0.00    +0.010 A 
BRANCH   6  14
ATOM     12  C   LIG    1       -0.738  -1.380 -13.646  0.00  0.00    +0.110 C 
ATOM     13  C   LIG    1       -0.202  -0.585 -12.484  0.00  0.00    +0.510 C 
ATOM     14  N   LIG    1       -0.878  -0.555 -11.319  0.00  0.00    -0.670 N 
ATOM     15  H   LIG    1       -1.675  -1.097 -11.206  0.00  0.00    +0.410 HD
ATOM     16  O   LIG    1        0.840   0.027 -12.597  0.00  0.00    -0.520 OA
ENDBRANCH   6  14
ENDBRANCH   1  10
BRANCH   5  17
ATOM     17  S   LIG    1       -0.659   1.506  -5.134  0.00  0.00    +0.080 S 
BRANCH  17  18
ATOM     18  C   LIG    1       -1.328   1.957  -3.513  0.00  0.00    +0.140 C 
BRANCH  18  19
ATOM     19  C   LIG    1       -0.464   1.363  -2.431  0.00  0.00    +0.570 C 
ATOM     20  N   LIG    1       -0.771   1.569  -1.135  0.00  0.00    -0.580 N 
ATOM     21  C   LIG    1       -0.014   1.048   0.014  0.00  0.00    +0.280 C 
ATOM     22  C   LIG    1       -0.787   1.573   1.239  0.00  0.00    +0.290 C 
ATOM     23  N   LIG    1       -1.902   2.335   0.648  0.00  0.00    -0.730 N 
ATOM     24  H   LIG    1       -2.590   2.802   1.147  0.00  0.00    +0.440 HD
ATOM     25  C   LIG    1       -1.815   2.280  -0.688  0.00  0.00    +0.700 C 
ATOM     26  O   LIG    1       -2.610   2.825  -1.427  0.00  0.00    -0.540 OA
ATOM     27  O   LIG    1        0.508   0.701  -2.725  0.00  0.00    -0.480 OA
ENDBRANCH  18  19
ENDBRANCH  17  18
ENDBRANCH   5  17
TORSDOF 5
