REMARK  Name = ZINCqH0000051fTY.0
REMARK                            x       y       z     vdW  Elec       q    Type
REMARK                         _______ _______ _______ _____ _____    ______ ____
ROOT
ATOM      1  O   LIG    1       -0.899  -2.222   0.102  0.00  0.00    -0.450 OA
ATOM      2  C   LIG    1        0.185  -2.771   0.088  0.00  0.00    +0.550 C 
ATOM      3  N   LIG    1        1.311  -2.037  -0.021  0.00  0.00    -0.650 N 
ATOM      4  H   LIG    1        2.171  -2.478  -0.106  0.00  0.00    +0.420 HD
ENDROOT
BRANCH   2   5
ATOM      5  C   LIG    1        0.270  -4.243   0.191  0.00  0.00    -0.100 A 
ATOM      6  C   LIG    1        1.514  -4.876   0.170  0.00  0.00    +0.010 A 
ATOM      7  C   LIG    1        1.589  -6.250   0.271  0.00  0.00    +0.060 A 
ATOM      8  C   LIG    1        0.436  -7.004   0.383  0.00  0.00    -0.040 A 
ATOM      9  C   LIG    1       -0.806  -6.383   0.400  0.00  0.00    +0.130 A 
ATOM     10  C   LIG    1       -0.893  -5.005   0.304  0.00  0.00    +0.060 A 
BRANCH   9  11
ATOM     11  O   LIG    1       -1.937  -7.130   0.509  0.00  0.00    -0.310 OA
BRANCH  11  12
ATOM     12  C   LIG    1       -1.773  -8.546   0.604  0.00  0.00    +0.320 C 
BRANCH  12  13
ATOM     13  C   LIG    1       -3.125  -9.202   0.718  0.00  0.00    +0.050 A 
ATOM     14  C   LIG    1       -4.267  -8.507   0.729  0.00  0.00    -0.040 A 
ATOM     15  S   LIG    1       -5.597  -9.653   0.874  0.00  0.00    +0.140 S 
ATOM     16  C   LIG    1       -4.486 -10.952   0.913  0.00  0.00    +0.230 A 
ATOM     17  N   LIG    1       -3.278 -10.507   0.821  0.00  0.00    -0.470 NA
ENDBRANCH  12  13
ENDBRANCH  11  12
ENDBRANCH   9  11
ENDBRANCH   2   5
BRANCH   3  18
ATOM     18  C   LIG    1        1.239  -0.649  -0.011  0.00  0.00    +0.410 A 
ATOM     19  C   LIG    1        2.403   0.120  -0.018  0.00  0.00    -0.070 A 
ATOM     20  C   LIG    1        2.279   1.497  -0.008  0.00  0.00    +0.370 A 
ATOM     21  N   LIG    1        1.069   2.036   0.006  0.00  0.00    -0.500 NA
ATOM     22  C   LIG    1       -0.011   1.281   0.012  0.00  0.00    +0.270 A 
ATOM     23  N   LIG    1        0.061  -0.034   0.003  0.00  0.00    -0.480 NA
BRANCH  22  24
ATOM     24  C   LIG    1       -1.366   1.940   0.029  0.00  0.00    +0.550 C 
ATOM     25  F   LIG    1       -2.346   1.001  -0.309  0.00  0.00    -0.150 F 
ATOM     26  F   LIG    1       -1.386   2.989  -0.898  0.00  0.00    -0.160 F 
ATOM     27  F   LIG    1       -1.625   2.444   1.308  0.00  0.00    -0.160 F 
ENDBRANCH  22  24
ENDBRANCH   3  18
TORSDOF 6
