REMARK  Name = ZINCpe000000VFBH.0
REMARK                            x       y       z     vdW  Elec       q    Type
REMARK                         _______ _______ _______ _____ _____    ______ ____
ROOT
ATOM      1  N   LIG    1       -0.806   3.062  -1.200  0.00  0.00    -0.550 NA
ATOM      2  C   LIG    1       -0.754   1.593  -1.231  0.00  0.00    +0.220 C 
ATOM      3  C   LIG    1       -0.013   1.086   0.008  0.00  0.00    +0.220 C 
ATOM      4  N   LIG    1       -0.701   1.560   1.216  0.00  0.00    -0.490 N 
ATOM      5  C   LIG    1       -0.754   3.029   1.247  0.00  0.00    +0.210 C 
ATOM      6  C   LIG    1       -1.495   3.536   0.008  0.00  0.00    +0.190 C 
ENDROOT
BRANCH   4   7
ATOM      7  C   LIG    1       -0.095   1.058   2.366  0.00  0.00    +0.120 A 
ATOM      8  C   LIG    1       -0.020  -0.316   2.567  0.00  0.00    +0.040 A 
ATOM      9  C   LIG    1        0.579  -0.816   3.702  0.00  0.00    +0.090 A 
ATOM     10  C   LIG    1        1.110   0.058   4.654  0.00  0.00    -0.020 A 
ATOM     11  C   LIG    1        1.033   1.439   4.450  0.00  0.00    +0.070 A 
ATOM     12  C   LIG    1        0.439   1.934   3.310  0.00  0.00    +0.050 A 
ATOM     13  F   LIG    1        0.368   3.268   3.109  0.00  0.00    -0.130 F 
BRANCH  10  14
ATOM     14  C   LIG    1        1.733  -0.460   5.835  0.00  0.00    +0.250 C 
ATOM     15  N   LIG    1        2.228  -0.871   6.772  0.00  0.00    -0.400 NA
ENDBRANCH  10  14
ENDBRANCH   4   7
BRANCH   1  16
ATOM     16  C   LIG    1       -1.445   3.591  -2.413  0.00  0.00    +0.500 C 
BRANCH  16  19
ATOM     17  C   LIG    1       -2.609   6.857  -1.711  0.00  0.00    +0.160 A 
ATOM     18  N   LIG    1       -2.726   5.547  -1.675  0.00  0.00    -0.240 NA
ATOM     19  N   LIG    1       -1.696   5.025  -2.246  0.00  0.00    -0.300 N 
ATOM     20  C   LIG    1       -0.886   6.018  -2.659  0.00  0.00    +0.450 A 
ATOM     21  N   LIG    1       -1.453   7.152  -2.334  0.00  0.00    -0.460 NA
BRANCH  17  22
ATOM     22  C   LIG    1       -3.575   7.832  -1.165  0.00  0.00    +0.570 C 
ATOM     23  O   LIG    1       -4.589   7.442  -0.621  0.00  0.00    -0.480 OA
BRANCH  22  25
ATOM     24  C   LIG    1       -4.325  10.052  -0.710  0.00  0.00    +0.290 C 
ATOM     25  O   LIG    1       -3.332   9.152  -1.269  0.00  0.00    -0.330 OA
ENDBRANCH  22  25
ENDBRANCH  17  22
ENDBRANCH  16  19
ENDBRANCH   1  16
TORSDOF 6
