REMARK  Name = ZINCrH00000tj16h.0
REMARK                            x       y       z     vdW  Elec       q    Type
REMARK                         _______ _______ _______ _____ _____    ______ ____
ROOT
ATOM      1  C   LIG    1       -1.448   1.995   0.785  0.00  0.00    -0.260 C 
ATOM      2  C   LIG    1       -2.629   1.365   0.596  0.00  0.00    +0.250 C 
ATOM      3  N   LIG    1       -3.631   1.948  -0.124  0.00  0.00    -0.450 N 
ATOM      4  C   LIG    1       -3.534   3.160  -0.687  0.00  0.00    +0.540 C 
ATOM      5  N   LIG    1       -2.419   3.910  -0.585  0.00  0.00    -0.650 N 
ATOM      6  H   LIG    1       -2.370   4.785  -1.000  0.00  0.00    +0.450 HD
ATOM      7  S   LIG    1       -4.868   3.775  -1.565  0.00  0.00    -0.560 S 
ATOM      8  C   LIG    1       -2.841  -0.005   1.188  0.00  0.00    +0.180 C 
ATOM      9  C   LIG    1       -1.280   3.373   0.178  0.00  0.00    +0.330 C 
ENDROOT
BRANCH   9  10
ATOM     10  C   LIG    1       -0.088   3.331  -0.744  0.00  0.00    -0.090 A 
ATOM     11  C   LIG    1        1.132   3.821  -0.318  0.00  0.00    +0.050 A 
ATOM     12  C   LIG    1        2.227   3.783  -1.163  0.00  0.00    +0.050 A 
ATOM     13  C   LIG    1        2.101   3.255  -2.434  0.00  0.00    +0.000 A 
ATOM     14  C   LIG    1        0.879   2.764  -2.861  0.00  0.00    +0.100 A 
ATOM     15  F   LIG    1        0.755   2.247  -4.104  0.00  0.00    -0.140 F 
ATOM     16  C   LIG    1       -0.215   2.798  -2.013  0.00  0.00    -0.010 A 
ENDBRANCH   9  10
BRANCH   3  17
ATOM     17  C   LIG    1       -4.831   1.240  -0.284  0.00  0.00    +0.070 A 
ATOM     18  C   LIG    1       -5.854   1.388   0.643  0.00  0.00    +0.090 A 
ATOM     19  C   LIG    1       -7.036   0.694   0.483  0.00  0.00    -0.060 A 
ATOM     20  C   LIG    1       -7.198  -0.161  -0.598  0.00  0.00    +0.150 A 
ATOM     21  C   LIG    1       -6.175  -0.314  -1.522  0.00  0.00    +0.000 A 
ATOM     22  C   LIG    1       -4.993   0.384  -1.365  0.00  0.00    +0.080 A 
BRANCH  20  23
ATOM     23  O   LIG    1       -8.361  -0.849  -0.752  0.00  0.00    -0.310 OA
ATOM     24  C   LIG    1       -9.372  -0.643   0.236  0.00  0.00    +0.240 C 
ENDBRANCH  20  23
ENDBRANCH   3  17
BRANCH   1  25
ATOM     25  C   LIG    1       -0.409   1.392   1.531  0.00  0.00    +0.530 C 
ATOM     26  O   LIG    1       -0.574   0.293   2.027  0.00  0.00    -0.510 OA
BRANCH  25  28
ATOM     27  C   LIG    1        1.776   1.362   2.446  0.00  0.00    +0.260 C 
ATOM     28  O   LIG    1        0.769   2.033   1.687  0.00  0.00    -0.350 OA
ENDBRANCH  25  28
ENDBRANCH   1  25
TORSDOF 5
