REMARK  Name = ZINCBI0000000jbr.0
REMARK                            x       y       z     vdW  Elec       q    Type
REMARK                         _______ _______ _______ _____ _____    ______ ____
ROOT
ATOM      1  C   LIG    1        1.189  -5.986   2.287  0.00  0.00    +0.200 C 
ATOM      2  N   LIG    1        0.961  -4.792   1.860  0.00  0.00    -0.250 NA
ATOM      3  N   LIG    1        1.369  -3.787   2.735  0.00  0.00    -0.450 N 
ATOM      4  C   LIG    1        1.953  -4.409   3.934  0.00  0.00    +0.310 C 
ATOM      5  C   LIG    1        1.245  -2.462   2.520  0.00  0.00    +0.530 C 
ATOM      6  O   LIG    1        1.632  -1.673   3.356  0.00  0.00    -0.510 OA
ATOM      7  C   LIG    1        1.840  -5.920   3.650  0.00  0.00    +0.100 C 
ENDROOT
BRANCH   1  13
ATOM      8  C   LIG    1        0.251  -7.164   0.300  0.00  0.00    +0.170 A 
ATOM      9  C   LIG    1       -0.047  -8.335  -0.377  0.00  0.00    -0.070 A 
ATOM     10  C   LIG    1        0.245  -9.559   0.195  0.00  0.00    +0.090 A 
ATOM     11  C   LIG    1        0.842  -9.625   1.442  0.00  0.00    -0.020 A 
ATOM     12  C   LIG    1        1.151  -8.469   2.127  0.00  0.00    +0.100 A 
ATOM     13  C   LIG    1        0.861  -7.226   1.561  0.00  0.00    -0.090 A 
BRANCH   8  15
ATOM     14  C   LIG    1       -0.663  -5.976  -1.544  0.00  0.00    +0.240 C 
ATOM     15  O   LIG    1       -0.041  -5.960  -0.258  0.00  0.00    -0.300 OA
ENDBRANCH   8  15
ENDBRANCH   1  13
BRANCH   4  16
ATOM     16  C   LIG    1        1.160  -4.040   5.162  0.00  0.00    -0.220 A 
ATOM     17  C   LIG    1       -0.132  -3.646   5.185  0.00  0.00    +0.250 A 
ATOM     18  N   LIG    1       -0.472  -3.410   6.479  0.00  0.00    -0.310 N 
ATOM     19  N   LIG    1        0.653  -3.660   7.275  0.00  0.00    -0.260 NA
ATOM     20  C   LIG    1        1.637  -4.038   6.487  0.00  0.00    +0.150 A 
BRANCH  18  21
ATOM     21  C   LIG    1       -1.727  -2.987   6.936  0.00  0.00    +0.150 A 
ATOM     22  C   LIG    1       -2.760  -2.770   6.033  0.00  0.00    -0.020 A 
ATOM     23  C   LIG    1       -3.997  -2.357   6.488  0.00  0.00    +0.040 A 
ATOM     24  C   LIG    1       -4.205  -2.150   7.839  0.00  0.00    +0.010 A 
ATOM     25  C   LIG    1       -3.177  -2.360   8.740  0.00  0.00    +0.050 A 
ATOM     26  C   LIG    1       -1.939  -2.777   8.292  0.00  0.00    +0.030 A 
ENDBRANCH  18  21
BRANCH  20  27
ATOM     27  C   LIG    1        3.010  -4.400   6.920  0.00  0.00    -0.030 A 
ATOM     28  C   LIG    1        3.707  -5.410   6.260  0.00  0.00    +0.010 A 
ATOM     29  C   LIG    1        4.986  -5.739   6.663  0.00  0.00    +0.010 A 
ATOM     30  C   LIG    1        5.570  -5.077   7.728  0.00  0.00    +0.030 A 
ATOM     31  C   LIG    1        4.880  -4.077   8.390  0.00  0.00    +0.010 A 
ATOM     32  C   LIG    1        3.603  -3.736   7.992  0.00  0.00    +0.040 A 
ENDBRANCH  20  27
ENDBRANCH   4  16
BRANCH   5  33
ATOM     33  C   LIG    1        0.626  -1.961   1.241  0.00  0.00    +0.310 C 
BRANCH  33  34
ATOM     34  N   LIG    1        0.606  -0.492   1.249  0.00  0.00    -0.500 N 
ATOM     35  H   LIG    1        0.063  -0.168   2.035  0.00  0.00    +0.430 HD
ATOM     36  H   LIG    1        1.550  -0.144   1.325  0.00  0.00    +0.440 HD
BRANCH  34  37
ATOM     37  C   LIG    1        0.002  -0.004   0.002  0.00  0.00    +0.290 C 
BRANCH  37  38
ATOM     38  C   LIG    1       -0.019   1.526   0.010  0.00  0.00    +0.220 C 
BRANCH  38  39
ATOM     39  O   LIG    1        1.322   2.020   0.000  0.00  0.00    -0.580 OA
ATOM     40  H   LIG    1        1.385   2.985   0.005  0.00  0.00    +0.410 HD
ENDBRANCH  38  39
ENDBRANCH  37  38
ENDBRANCH  34  37
ENDBRANCH  33  34
ENDBRANCH   5  33
TORSDOF 10
