REMARK  Name = ZINCrH000004quGv.0
REMARK                            x       y       z     vdW  Elec       q    Type
REMARK                         _______ _______ _______ _____ _____    ______ ____
ROOT
ATOM      1  C   LIG    1       -5.486   1.249   0.587  0.00  0.00    +0.340 C 
ENDROOT
BRANCH   1   4
ATOM      2  N   LIG    1       -5.883  -0.138   2.596  0.00  0.00    -0.670 N 
ATOM      3  H   LIG    1       -6.111  -0.874   2.007  0.00  0.00    +0.410 HD
ATOM      4  C   LIG    1       -5.583   1.070   2.080  0.00  0.00    +0.490 C 
ATOM      5  O   LIG    1       -5.390   2.014   2.818  0.00  0.00    -0.500 OA
BRANCH   2  10
ATOM      6  C   LIG    1       -5.816  -0.920   8.215  0.00  0.00    +0.090 C 
ATOM      7  C   LIG    1       -5.834  -0.713   6.722  0.00  0.00    -0.080 A 
ATOM      8  C   LIG    1       -6.942  -1.089   5.987  0.00  0.00    +0.010 A 
ATOM      9  C   LIG    1       -6.962  -0.900   4.619  0.00  0.00    -0.090 A 
ATOM     10  C   LIG    1       -5.867  -0.331   3.982  0.00  0.00    +0.130 A 
ATOM     11  C   LIG    1       -4.753   0.040   4.723  0.00  0.00    -0.060 A 
ATOM     12  C   LIG    1       -3.559   0.652   4.036  0.00  0.00    +0.090 C 
ATOM     13  C   LIG    1       -8.171  -1.309   3.818  0.00  0.00    +0.090 C 
ATOM     14  C   LIG    1       -4.741  -0.146   6.091  0.00  0.00    +0.020 A 
ENDBRANCH   2  10
ENDBRANCH   1   4
BRANCH   1  15
ATOM     15  N   LIG    1       -5.151   2.642   0.283  0.00  0.00    -0.590 N 
ATOM     16  C   LIG    1       -3.860   3.018   0.185  0.00  0.00    +0.570 C 
ATOM     17  O   LIG    1       -2.977   2.186   0.256  0.00  0.00    -0.510 OA
ATOM     18  C   LIG    1       -6.218   3.627   0.086  0.00  0.00    +0.300 C 
BRANCH  16  19
ATOM     19  C   LIG    1       -3.518   4.444  -0.010  0.00  0.00    -0.150 A 
ATOM     20  C   LIG    1       -4.261   5.240  -0.889  0.00  0.00    +0.110 A 
ATOM     21  C   LIG    1       -3.904   6.569  -1.031  0.00  0.00    +0.030 A 
ATOM     22  C   LIG    1       -2.831   7.063  -0.310  0.00  0.00    +0.060 A 
ATOM     23  N   LIG    1       -2.145   6.287   0.508  0.00  0.00    -0.440 NA
ATOM     24  C   LIG    1       -2.446   5.016   0.677  0.00  0.00    +0.350 A 
BRANCH  22  25
ATOM     25  C   LIG    1       -2.438   8.510  -0.463  0.00  0.00    +0.520 C 
ATOM     26  F   LIG    1       -2.760   8.947  -1.752  0.00  0.00    -0.170 F 
ATOM     27  F   LIG    1       -1.062   8.644  -0.255  0.00  0.00    -0.160 F 
ATOM     28  F   LIG    1       -3.129   9.282   0.477  0.00  0.00    -0.170 F 
ENDBRANCH  22  25
ENDBRANCH  16  19
ENDBRANCH   1  15
TORSDOF 5
