REMARK  Name = ZINCqH0000038q6w.0
REMARK                            x       y       z     vdW  Elec       q    Type
REMARK                         _______ _______ _______ _____ _____    ______ ____
ROOT
ATOM      1  C   LIG    1       -0.185   0.859  -2.729  0.00  0.00    +0.520 C 
ATOM      2  N   LIG    1       -0.779  -0.151  -2.062  0.00  0.00    -0.610 N 
ATOM      3  C   LIG    1       -0.088  -1.161  -1.241  0.00  0.00    +0.240 C 
ATOM      4  C   LIG    1       -1.159  -1.663  -0.240  0.00  0.00    +0.040 C 
ATOM      5  C   LIG    1       -2.436  -1.657  -1.127  0.00  0.00    +0.040 C 
ATOM      6  C   LIG    1       -2.223  -0.426  -2.034  0.00  0.00    +0.270 C 
ATOM      7  O   LIG    1       -0.856   1.636  -3.376  0.00  0.00    -0.520 OA
ENDROOT
BRANCH   6   8
ATOM      8  C   LIG    1       -2.716  -0.721  -3.427  0.00  0.00    -0.090 A 
ATOM      9  C   LIG    1       -3.889  -0.147  -3.881  0.00  0.00    -0.060 A 
ATOM     10  C   LIG    1       -4.339  -0.414  -5.160  0.00  0.00    -0.010 A 
ATOM     11  C   LIG    1       -3.621  -1.262  -5.982  0.00  0.00    +0.010 A 
ATOM     12  C   LIG    1       -2.451  -1.841  -5.527  0.00  0.00    -0.010 A 
ATOM     13  C   LIG    1       -4.674   0.774  -2.982  0.00  0.00    +0.090 C 
ATOM     14  C   LIG    1       -1.999  -1.570  -4.249  0.00  0.00    -0.070 A 
ATOM     15  C   LIG    1       -0.723  -2.201  -3.752  0.00  0.00    +0.080 C 
ENDBRANCH   6   8
BRANCH   1  16
ATOM     16  C   LIG    1        1.312   1.024  -2.670  0.00  0.00    +0.310 C 
BRANCH  16  18
ATOM     17  C   LIG    1        3.007   2.528  -3.564  0.00  0.00    +0.560 C 
ATOM     18  N   LIG    1        1.707   2.185  -3.470  0.00  0.00    -0.720 N 
ATOM     19  H   LIG    1        1.033   2.708  -3.932  0.00  0.00    +0.410 HD
ATOM     20  O   LIG    1        3.852   1.873  -2.985  0.00  0.00    -0.530 OA
BRANCH  17  27
ATOM     21  C   LIG    1        5.764   3.407  -3.545  0.00  0.00    +0.110 C 
ATOM     22  C   LIG    1        4.733   4.133  -4.371  0.00  0.00    -0.020 A 
ATOM     23  C   LIG    1        5.100   5.224  -5.131  0.00  0.00    +0.000 A 
ATOM     24  C   LIG    1        4.154   5.895  -5.885  0.00  0.00    +0.040 A 
ATOM     25  C   LIG    1        2.836   5.474  -5.887  0.00  0.00    -0.010 A 
ATOM     26  C   LIG    1        2.457   4.381  -5.136  0.00  0.00    +0.050 A 
ATOM     27  C   LIG    1        3.406   3.700  -4.372  0.00  0.00    -0.140 A 
ENDBRANCH  17  27
ENDBRANCH  16  18
ENDBRANCH   1  16
TORSDOF 4
