REMARK  Name = ZINCtV000002w0IM.0
REMARK                            x       y       z     vdW  Elec       q    Type
REMARK                         _______ _______ _______ _____ _____    ______ ____
ROOT
ATOM      1  C   LIG    1       -3.737   3.180   0.115  0.00  0.00    +0.150 A 
ATOM      2  C   LIG    1       -3.624   1.795   0.146  0.00  0.00    -0.060 A 
ATOM      3  C   LIG    1       -4.742   1.007  -0.008  0.00  0.00    +0.090 A 
ATOM      4  C   LIG    1       -5.991   1.601  -0.209  0.00  0.00    -0.170 A 
ATOM      5  C   LIG    1       -6.100   2.994  -0.246  0.00  0.00    +0.130 A 
ATOM      6  C   LIG    1       -4.978   3.775  -0.084  0.00  0.00    -0.010 A 
ENDROOT
BRANCH   4   7
ATOM      7  C   LIG    1       -7.192   0.760  -0.383  0.00  0.00    +0.560 C 
ATOM      8  N   LIG    1       -7.084  -0.583  -0.347  0.00  0.00    -0.720 N 
ATOM      9  H   LIG    1       -6.218  -0.997  -0.207  0.00  0.00    +0.410 HD
ATOM     10  O   LIG    1       -8.277   1.279  -0.558  0.00  0.00    -0.520 OA
BRANCH   8  11
ATOM     11  C   LIG    1       -8.276  -1.418  -0.519  0.00  0.00    +0.250 C 
BRANCH  11  12
ATOM     12  C   LIG    1       -8.542  -1.625  -2.011  0.00  0.00    +0.430 C 
ATOM     13  F   LIG    1       -8.749  -0.385  -2.625  0.00  0.00    -0.170 F 
ATOM     14  F   LIG    1       -9.680  -2.422  -2.176  0.00  0.00    -0.180 F 
ATOM     15  F   LIG    1       -7.441  -2.258  -2.598  0.00  0.00    -0.180 F 
ENDBRANCH  11  12
BRANCH  11  16
ATOM     16  C   LIG    1       -8.050  -2.774   0.152  0.00  0.00    +0.070 C 
BRANCH  16  17
ATOM     17  C   LIG    1       -7.950  -2.583   1.667  0.00  0.00    -0.060 C 
ATOM     18  C   LIG    1       -6.688  -1.784   1.998  0.00  0.00    +0.020 C 
ATOM     19  C   LIG    1       -7.881  -3.951   2.349  0.00  0.00    +0.040 C 
ATOM     20  C   LIG    1       -9.181  -1.825   2.167  0.00  0.00    +0.030 C 
ENDBRANCH  16  17
ENDBRANCH  11  16
ENDBRANCH   8  11
ENDBRANCH   4   7
BRANCH   1  21
ATOM     21  O   LIG    1       -2.634   3.953   0.274  0.00  0.00    -0.250 OA
BRANCH  21  25
ATOM     22  C   LIG    1        1.033   2.075   0.482  0.00  0.00    -0.080 A 
ATOM     23  C   LIG    1        0.317   2.062  -0.701  0.00  0.00    +0.030 A 
ATOM     24  C   LIG    1       -0.909   2.694  -0.775  0.00  0.00    +0.000 A 
ATOM     25  C   LIG    1       -1.426   3.335   0.342  0.00  0.00    +0.070 A 
ATOM     26  C   LIG    1       -0.705   3.347   1.528  0.00  0.00    +0.020 A 
ATOM     27  C   LIG    1        0.523   2.717   1.595  0.00  0.00    +0.030 A 
BRANCH  22  28
ATOM     28  C   LIG    1        2.373   1.389   0.558  0.00  0.00    +0.070 C 
BRANCH  28  30
ATOM     29  C   LIG    1        4.835   1.683   0.254  0.00  0.00    +0.030 C 
ATOM     30  C   LIG    1        3.475   2.379   0.176  0.00  0.00    +0.000 C 
ENDBRANCH  28  30
ENDBRANCH  22  28
ENDBRANCH  21  25
ENDBRANCH   1  21
TORSDOF 9
