REMARK  Name = ZINCrH000004lLqf.0
REMARK                            x       y       z     vdW  Elec       q    Type
REMARK                         _______ _______ _______ _____ _____    ______ ____
ROOT
ATOM      1  C   LIG    1        3.497   3.271   0.152  0.00  0.00    +0.490 C 
ATOM      2  N   LIG    1        2.672   4.331   0.265  0.00  0.00    -0.540 N 
ATOM      3  O   LIG    1        3.060   2.146   0.279  0.00  0.00    -0.480 OA
ENDROOT
BRANCH   2   4
ATOM      4  C   LIG    1        1.326   4.138   0.594  0.00  0.00    +0.150 A 
ATOM      5  C   LIG    1        0.503   5.234   0.824  0.00  0.00    +0.000 A 
ATOM      6  C   LIG    1       -0.828   5.049   1.149  0.00  0.00    +0.050 A 
ATOM      7  C   LIG    1       -1.350   3.776   1.242  0.00  0.00    +0.040 A 
ATOM      8  C   LIG    1       -0.530   2.667   1.019  0.00  0.00    -0.000 A 
ATOM      9  C   LIG    1        0.813   2.854   0.691  0.00  0.00    +0.070 A 
BRANCH   8  10
ATOM     10  C   LIG    1       -1.068   1.344   1.121  0.00  0.00    +0.250 C 
ATOM     11  N   LIG    1       -1.494   0.294   1.201  0.00  0.00    -0.410 NA
ENDBRANCH   8  10
ENDBRANCH   2   4
BRANCH   1  12
ATOM     12  C   LIG    1        4.962   3.482  -0.133  0.00  0.00    +0.170 C 
BRANCH  12  13
ATOM     13  C   LIG    1        5.155   3.776  -1.622  0.00  0.00    -0.020 C 
ATOM     14  C   LIG    1        6.650   4.002  -1.939  0.00  0.00    +0.020 C 
ATOM     15  C   LIG    1        6.995   2.879  -2.942  0.00  0.00    +0.210 C 
ATOM     16  O   LIG    1        5.733   2.526  -3.550  0.00  0.00    -0.370 OA
ATOM     17  C   LIG    1        4.773   2.542  -2.470  0.00  0.00    +0.220 C 
ENDBRANCH  12  13
BRANCH  12  19
ATOM     18  C   LIG    1        6.154   2.289   1.571  0.00  0.00    +0.210 C 
ATOM     19  O   LIG    1        5.690   2.304   0.219  0.00  0.00    -0.350 OA
ENDBRANCH  12  19
ENDBRANCH   1  12
BRANCH   2  20
ATOM     20  C   LIG    1        3.186   5.685   0.044  0.00  0.00    +0.350 C 
BRANCH  20  21
ATOM     21  C   LIG    1        3.676   6.256   1.350  0.00  0.00    -0.110 A 
ATOM     22  C   LIG    1        2.780   6.830   2.233  0.00  0.00    +0.050 A 
ATOM     23  C   LIG    1        3.228   7.349   3.433  0.00  0.00    +0.040 A 
ATOM     24  C   LIG    1        4.575   7.305   3.745  0.00  0.00    -0.030 A 
ATOM     25  C   LIG    1        5.472   6.735   2.859  0.00  0.00    +0.030 A 
ATOM     26 CL   LIG    1        5.139   7.964   5.249  0.00  0.00    -0.060 Cl
ATOM     27  C   LIG    1        5.022   6.211   1.662  0.00  0.00    +0.030 A 
ENDBRANCH  20  21
ENDBRANCH   2  20
TORSDOF 7
