REMARK  Name = ZINCrD00000F5LE4.0
REMARK                            x       y       z     vdW  Elec       q    Type
REMARK                         _______ _______ _______ _____ _____    ______ ____
ROOT
ATOM      1  C   LIG    1       -1.429   4.782  -4.300  0.00  0.00    -0.020 C 
ATOM      2  C   LIG    1       -2.653   5.138  -5.178  0.00  0.00    +0.030 C 
ATOM      3  C   LIG    1       -2.539   4.106  -6.329  0.00  0.00    +0.210 C 
ATOM      4  O   LIG    1       -2.064   2.914  -5.666  0.00  0.00    -0.360 OA
ATOM      5  C   LIG    1       -1.087   3.333  -4.699  0.00  0.00    +0.270 C 
ENDROOT
BRANCH   5   6
ATOM      6  C   LIG    1       -1.150   2.439  -3.487  0.00  0.00    -0.240 A 
ATOM      7  C   LIG    1       -0.106   2.087  -2.703  0.00  0.00    +0.240 A 
ATOM      8  N   LIG    1       -0.577   1.281  -1.728  0.00  0.00    -0.370 N 
ATOM      9  N   LIG    1       -1.956   1.129  -1.923  0.00  0.00    -0.290 NA
ATOM     10  C   LIG    1       -2.299   1.828  -2.974  0.00  0.00    +0.250 A 
BRANCH   8  11
ATOM     11  C   LIG    1        0.215   0.668  -0.659  0.00  0.00    +0.390 C 
BRANCH  11  12
ATOM     12  C   LIG    1       -0.378   1.033   0.678  0.00  0.00    -0.110 A 
ATOM     13  C   LIG    1        0.049   2.170   1.336  0.00  0.00    +0.020 A 
ATOM     14  C   LIG    1       -0.498   2.507   2.560  0.00  0.00    +0.000 A 
ATOM     15  C   LIG    1       -1.466   1.702   3.130  0.00  0.00    +0.010 A 
ATOM     16  C   LIG    1       -1.890   0.561   2.474  0.00  0.00    +0.010 A 
ATOM     17  C   LIG    1       -1.346   0.226   1.248  0.00  0.00    +0.040 A 
ENDBRANCH  11  12
ENDBRANCH   8  11
ENDBRANCH   5   6
BRANCH   1  20
ATOM     18  N   LIG    1       -0.368   7.016  -4.334  0.00  0.00    -0.670 N 
ATOM     19  H   LIG    1       -1.204   7.386  -4.011  0.00  0.00    +0.420 HD
ATOM     20  C   LIG    1       -0.274   5.700  -4.608  0.00  0.00    +0.530 C 
ATOM     21  O   LIG    1        0.740   5.254  -5.103  0.00  0.00    -0.510 OA
BRANCH  18  25
ATOM     22  C   LIG    1        4.503   7.718  -4.300  0.00  0.00    +0.130 C 
ATOM     23  C   LIG    1        3.099   8.223  -4.510  0.00  0.00    +0.150 A 
ATOM     24  C   LIG    1        2.032   7.371  -4.314  0.00  0.00    -0.040 A 
ATOM     25  C   LIG    1        0.738   7.848  -4.517  0.00  0.00    +0.190 A 
ATOM     26  C   LIG    1        0.577   9.178  -4.901  0.00  0.00    -0.070 A 
ATOM     27  C   LIG    1        1.696   9.966  -5.071  0.00  0.00    +0.290 A 
ATOM     28  N   LIG    1        2.905   9.476  -4.874  0.00  0.00    -0.500 NA
ENDBRANCH  18  25
ENDBRANCH   1  20
TORSDOF 5
