REMARK  Name = ZINCrD00000F5Lzt.2
REMARK                            x       y       z     vdW  Elec       q    Type
REMARK                         _______ _______ _______ _____ _____    ______ ____
ROOT
ATOM      1  N   LIG    1       -0.034   1.073  -2.143  0.00  0.00    -0.530 NA
ENDROOT
BRANCH   1   2
ATOM      2  C   LIG    1       -0.560   1.496  -0.839  0.00  0.00    +0.180 C 
BRANCH   2   3
ATOM      3  C   LIG    1        0.336   0.951   0.275  0.00  0.00    +0.090 C 
BRANCH   3   8
ATOM      4  C   LIG    1       -1.735   2.617   5.407  0.00  0.00    +0.100 C 
ATOM      5  C   LIG    1       -1.196   2.182   4.069  0.00  0.00    -0.060 A 
ATOM      6  C   LIG    1       -0.205   2.920   3.450  0.00  0.00    +0.000 A 
ATOM      7  C   LIG    1        0.295   2.518   2.225  0.00  0.00    +0.050 A 
ATOM      8  C   LIG    1       -0.204   1.385   1.613  0.00  0.00    -0.120 A 
ATOM      9  C   LIG    1       -1.197   0.644   2.232  0.00  0.00    +0.110 A 
ATOM     10  F   LIG    1       -1.682  -0.468   1.637  0.00  0.00    -0.130 F 
ATOM     11  C   LIG    1       -1.693   1.044   3.461  0.00  0.00    -0.030 A 
ENDBRANCH   3   8
ENDBRANCH   2   3
ENDBRANCH   1   2
BRANCH   1  12
ATOM     12  C   LIG    1       -0.989   1.372  -3.218  0.00  0.00    +0.190 C 
BRANCH  12  13
ATOM     13  C   LIG    1       -2.127   0.350  -3.188  0.00  0.00    +0.000 C 
ATOM     14  C   LIG    1       -3.168   0.706  -4.257  0.00  0.00    +0.030 C 
ATOM     15  C   LIG    1       -4.377  -0.215  -4.088  0.00  0.00    +0.270 C 
ATOM     16  N   LIG    1       -3.952  -1.608  -4.025  0.00  0.00    -0.610 N 
ATOM     17  C   LIG    1       -2.709  -1.999  -3.741  0.00  0.00    +0.510 C 
ATOM     18  O   LIG    1       -2.482  -3.188  -3.677  0.00  0.00    -0.560 OA
ATOM     19  C   LIG    1       -4.953  -2.644  -4.292  0.00  0.00    +0.280 C 
ATOM     20  C   LIG    1       -1.576  -1.044  -3.495  0.00  0.00    +0.090 C 
ENDBRANCH  12  13
ENDBRANCH   1  12
BRANCH   1  21
ATOM     21  C   LIG    1        1.271   1.693  -2.410  0.00  0.00    +0.270 C 
BRANCH  21  22
ATOM     22  C   LIG    1        1.949   0.968  -3.543  0.00  0.00    -0.010 A 
ATOM     23  C   LIG    1        2.754  -0.102  -3.431  0.00  0.00    -0.020 A 
ATOM     24  O   LIG    1        3.143  -0.438  -4.676  0.00  0.00    -0.200 OA
ATOM     25  C   LIG    1        2.582   0.430  -5.528  0.00  0.00    +0.420 A 
ATOM     26  C   LIG    1        3.145  -0.798  -2.152  0.00  0.00    +0.190 C 
ATOM     27  N   LIG    1        1.863   1.278  -4.849  0.00  0.00    -0.480 NA
ENDBRANCH  21  22
ENDBRANCH   1  21
TORSDOF 7
