REMARK  Name = ZINCrD00000F5Lok.0
REMARK                            x       y       z     vdW  Elec       q    Type
REMARK                         _______ _______ _______ _____ _____    ______ ____
ROOT
ATOM      1  C   LIG    1       -2.371  -2.813   0.438  0.00  0.00    +0.380 C 
ATOM      2  O   LIG    1       -3.039  -2.279  -0.425  0.00  0.00    -0.480 OA
ENDROOT
BRANCH   1  15
ATOM      3  C   LIG    1       -5.140  -2.514   0.068  0.00  0.00    +0.330 C 
ATOM      4  N   LIG    1       -5.034  -3.973   0.149  0.00  0.00    -0.500 N 
ATOM      5  C   LIG    1       -6.067  -4.849  -0.179  0.00  0.00    +0.130 A 
ATOM      6  C   LIG    1       -7.361  -4.599  -0.631  0.00  0.00    -0.010 A 
ATOM      7  C   LIG    1       -8.220  -5.648  -0.888  0.00  0.00    +0.050 A 
ATOM      8  C   LIG    1       -7.805  -6.953  -0.700  0.00  0.00    -0.010 A 
ATOM      9  C   LIG    1       -6.521  -7.210  -0.251  0.00  0.00    +0.070 A 
ATOM     10  C   LIG    1       -5.661  -6.165   0.006  0.00  0.00    -0.130 A 
ATOM     11  C   LIG    1       -4.231  -6.112   0.493  0.00  0.00    -0.010 C 
ATOM     12  C   LIG    1       -4.116  -6.737   1.885  0.00  0.00    +0.070 C 
ATOM     13  C   LIG    1       -3.303  -6.822  -0.494  0.00  0.00    +0.070 C 
ATOM     14  C   LIG    1       -3.914  -4.633   0.549  0.00  0.00    +0.280 C 
ATOM     15  C   LIG    1       -2.740  -4.073   0.931  0.00  0.00    -0.230 C 
ENDBRANCH   1  15
BRANCH   1  16
ATOM     16  C   LIG    1       -1.146  -2.122   0.979  0.00  0.00    +0.200 C 
BRANCH  16  17
ATOM     17  O   LIG    1       -0.982  -0.863   0.324  0.00  0.00    -0.290 OA
BRANCH  17  18
ATOM     18  C   LIG    1        0.084  -0.107   0.698  0.00  0.00    +0.110 A 
ATOM     19  C   LIG    1        0.954  -0.569   1.675  0.00  0.00    -0.020 A 
ATOM     20  C   LIG    1        2.038   0.201   2.053  0.00  0.00    +0.040 A 
ATOM     21  C   LIG    1        2.254   1.431   1.459  0.00  0.00    +0.080 A 
ATOM     22  C   LIG    1        1.389   1.893   0.485  0.00  0.00    -0.620 A 
ATOM     23  C   LIG    1        0.304   1.127   0.103  0.00  0.00    +0.090 A 
BRANCH  22  24
ATOM     24  S   LIG    1        1.669   3.460  -0.271  0.00  0.00    +2.500 S 
ATOM     25  O   LIG    1        1.055   3.349  -1.547  0.00  0.00    -0.930 OA
ATOM     26  O   LIG    1        3.070   3.663  -0.146  0.00  0.00    -0.930 OA
ATOM     27  C   LIG    1        0.761   4.634   0.772  0.00  0.00    -0.260 C 
ENDBRANCH  22  24
ENDBRANCH  17  18
ENDBRANCH  16  17
ENDBRANCH   1  16
TORSDOF 5
