REMARK  Name = ZINCpe000000SxAo.0
REMARK                            x       y       z     vdW  Elec       q    Type
REMARK                         _______ _______ _______ _____ _____    ______ ____
ROOT
ATOM      1  C   LIG    1       -0.013   1.086   0.008  0.00  0.00    +0.220 C 
ENDROOT
BRANCH   1   2
ATOM      2  O   LIG    1       -0.704   1.559  -1.150  0.00  0.00    -0.530 OA
ATOM      3  H   LIG    1       -0.756   2.523  -1.210  0.00  0.00    +0.380 HD
ENDBRANCH   1   2
BRANCH   1   4
ATOM      4  C   LIG    1       -0.729   1.579   1.267  0.00  0.00    +0.310 C 
BRANCH   4   7
ATOM      5  C   LIG    1       -3.811  -0.099   2.023  0.00  0.00    -0.040 A 
ATOM      6  C   LIG    1       -2.556   0.265   2.378  0.00  0.00    +0.140 A 
ATOM      7  N   LIG    1       -2.062   0.977   1.338  0.00  0.00    -0.290 N 
ATOM      8  N   LIG    1       -2.967   1.037   0.425  0.00  0.00    -0.050 NA
ATOM      9  N   LIG    1       -4.020   0.401   0.800  0.00  0.00    -0.250 NA
BRANCH   5  10
ATOM     10  C   LIG    1       -4.781  -0.908   2.845  0.00  0.00    +0.250 C 
ATOM     11  C   LIG    1       -6.036  -1.194   2.017  0.00  0.00    +0.090 C 
BRANCH  10  13
ATOM     12  C   LIG    1       -4.911  -0.632   5.267  0.00  0.00    +0.030 C 
ATOM     13  C   LIG    1       -5.160  -0.135   4.081  0.00  0.00    -0.060 C 
ENDBRANCH  10  13
BRANCH  10  14
ATOM     14  O   LIG    1       -4.169  -2.143   3.224  0.00  0.00    -0.540 OA
ATOM     15  H   LIG    1       -3.366  -2.038   3.752  0.00  0.00    +0.370 HD
ENDBRANCH  10  14
ENDBRANCH   5  10
ENDBRANCH   4   7
ENDBRANCH   1   4
BRANCH   1  16
ATOM     16  C   LIG    1        1.423   1.615  -0.003  0.00  0.00    +0.190 C 
BRANCH  16  17
ATOM     17  O   LIG    1        2.126   1.061  -1.116  0.00  0.00    -0.290 OA
BRANCH  17  18
ATOM     18  C   LIG    1        3.422   1.432  -1.272  0.00  0.00    +0.170 A 
ATOM     19  C   LIG    1        4.003   2.318  -0.372  0.00  0.00    -0.090 A 
ATOM     20  C   LIG    1        5.319   2.692  -0.523  0.00  0.00    +0.120 A 
ATOM     21  C   LIG    1        6.069   2.189  -1.591  0.00  0.00    -0.170 A 
ATOM     22  C   LIG    1        5.479   1.303  -2.497  0.00  0.00    +0.140 A 
ATOM     23  C   LIG    1        4.164   0.929  -2.335  0.00  0.00    -0.020 A 
BRANCH  21  24
ATOM     24  C   LIG    1        7.477   2.592  -1.761  0.00  0.00    +0.510 C 
ATOM     25  O   LIG    1        8.127   2.154  -2.689  0.00  0.00    -0.510 OA
BRANCH  24  26
ATOM     26  O   LIG    1        8.043   3.447  -0.886  0.00  0.00    -0.360 OA
ATOM     27  C   LIG    1        9.433   3.800  -1.115  0.00  0.00    +0.260 C 
ENDBRANCH  24  26
ENDBRANCH  21  24
ENDBRANCH  17  18
ENDBRANCH  16  17
ENDBRANCH   1  16
TORSDOF 11
