REMARK  Name = ZINCrD00000F5LlA.0
REMARK                            x       y       z     vdW  Elec       q    Type
REMARK                         _______ _______ _______ _____ _____    ______ ____
ROOT
ATOM      1  C   LIG    1        4.697   5.663  -1.292  0.00  0.00    +0.260 C 
ATOM      2  C   LIG    1        3.250   5.854  -1.761  0.00  0.00    +0.130 C 
ATOM      3  S   LIG    1        2.466   4.236  -1.481  0.00  0.00    -0.110 S 
ATOM      4  C   LIG    1        3.898   3.442  -0.817  0.00  0.00    +0.390 C 
ATOM      5  N   LIG    1        3.955   2.197  -0.408  0.00  0.00    -0.460 NA
ATOM      6  N   LIG    1        4.936   4.325  -0.802  0.00  0.00    -0.530 N 
ATOM      7  C   LIG    1        6.151   3.960  -0.344  0.00  0.00    +0.610 C 
ATOM      8  O   LIG    1        6.303   2.872   0.173  0.00  0.00    -0.420 OA
ENDROOT
BRANCH   7   9
ATOM      9  C   LIG    1        7.299   4.886  -0.473  0.00  0.00    +0.240 A 
ATOM     10  N   LIG    1        8.495   4.697   0.053  0.00  0.00    -0.260 NA
ATOM     11  N   LIG    1        9.278   5.802  -0.306  0.00  0.00    -0.330 N 
ATOM     12  C   LIG    1       10.570   6.150  -0.055  0.00  0.00    +0.210 A 
ATOM     13  C   LIG    1       11.047   7.317  -0.556  0.00  0.00    -0.040 A 
ATOM     14  C   LIG    1       10.199   8.133  -1.319  0.00  0.00    +0.240 A 
ATOM     15  N   LIG    1        8.957   7.771  -1.544  0.00  0.00    -0.460 NA
ATOM     16  C   LIG    1       10.716   9.431  -1.882  0.00  0.00    +0.170 C 
ATOM     17  C   LIG    1       11.457   5.252   0.768  0.00  0.00    +0.160 C 
ATOM     18  C   LIG    1        8.476   6.621  -1.054  0.00  0.00    +0.450 A 
ATOM     19  N   LIG    1        7.288   6.041  -1.143  0.00  0.00    -0.490 NA
ENDBRANCH   7   9
BRANCH   5  20
ATOM     20  C   LIG    1        2.841   1.403  -0.472  0.00  0.00    +0.100 A 
ATOM     21  C   LIG    1        1.604   1.896  -0.050  0.00  0.00    -0.020 A 
ATOM     22  C   LIG    1        0.485   1.091  -0.118  0.00  0.00    +0.030 A 
ATOM     23  C   LIG    1        0.587  -0.200  -0.604  0.00  0.00    -0.010 A 
ATOM     24  C   LIG    1        1.809  -0.695  -1.023  0.00  0.00    +0.020 A 
ATOM     25  C   LIG    1        2.936   0.099  -0.961  0.00  0.00    +0.030 A 
ENDBRANCH   5  20
BRANCH   1  27
ATOM     26  C   LIG    1        4.898   8.088  -0.724  0.00  0.00    +0.050 C 
ATOM     27  C   LIG    1        4.993   6.663  -0.173  0.00  0.00    +0.010 C 
ENDBRANCH   1  27
TORSDOF 3
