REMARK  Name = ZINCrH000004swcl.0
REMARK                            x       y       z     vdW  Elec       q    Type
REMARK                         _______ _______ _______ _____ _____    ______ ____
ROOT
ATOM      1  C   LIG    1       10.444   2.385   0.271  0.00  0.00    +0.110 C 
ATOM      2  C   LIG    1       10.187   0.963  -0.232  0.00  0.00    +0.040 C 
ATOM      3  C   LIG    1        8.715   0.603  -0.020  0.00  0.00    +0.040 C 
ATOM      4  C   LIG    1        7.837   1.566  -0.826  0.00  0.00    +0.280 C 
ATOM      5  N   LIG    1        8.181   2.945  -0.452  0.00  0.00    -0.610 N 
ATOM      6  C   LIG    1        7.226   3.804  -0.044  0.00  0.00    +0.600 C 
ATOM      7  O   LIG    1        6.088   3.411   0.131  0.00  0.00    -0.520 OA
ATOM      8  C   LIG    1        9.585   3.370  -0.536  0.00  0.00    +0.270 C 
ENDROOT
BRANCH   6   9
ATOM      9  C   LIG    1        7.559   5.211   0.190  0.00  0.00    -0.270 A 
ATOM     10  C   LIG    1        6.962   6.016   1.119  0.00  0.00    +0.130 A 
ATOM     11  C   LIG    1        7.428   7.300   1.167  0.00  0.00    -0.170 A 
ATOM     12  C   LIG    1        8.441   7.553   0.252  0.00  0.00    -0.130 A 
ATOM     13  C   LIG    1        9.057   8.893   0.182  0.00  0.00    -0.100 A 
ATOM     14  C   LIG    1        9.855   9.303  -0.873  0.00  0.00    +0.060 A 
ATOM     15  C   LIG    1       10.366  10.588  -0.880  0.00  0.00    -0.010 A 
ATOM     16  C   LIG    1       10.079  11.453   0.162  0.00  0.00    +0.070 A 
ATOM     17  C   LIG    1        9.290  11.049   1.222  0.00  0.00    +0.000 A 
ATOM     18  C   LIG    1        8.774   9.765   1.252  0.00  0.00    +0.150 A 
ATOM     19  O   LIG    1        8.026   9.335   2.296  0.00  0.00    -0.310 OA
ATOM     20  C   LIG    1        6.955   8.414   2.088  0.00  0.00    +0.340 C 
ATOM     21  S   LIG    1        8.786   6.120  -0.683  0.00  0.00    +0.220 S 
ENDBRANCH   6   9
BRANCH   1  26
ATOM     22  C   LIG    1       14.860   3.884  -1.671  0.00  0.00    +0.200 C 
ATOM     23  C   LIG    1       13.793   3.369  -0.740  0.00  0.00    +0.180 A 
ATOM     24  N   LIG    1       13.963   2.992   0.498  0.00  0.00    -0.290 NA
ATOM     25  N   LIG    1       12.839   2.610   0.993  0.00  0.00    -0.280 NA
ATOM     26  C   LIG    1       11.901   2.727   0.093  0.00  0.00    +0.180 A 
ATOM     27  N   LIG    1       12.480   3.208  -1.034  0.00  0.00    -0.580 N 
ATOM     28  H   LIG    1       12.044   3.399  -1.879  0.00  0.00    +0.430 HD
ENDBRANCH   1  26
TORSDOF 2
