REMARK  Name = ZINCrD000000AQY0.0
REMARK                            x       y       z     vdW  Elec       q    Type
REMARK                         _______ _______ _______ _____ _____    ______ ____
ROOT
ATOM      1  O   LIG    1       -2.037  -2.101   2.817  0.00  0.00    -0.530 OA
ATOM      2  C   LIG    1       -1.186  -1.885   1.980  0.00  0.00    +0.520 C 
ATOM      3  N   LIG    1       -1.337  -0.864   1.113  0.00  0.00    -0.730 N 
ATOM      4  H   LIG    1       -0.656  -0.691   0.444  0.00  0.00    +0.400 HD
ENDROOT
BRANCH   2   5
ATOM      5  C   LIG    1        0.041  -2.758   1.910  0.00  0.00    +0.000 C 
ATOM      6  C   LIG    1       -0.036  -3.835   2.996  0.00  0.00    +0.050 C 
ATOM      7  C   LIG    1        1.183  -4.754   2.878  0.00  0.00    +0.040 C 
ATOM      8  C   LIG    1        1.222  -5.367   1.476  0.00  0.00    +0.190 C 
ATOM      9  N   LIG    1        1.296  -4.295   0.475  0.00  0.00    -0.470 N 
ATOM     10  C   LIG    1        0.113  -3.428   0.536  0.00  0.00    +0.230 C 
BRANCH   9  11
ATOM     11  C   LIG    1        1.465  -4.818  -0.802  0.00  0.00    +0.260 A 
ATOM     12  C   LIG    1        2.538  -5.665  -1.074  0.00  0.00    +0.210 A 
ATOM     13  N   LIG    1        2.691  -6.162  -2.286  0.00  0.00    -0.420 NA
ATOM     14  C   LIG    1        1.835  -5.851  -3.245  0.00  0.00    +0.190 A 
ATOM     15  C   LIG    1        0.773  -5.007  -2.980  0.00  0.00    +0.250 A 
ATOM     16  N   LIG    1        0.609  -4.508  -1.767  0.00  0.00    -0.480 NA
ENDBRANCH   9  11
ENDBRANCH   2   5
BRANCH   3  17
ATOM     17  C   LIG    1       -2.529  -0.016   1.181  0.00  0.00    +0.280 C 
BRANCH  17  18
ATOM     18  C   LIG    1       -2.505   0.991   0.030  0.00  0.00    -0.030 C 
ATOM     19  C   LIG    1       -2.416   0.249  -1.319  0.00  0.00    +0.020 C 
ATOM     20  C   LIG    1       -3.887   0.151  -1.796  0.00  0.00    +0.020 C 
ATOM     21  C   LIG    1       -4.480   1.514  -1.360  0.00  0.00    +0.020 C 
ATOM     22  C   LIG    1       -3.817   1.795   0.004  0.00  0.00    +0.030 C 
BRANCH  18  23
ATOM     23  C   LIG    1       -1.331   1.924   0.184  0.00  0.00    -0.070 A 
ATOM     24  C   LIG    1       -1.061   2.864  -0.793  0.00  0.00    +0.010 A 
ATOM     25  C   LIG    1        0.012   3.723  -0.648  0.00  0.00    +0.000 A 
ATOM     26  C   LIG    1        0.819   3.638   0.471  0.00  0.00    +0.000 A 
ATOM     27  C   LIG    1        0.552   2.695   1.446  0.00  0.00    +0.000 A 
ATOM     28  C   LIG    1       -0.521   1.837   1.301  0.00  0.00    +0.010 A 
ENDBRANCH  18  23
ENDBRANCH  17  18
ENDBRANCH   3  17
TORSDOF 5
