REMARK  Name = ZINCb800000010HP.0
REMARK                            x       y       z     vdW  Elec       q    Type
REMARK                         _______ _______ _______ _____ _____    ______ ____
ROOT
ATOM      1  C   LIG    1        1.231   1.468   2.669  0.00  0.00    +0.080 C 
ATOM      2  C   LIG    1       -0.223   1.771   2.415  0.00  0.00    +0.520 C 
ATOM      3  N   LIG    1       -0.746   1.583   1.187  0.00  0.00    -0.620 N 
ATOM      4  C   LIG    1       -0.013   1.086   0.008  0.00  0.00    +0.250 C 
ATOM      5  C   LIG    1       -0.806   1.621  -1.210  0.00  0.00    +0.040 C 
ATOM      6  C   LIG    1       -2.269   1.504  -0.705  0.00  0.00    -0.010 C 
ATOM      7  C   LIG    1       -3.169   2.518  -1.414  0.00  0.00    +0.040 C 
ATOM      8  C   LIG    1       -2.143   1.837   0.797  0.00  0.00    +0.220 C 
ATOM      9  O   LIG    1       -0.922   2.186   3.314  0.00  0.00    -0.500 OA
ENDROOT
BRANCH   8  10
ATOM     10  C   LIG    1       -3.081   0.941   1.609  0.00  0.00    +0.150 C 
BRANCH  10  11
ATOM     11  O   LIG    1       -3.045   1.334   2.982  0.00  0.00    -0.540 OA
ATOM     12  H   LIG    1       -3.617   0.808   3.557  0.00  0.00    +0.370 HD
ENDBRANCH  10  11
ENDBRANCH   8  10
TORSDOF 2
