REMARK  Name = ZINCpk00000xK1t4.0
REMARK                            x       y       z     vdW  Elec       q    Type
REMARK                         _______ _______ _______ _____ _____    ______ ____
ROOT
ATOM      1  C   LIG    1       -2.696  -1.981  -1.741  0.00  0.00    +0.220 C 
ENDROOT
BRANCH   1   2
ATOM      2  C   LIG    1       -3.028  -2.147  -3.201  0.00  0.00    -0.040 A 
ATOM      3  C   LIG    1       -3.912  -1.278  -3.812  0.00  0.00    -0.030 A 
ATOM      4  C   LIG    1       -4.215  -1.425  -5.153  0.00  0.00    +0.050 A 
ATOM      5  C   LIG    1       -3.642  -2.448  -5.884  0.00  0.00    -0.080 A 
ATOM      6  C   LIG    1       -2.758  -3.325  -5.272  0.00  0.00    +0.130 A 
ATOM      7  C   LIG    1       -2.452  -3.172  -3.927  0.00  0.00    +0.010 A 
BRANCH   6   8
ATOM      8  O   LIG    1       -2.193  -4.332  -5.988  0.00  0.00    -0.290 OA
BRANCH   8   9
ATOM      9  C   LIG    1       -2.554  -4.429  -7.367  0.00  0.00    +0.220 C 
BRANCH   9  10
ATOM     10  C   LIG    1       -1.836  -5.596  -7.994  0.00  0.00    +0.510 C 
ATOM     11  N   LIG    1       -2.024  -5.883  -9.297  0.00  0.00    -0.620 N 
ATOM     12  C   LIG    1       -2.927  -5.059 -10.105  0.00  0.00    +0.280 C 
ATOM     13  C   LIG    1       -1.325  -7.017  -9.906  0.00  0.00    +0.300 C 
ATOM     14  O   LIG    1       -1.088  -6.278  -7.325  0.00  0.00    -0.510 OA
ENDBRANCH   9  10
ENDBRANCH   8   9
ENDBRANCH   6   8
ENDBRANCH   1   2
BRANCH   1  15
ATOM     15  N   LIG    1       -1.532  -1.096  -1.601  0.00  0.00    -0.680 NA
ATOM     16  H   LIG    1       -1.696  -0.209  -2.052  0.00  0.00    +0.340 HD
BRANCH  15  17
ATOM     17  C   LIG    1       -1.179  -0.911  -0.187  0.00  0.00    +0.250 C 
BRANCH  17  19
ATOM     18  C   LIG    1       -0.016   1.355   0.025  0.00  0.00    +0.260 A 
ATOM     19  C   LIG    1        0.017   0.001  -0.083  0.00  0.00    -0.230 A 
ATOM     20  C   LIG    1        1.357  -0.397  -0.080  0.00  0.00    +0.100 A 
ATOM     21  N   LIG    1        2.103   0.673   0.025  0.00  0.00    -0.280 NA
ATOM     22  C   LIG    1        1.858  -1.815  -0.179  0.00  0.00    +0.160 C 
ATOM     23  N   LIG    1        1.261   1.791   0.093  0.00  0.00    -0.380 N 
ATOM     24  C   LIG    1        1.691   3.187   0.215  0.00  0.00    +0.350 C 
BRANCH  18  26
ATOM     25  C   LIG    1       -1.637   2.491   1.339  0.00  0.00    +0.240 C 
ATOM     26  O   LIG    1       -1.130   2.131   0.052  0.00  0.00    -0.310 OA
ENDBRANCH  18  26
ENDBRANCH  17  19
ENDBRANCH  15  17
ENDBRANCH   1  15
TORSDOF 8
