REMARK  Name = ZINCpk000004I3xF.0
REMARK                            x       y       z     vdW  Elec       q    Type
REMARK                         _______ _______ _______ _____ _____    ______ ____
ROOT
ATOM      1  C   LIG    1       -4.726   7.093   0.520  0.00  0.00    +0.540 C 
ATOM      2  N   LIG    1       -4.034   5.948   0.685  0.00  0.00    -0.620 N 
ATOM      3  C   LIG    1       -4.460   4.799   1.498  0.00  0.00    +0.240 C 
ATOM      4  C   LIG    1       -3.369   3.715   1.366  0.00  0.00    +0.040 C 
ATOM      5  C   LIG    1       -2.663   4.092   0.037  0.00  0.00    -0.020 C 
ATOM      6  C   LIG    1       -2.726   5.639   0.080  0.00  0.00    +0.260 C 
ATOM      7  O   LIG    1       -4.276   7.978  -0.176  0.00  0.00    -0.530 OA
ENDROOT
BRANCH   1  10
ATOM      8  C   LIG    1       -8.053   7.874   0.819  0.00  0.00    -0.010 C 
ATOM      9  C   LIG    1       -6.718   8.632   0.913  0.00  0.00    +0.060 C 
ATOM     10  C   LIG    1       -6.058   7.273   1.202  0.00  0.00    -0.030 C 
ATOM     11  C   LIG    1       -7.230   6.631   0.442  0.00  0.00    +0.030 C 
BRANCH   8  13
ATOM     12  C   LIG    1      -10.257   7.557  -0.315  0.00  0.00    +0.000 C 
ATOM     13  C   LIG    1       -8.962   8.372  -0.307  0.00  0.00    -0.020 C 
ATOM     14  C   LIG    1       -9.290   9.850  -0.082  0.00  0.00    +0.010 C 
ENDBRANCH   8  13
ENDBRANCH   1  10
BRANCH   5  15
ATOM     15  C   LIG    1       -1.214   3.602   0.027  0.00  0.00    +0.290 C 
BRANCH  15  16
ATOM     16  N   LIG    1       -1.194   2.137   0.019  0.00  0.00    -0.710 N 
ATOM     17  H   LIG    1       -2.028   1.641   0.021  0.00  0.00    +0.410 HD
ATOM     18  C   LIG    1       -0.018   1.479   0.010  0.00  0.00    +0.600 C 
ATOM     19  O   LIG    1        1.026   2.101   0.004  0.00  0.00    -0.520 OA
BRANCH  18  20
ATOM     20  C   LIG    1        0.002  -0.004   0.002  0.00  0.00    -0.030 A 
ATOM     21  N   LIG    1       -1.034  -0.805   0.007  0.00  0.00    -0.330 NA
ATOM     22  O   LIG    1       -0.695  -1.966  -0.002  0.00  0.00    +0.130 OA
ATOM     23  C   LIG    1        0.639  -2.096  -0.015  0.00  0.00    -0.030 A 
ATOM     24  C   LIG    1        1.151  -0.844  -0.019  0.00  0.00    +0.030 A 
BRANCH  23  25
ATOM     25  C   LIG    1        1.417  -3.386  -0.029  0.00  0.00    +0.330 C 
BRANCH  25  26
ATOM     26  O   LIG    1        1.675  -3.802   1.313  0.00  0.00    -0.570 OA
ATOM     27  H   LIG    1        2.174  -4.628   1.380  0.00  0.00    +0.400 HD
ENDBRANCH  25  26
ENDBRANCH  23  25
ENDBRANCH  18  20
ENDBRANCH  15  16
ENDBRANCH   5  15
TORSDOF 7
