REMARK  Name = ZINCkj000005lqn7.0
REMARK                            x       y       z     vdW  Elec       q    Type
REMARK                         _______ _______ _______ _____ _____    ______ ____
ROOT
ATOM      1  S   LIG    1       -3.704  -0.171   3.354  0.00  0.00    +2.710 S 
ATOM      2  O   LIG    1       -3.318  -0.789   4.573  0.00  0.00    -0.920 OA
ATOM      3  O   LIG    1       -4.311  -0.879   2.281  0.00  0.00    -0.940 OA
ENDROOT
BRANCH   1   4
ATOM      4  C   LIG    1       -4.816   1.127   3.784  0.00  0.00    -0.690 A 
ATOM      5  C   LIG    1       -6.016   1.260   3.114  0.00  0.00    +0.170 A 
ATOM      6  C   LIG    1       -6.891   2.274   3.456  0.00  0.00    +0.000 A 
ATOM      7  C   LIG    1       -6.562   3.166   4.460  0.00  0.00    +0.140 A 
ATOM      8  C   LIG    1       -5.360   3.041   5.129  0.00  0.00    -0.060 A 
ATOM      9  C   LIG    1       -4.483   2.021   4.792  0.00  0.00    +0.200 A 
BRANCH   9  10
ATOM     10  O   LIG    1       -3.300   1.895   5.449  0.00  0.00    -0.320 OA
BRANCH  10  11
ATOM     11  C   LIG    1       -3.023   2.850   6.476  0.00  0.00    +0.610 C 
ATOM     12  F   LIG    1       -3.014   4.137   5.925  0.00  0.00    -0.160 F 
ATOM     13  F   LIG    1       -1.774   2.577   7.043  0.00  0.00    -0.120 F 
ATOM     14  F   LIG    1       -4.012   2.773   7.463  0.00  0.00    -0.150 F 
ENDBRANCH  10  11
ENDBRANCH   9  10
ENDBRANCH   1   4
BRANCH   1  18
ATOM     15  C   LIG    1       -0.699   1.479   1.216  0.00  0.00    +0.170 C 
ATOM     16  C   LIG    1        0.007   0.950   2.493  0.00  0.00    +0.070 C 
ATOM     17  C   LIG    1       -1.157   0.947   3.514  0.00  0.00    +0.300 C 
ATOM     18  N   LIG    1       -2.340   0.536   2.736  0.00  0.00    -1.010 NA
ATOM     19  C   LIG    1       -2.109   0.860   1.320  0.00  0.00    +0.300 C 
BRANCH  15  20
ATOM     20  N   LIG    1       -0.012   1.005   0.008  0.00  0.00    -0.630 N 
ATOM     21  H   LIG    1       -0.500   1.339  -0.810  0.00  0.00    +0.440 HD
ATOM     22  H   LIG    1        0.935   1.354   0.000  0.00  0.00    +0.440 HD
ATOM     23  H   LIG    1        0.002  -0.004   0.002  0.00  0.00    +0.440 HD
ENDBRANCH  15  20
ENDBRANCH   1  18
TORSDOF 5
