REMARK  Name = ZINCpe00000bMAvy.0
REMARK                            x       y       z     vdW  Elec       q    Type
REMARK                         _______ _______ _______ _____ _____    ______ ____
ROOT
ATOM      1  C   LIG    1        0.054  -0.222   0.093  0.00  0.00    +0.560 C 
ATOM      2  N   LIG    1        0.449  -1.064   1.068  0.00  0.00    -0.650 N 
ATOM      3  C   LIG    1        1.064  -0.930   2.397  0.00  0.00    +0.310 C 
ATOM      4  C   LIG    1        0.390  -2.258   2.780  0.00  0.00    +0.170 C 
ATOM      5  F   LIG    1       -0.910  -2.128   3.280  0.00  0.00    -0.160 F 
ATOM      6  C   LIG    1        0.461  -2.520   1.269  0.00  0.00    +0.320 C 
ATOM      7  O   LIG    1        0.262   0.968   0.198  0.00  0.00    -0.530 OA
ENDROOT
BRANCH   4   8
ATOM      8  C   LIG    1        1.258  -3.172   3.607  0.00  0.00    -0.040 A 
ATOM      9  C   LIG    1        1.318  -3.227   4.959  0.00  0.00    +0.210 A 
ATOM     10  N   LIG    1        2.230  -4.191   5.256  0.00  0.00    -0.220 N 
ATOM     11  N   LIG    1        2.678  -4.673   4.149  0.00  0.00    -0.050 NA
ATOM     12  N   LIG    1        2.115  -4.091   3.150  0.00  0.00    -0.230 NA
BRANCH  10  13
ATOM     13  C   LIG    1        2.616  -4.592   6.545  0.00  0.00    +0.280 A 
ATOM     14  N   LIG    1        2.159  -4.102   7.673  0.00  0.00    -0.280 NA
ATOM     15  N   LIG    1        2.794  -4.770   8.728  0.00  0.00    -0.350 N 
ATOM     16  C   LIG    1        3.645  -5.674   8.198  0.00  0.00    +0.270 A 
ATOM     17  C   LIG    1        2.574  -4.529  10.156  0.00  0.00    +0.380 C 
ATOM     18  C   LIG    1        3.553  -5.591   6.852  0.00  0.00    -0.070 A 
ENDBRANCH  10  13
ENDBRANCH   4   8
BRANCH   1  20
ATOM     19  C   LIG    1        0.379  -1.009  -2.236  0.00  0.00    +0.070 C 
ATOM     20  C   LIG    1       -0.646  -0.760  -1.129  0.00  0.00    +0.000 C 
BRANCH  20  21
ATOM     21  C   LIG    1       -1.682   0.258  -1.612  0.00  0.00    +0.180 C 
ATOM     22  C   LIG    1       -2.439  -0.291  -2.848  0.00  0.00    +0.020 C 
ATOM     23  C   LIG    1       -3.769   0.507  -2.756  0.00  0.00    +0.000 C 
ATOM     24  C   LIG    1       -3.969   0.640  -1.231  0.00  0.00    +0.190 C 
ATOM     25  O   LIG    1       -2.691   0.457  -0.609  0.00  0.00    -0.380 OA
ENDBRANCH  20  21
ENDBRANCH   1  20
TORSDOF 4
