REMARK  Name = ZINCrH000004rZK3.2
REMARK                            x       y       z     vdW  Elec       q    Type
REMARK                         _______ _______ _______ _____ _____    ______ ____
ROOT
ATOM      1  N   LIG    1       -1.902  -2.804   0.935  0.00  0.00    -0.530 NA
ATOM      2  C   LIG    1       -1.292  -2.985   2.259  0.00  0.00    +0.180 C 
ATOM      3  C   LIG    1        0.022  -2.204   2.328  0.00  0.00    +0.020 C 
ATOM      4  C   LIG    1       -0.257  -0.720   2.073  0.00  0.00    +0.020 C 
ATOM      5  C   LIG    1       -0.937  -0.563   0.710  0.00  0.00    +0.000 C 
ATOM      6  C   LIG    1       -2.223  -1.392   0.688  0.00  0.00    +0.170 C 
ENDROOT
BRANCH   1   7
ATOM      7  C   LIG    1       -3.094  -3.649   0.784  0.00  0.00    +0.260 C 
ATOM      8  C   LIG    1       -2.730  -5.103   1.094  0.00  0.00    +0.080 C 
BRANCH   7  12
ATOM      9  C   LIG    1       -4.829  -3.343  -2.349  0.00  0.00    +0.220 A 
ATOM     10  N   LIG    1       -3.586  -3.512  -2.720  0.00  0.00    -0.370 NA
ATOM     11  O   LIG    1       -2.873  -3.632  -1.746  0.00  0.00    +0.090 OA
ATOM     12  C   LIG    1       -3.604  -3.549  -0.630  0.00  0.00    +0.200 A 
ATOM     13  N   LIG    1       -4.849  -3.371  -0.997  0.00  0.00    -0.480 NA
BRANCH   9  20
ATOM     14  C   LIG    1       -4.451  -3.329  -5.217  0.00  0.00    +0.100 C 
ATOM     15  C   LIG    1       -5.826  -3.151  -4.627  0.00  0.00    -0.050 A 
ATOM     16  C   LIG    1       -6.917  -2.985  -5.455  0.00  0.00    +0.000 A 
ATOM     17  C   LIG    1       -8.180  -2.816  -4.914  0.00  0.00    +0.040 A 
ATOM     18  C   LIG    1       -8.355  -2.818  -3.542  0.00  0.00    +0.000 A 
ATOM     19  C   LIG    1       -7.271  -2.989  -2.705  0.00  0.00    +0.060 A 
ATOM     20  C   LIG    1       -5.998  -3.159  -3.244  0.00  0.00    -0.030 A 
ENDBRANCH   9  20
ENDBRANCH   7  12
ENDBRANCH   1   7
BRANCH   5  21
ATOM     21  C   LIG    1       -1.274   0.910   0.474  0.00  0.00    +0.050 C 
BRANCH  21  22
ATOM     22  C   LIG    1        0.015   1.735   0.473  0.00  0.00    -0.080 C 
ATOM     23  C   LIG    1        1.093   0.994  -0.321  0.00  0.00    +0.050 C 
ATOM     24  C   LIG    1       -0.251   3.095  -0.174  0.00  0.00    +0.050 C 
BRANCH  22  25
ATOM     25  C   LIG    1        0.484   1.936   1.891  0.00  0.00    +0.530 C 
ATOM     26  O   LIG    1       -0.281   1.755   2.814  0.00  0.00    -0.540 OA
ATOM     27  N   LIG    1        1.754   2.317   2.133  0.00  0.00    -0.860 N 
ATOM     28  H   LIG    1        2.056   2.447   3.045  0.00  0.00    +0.400 HD
ATOM     29  H   LIG    1        2.366   2.462   1.394  0.00  0.00    +0.400 HD
ENDBRANCH  22  25
ENDBRANCH  21  22
ENDBRANCH   5  21
TORSDOF 6
