REMARK  Name = ZINCbu0000000GEo.0
REMARK                            x       y       z     vdW  Elec       q    Type
REMARK                         _______ _______ _______ _____ _____    ______ ____
ROOT
ATOM      1  C   LIG    1        2.378   1.413  -0.013  0.00  0.00    -0.120 A 
ATOM      2  C   LIG    1        1.171   2.086   0.002  0.00  0.00    +0.020 A 
ATOM      3  C   LIG    1       -0.017   1.379   0.010  0.00  0.00    +0.090 A 
ATOM      4  C   LIG    1        0.002  -0.004   0.002  0.00  0.00    -0.060 A 
ATOM      5  C   LIG    1        1.212  -0.680  -0.013  0.00  0.00    +0.130 A 
ATOM      6  F   LIG    1        1.232  -2.030  -0.021  0.00  0.00    -0.110 F 
ATOM      7 CL   LIG    1       -1.489  -0.893   0.011  0.00  0.00    -0.010 Cl
ATOM      8  C   LIG    1        2.400   0.031  -0.021  0.00  0.00    +0.050 A 
ENDROOT
BRANCH   1  10
ATOM      9  C   LIG    1        3.994   2.656   1.399  0.00  0.00    +0.110 C 
ATOM     10  C   LIG    1        3.671   2.187  -0.021  0.00  0.00    +0.230 C 
BRANCH  10  11
ATOM     11  N   LIG    1        3.539   3.353  -0.904  0.00  0.00    -0.640 N 
ATOM     12  H   LIG    1        3.326   3.044  -1.841  0.00  0.00    +0.440 HD
ATOM     13  H   LIG    1        4.405   3.871  -0.910  0.00  0.00    +0.440 HD
ATOM     14  H   LIG    1        2.795   3.946  -0.569  0.00  0.00    +0.430 HD
ENDBRANCH  10  11
ENDBRANCH   1  10
TORSDOF 2
