REMARK  Name = ZINCkj000005hwhh.0
REMARK                            x       y       z     vdW  Elec       q    Type
REMARK                         _______ _______ _______ _____ _____    ______ ____
ROOT
ATOM      1  C   LIG    1       -1.153  -2.092  -0.065  0.00  0.00    +0.520 C 
ATOM      2  N   LIG    1       -1.154  -0.744  -0.053  0.00  0.00    -0.650 N 
ATOM      3  H   LIG    1       -1.995  -0.260  -0.066  0.00  0.00    +0.400 HD
ATOM      4  O   LIG    1       -0.108  -2.698   0.034  0.00  0.00    -0.450 OA
ENDROOT
BRANCH   2   5
ATOM      5  C   LIG    1        0.059  -0.043  -0.023  0.00  0.00    -0.020 A 
ATOM      6  C   LIG    1        0.368   0.852  -1.005  0.00  0.00    +0.150 A 
ATOM      7  C   LIG    1        1.591   1.552  -0.960  0.00  0.00    -0.180 A 
ATOM      8  C   LIG    1        2.446   1.338   0.059  0.00  0.00    +0.190 A 
ATOM      9  N   LIG    1        2.136   0.435   1.039  0.00  0.00    -0.600 N 
ATOM     10  H   LIG    1        2.766   0.287   1.762  0.00  0.00    +0.420 HD
ATOM     11  C   LIG    1        3.761   2.064   0.185  0.00  0.00    +0.090 C 
ATOM     12  C   LIG    1        4.170   2.680  -1.151  0.00  0.00    +0.030 C 
ATOM     13  C   LIG    1        2.984   3.490  -1.689  0.00  0.00    +0.020 C 
ATOM     14  C   LIG    1        1.878   2.513  -2.084  0.00  0.00    +0.100 C 
ATOM     15  C   LIG    1        0.982  -0.250   1.025  0.00  0.00    +0.530 A 
ATOM     16  O   LIG    1        0.732  -1.048   1.914  0.00  0.00    -0.540 OA
ENDBRANCH   2   5
BRANCH   1  17
ATOM     17  C   LIG    1       -2.452  -2.845  -0.201  0.00  0.00    -0.010 C 
ATOM     18  C   LIG    1       -2.283  -4.373  -0.170  0.00  0.00    +0.130 C 
ATOM     19  C   LIG    1       -3.346  -4.434  -1.280  0.00  0.00    +0.060 C 
ATOM     20  C   LIG    1       -2.921  -3.005  -1.657  0.00  0.00    +0.110 C 
BRANCH  17  22
ATOM     21  C   LIG    1       -3.078  -2.552   2.096  0.00  0.00    +0.340 C 
ATOM     22  N   LIG    1       -3.497  -2.348   0.703  0.00  0.00    -0.480 N 
ATOM     23  H   LIG    1       -4.356  -2.850   0.533  0.00  0.00    +0.440 HD
ATOM     24  H   LIG    1       -3.645  -1.364   0.537  0.00  0.00    +0.430 HD
ENDBRANCH  17  22
ENDBRANCH   1  17
TORSDOF 3
