REMARK  Name = ZINCqH0000038RAp.0
REMARK                            x       y       z     vdW  Elec       q    Type
REMARK                         _______ _______ _______ _____ _____    ______ ____
ROOT
ATOM      1  C   LIG    1       -0.987  10.284  -5.271  0.00  0.00    +0.380 C 
ATOM      2  N   LIG    1       -1.032   9.101  -4.409  0.00  0.00    -0.490 N 
ATOM      3  C   LIG    1        0.035   8.429  -3.933  0.00  0.00    +0.470 A 
ATOM      4  N   LIG    1       -0.426   7.406  -3.186  0.00  0.00    -0.360 N 
ATOM      5  N   LIG    1       -1.826   7.467  -3.204  0.00  0.00    -0.270 NA
ATOM      6  S   LIG    1        1.679   8.806  -4.227  0.00  0.00    -0.570 S 
ATOM      7  C   LIG    1       -2.175   8.485  -3.939  0.00  0.00    +0.320 A 
ENDROOT
BRANCH   7   8
ATOM      8  C   LIG    1       -3.564   8.911  -4.222  0.00  0.00    -0.100 A 
ATOM      9  C   LIG    1       -3.816  10.052  -4.990  0.00  0.00    +0.090 A 
ATOM     10  C   LIG    1       -5.133  10.408  -5.226  0.00  0.00    -0.020 A 
ATOM     11  C   LIG    1       -6.148   9.630  -4.699  0.00  0.00    +0.300 A 
ATOM     12  N   LIG    1       -5.881   8.558  -3.978  0.00  0.00    -0.480 NA
ATOM     13  C   LIG    1       -4.645   8.177  -3.732  0.00  0.00    +0.330 A 
ENDBRANCH   7   8
BRANCH   4  14
ATOM     14  C   LIG    1        0.389   6.414  -2.478  0.00  0.00    +0.530 C 
BRANCH  14  15
ATOM     15  N   LIG    1        0.388   5.153  -3.231  0.00  0.00    -0.510 NA
BRANCH  15  16
ATOM     16  C   LIG    1        1.605   4.377  -2.958  0.00  0.00    +0.150 C 
ATOM     17  C   LIG    1        2.460   4.801  -1.762  0.00  0.00    -0.020 C 
ATOM     18  C   LIG    1        2.950   5.069  -3.188  0.00  0.00    +0.040 C 
ENDBRANCH  15  16
BRANCH  15  19
ATOM     19  C   LIG    1       -0.816   4.365  -2.937  0.00  0.00    +0.250 C 
BRANCH  19  20
ATOM     20  C   LIG    1       -0.906   3.208  -3.898  0.00  0.00    -0.090 A 
ATOM     21  C   LIG    1       -0.317   1.998  -3.580  0.00  0.00    +0.040 A 
ATOM     22  C   LIG    1       -0.400   0.936  -4.460  0.00  0.00    -0.010 A 
ATOM     23  C   LIG    1       -1.072   1.084  -5.662  0.00  0.00    +0.100 A 
ATOM     24  C   LIG    1       -1.656   2.297  -5.982  0.00  0.00    -0.010 A 
ATOM     25  F   LIG    1       -1.153   0.046  -6.523  0.00  0.00    -0.140 F 
ATOM     26  C   LIG    1       -1.577   3.357  -5.098  0.00  0.00    +0.060 A 
ENDBRANCH  19  20
ENDBRANCH  15  19
ENDBRANCH  14  15
ENDBRANCH   4  14
TORSDOF 6
