REMARK  Name = ZINCqH0000038zoT.0
REMARK                            x       y       z     vdW  Elec       q    Type
REMARK                         _______ _______ _______ _____ _____    ______ ____
ROOT
ATOM      1  N   LIG    1        2.402   1.109  -0.024  0.00  0.00    -0.690 N 
ATOM      2  H   LIG    1        2.400   0.141   0.041  0.00  0.00    +0.410 HD
ATOM      3  C   LIG    1        3.569   1.774  -0.134  0.00  0.00    +0.710 C 
ATOM      4  N   LIG    1        4.737   1.106  -0.047  0.00  0.00    -0.720 N 
ATOM      5  H   LIG    1        4.737   0.146   0.095  0.00  0.00    +0.390 HD
ATOM      6  O   LIG    1        3.569   2.976  -0.313  0.00  0.00    -0.570 OA
ENDROOT
BRANCH   1  10
ATOM      7  C   LIG    1       -1.199   3.212   0.045  0.00  0.00    -0.200 A 
ATOM      8  C   LIG    1       -0.065   3.756   0.636  0.00  0.00    +0.110 A 
ATOM      9  C   LIG    1        1.128   3.061   0.609  0.00  0.00    +0.010 A 
ATOM     10  C   LIG    1        1.192   1.815  -0.001  0.00  0.00    +0.210 A 
ATOM     11  C   LIG    1        0.059   1.270  -0.588  0.00  0.00    -0.020 A 
ATOM     12  C   LIG    1       -1.133   1.966  -0.566  0.00  0.00    +0.110 A 
BRANCH   7  13
ATOM     13  S   LIG    1       -2.720   4.100   0.074  0.00  0.00    +0.120 S 
BRANCH  13  18
ATOM     14  C   LIG    1       -4.195   7.280  -3.774  0.00  0.00    +0.160 C 
ATOM     15  C   LIG    1       -3.281   6.266  -3.136  0.00  0.00    +0.080 A 
ATOM     16  C   LIG    1       -2.188   5.799  -3.742  0.00  0.00    -0.090 A 
ATOM     17  S   LIG    1       -1.414   4.643  -2.661  0.00  0.00    +0.150 S 
ATOM     18  C   LIG    1       -2.638   4.899  -1.495  0.00  0.00    +0.000 A 
ATOM     19  N   LIG    1       -3.501   5.762  -1.936  0.00  0.00    -0.460 NA
ENDBRANCH  13  18
ENDBRANCH   7  13
ENDBRANCH   1  10
BRANCH   4  20
ATOM     20  C   LIG    1        6.005   1.829  -0.168  0.00  0.00    +0.290 C 
ATOM     21  C   LIG    1        6.399   2.399   1.196  0.00  0.00    +0.010 C 
ATOM     22  C   LIG    1        7.723   3.154   1.070  0.00  0.00    +0.020 C 
ATOM     23  C   LIG    1        8.813   2.195   0.585  0.00  0.00    +0.020 C 
ATOM     24  C   LIG    1        8.419   1.625  -0.779  0.00  0.00    +0.030 C 
ATOM     25  C   LIG    1        7.094   0.870  -0.653  0.00  0.00    -0.020 C 
BRANCH  25  26
ATOM     26  C   LIG    1        6.707   0.308  -1.996  0.00  0.00    +0.520 C 
ATOM     27  O   LIG    1        5.662   0.641  -2.515  0.00  0.00    -0.530 OA
ATOM     28  N   LIG    1        7.521  -0.565  -2.622  0.00  0.00    -0.860 N 
ATOM     29  H   LIG    1        7.272  -0.927  -3.487  0.00  0.00    +0.400 HD
ATOM     30  H   LIG    1        8.357  -0.832  -2.208  0.00  0.00    +0.400 HD
ENDBRANCH  25  26
ENDBRANCH   4  20
TORSDOF 5
