REMARK  Name = ZINCkj000005izod.0
REMARK                            x       y       z     vdW  Elec       q    Type
REMARK                         _______ _______ _______ _____ _____    ______ ____
ROOT
ATOM      1  N   LIG    1       -0.771   1.750   1.901  0.00  0.00    -0.370 N 
ATOM      2  C   LIG    1       -0.579   0.992   0.657  0.00  0.00    +0.330 C 
ATOM      3  H   LIG    1       -0.168   1.377   2.618  0.00  0.00    +0.420 HD
ENDROOT
BRANCH   1   6
ATOM      4  C   LIG    1        0.703   4.755   2.468  0.00  0.00    +0.110 C 
ATOM      5  C   LIG    1       -0.580   4.041   2.924  0.00  0.00    +0.040 C 
ATOM      6  C   LIG    1       -0.443   3.163   1.669  0.00  0.00    +0.160 C 
ATOM      7  C   LIG    1        0.445   5.946   1.543  0.00  0.00    +0.060 C 
ATOM      8  C   LIG    1        1.065   3.461   1.721  0.00  0.00    -0.070 C 
ATOM      9  C   LIG    1        1.690   3.702   0.345  0.00  0.00    +0.070 C 
ATOM     10  C   LIG    1        1.858   2.465   2.569  0.00  0.00    +0.080 C 
BRANCH   4  12
ATOM     11  C   LIG    1        1.228   6.234   4.281  0.00  0.00    +0.220 C 
ATOM     12  O   LIG    1        1.595   5.069   3.540  0.00  0.00    -0.360 OA
ENDBRANCH   4  12
ENDBRANCH   1   6
BRANCH   1  13
ATOM     13  C   LIG    1       -2.171   1.637   2.331  0.00  0.00    +0.240 C 
BRANCH  13  14
ATOM     14  C   LIG    1       -2.470   0.187   2.719  0.00  0.00    +0.200 C 
BRANCH  14  15
ATOM     15  O   LIG    1       -2.402  -0.641   1.556  0.00  0.00    -0.530 OA
ATOM     16  H   LIG    1       -3.029  -0.396   0.862  0.00  0.00    +0.390 HD
ENDBRANCH  14  15
BRANCH  14  17
ATOM     17  C   LIG    1       -3.872   0.100   3.325  0.00  0.00    +0.320 C 
BRANCH  17  18
ATOM     18  N   LIG    1       -4.113  -1.263   3.805  0.00  0.00    -0.390 N 
ATOM     19  C   LIG    1       -4.483  -1.611   5.056  0.00  0.00    +0.230 A 
ATOM     20  C   LIG    1       -4.601  -2.958   5.091  0.00  0.00    -0.110 A 
ATOM     21  C   LIG    1       -4.293  -3.451   3.819  0.00  0.00    +0.240 A 
ATOM     22  N   LIG    1       -4.005  -2.435   3.046  0.00  0.00    -0.280 NA
ENDBRANCH  17  18
ENDBRANCH  14  17
ENDBRANCH  13  14
ENDBRANCH   1  13
TORSDOF 7
