REMARK  Name = ZINCkj000005izod.1
REMARK                            x       y       z     vdW  Elec       q    Type
REMARK                         _______ _______ _______ _____ _____    ______ ____
ROOT
ATOM      1  N   LIG    1        1.299   1.540   2.489  0.00  0.00    -0.370 N 
ATOM      2  C   LIG    1        1.131   2.975   2.750  0.00  0.00    +0.320 C 
ATOM      3  H   LIG    1        0.397   1.120   2.322  0.00  0.00    +0.430 HD
ENDROOT
BRANCH   1   6
ATOM      4  C   LIG    1        1.641  -0.672   5.043  0.00  0.00    +0.110 C 
ATOM      5  C   LIG    1        0.969   0.698   4.838  0.00  0.00    +0.050 C 
ATOM      6  C   LIG    1        1.928   0.900   3.653  0.00  0.00    +0.160 C 
ATOM      7  C   LIG    1        2.858  -0.623   5.969  0.00  0.00    +0.050 C 
ATOM      8  C   LIG    1        2.002  -0.632   3.549  0.00  0.00    -0.070 C 
ATOM      9  C   LIG    1        3.406  -1.159   3.243  0.00  0.00    +0.060 C 
ATOM     10  C   LIG    1        0.928  -1.237   2.642  0.00  0.00    +0.080 C 
BRANCH   4  12
ATOM     11  C   LIG    1        0.385  -1.761   6.770  0.00  0.00    +0.220 C 
ATOM     12  O   LIG    1        0.726  -1.716   5.383  0.00  0.00    -0.360 OA
ENDBRANCH   4  12
ENDBRANCH   1   6
BRANCH   1  13
ATOM     13  C   LIG    1        2.152   1.353   1.308  0.00  0.00    +0.230 C 
BRANCH  13  14
ATOM     14  C   LIG    1        1.429   1.883   0.068  0.00  0.00    +0.200 C 
BRANCH  14  15
ATOM     15  O   LIG    1        0.204   1.169  -0.111  0.00  0.00    -0.530 OA
ATOM     16  H   LIG    1        0.319   0.217  -0.233  0.00  0.00    +0.390 HD
ENDBRANCH  14  15
BRANCH  14  17
ATOM     17  C   LIG    1        2.317   1.689  -1.163  0.00  0.00    +0.320 C 
BRANCH  17  18
ATOM     18  N   LIG    1        1.677   2.304  -2.329  0.00  0.00    -0.390 N 
ATOM     19  C   LIG    1        2.228   3.231  -3.140  0.00  0.00    +0.230 A 
ATOM     20  C   LIG    1        1.318   3.538  -4.093  0.00  0.00    -0.110 A 
ATOM     21  C   LIG    1        0.172   2.772  -3.856  0.00  0.00    +0.240 A 
ATOM     22  N   LIG    1        0.388   2.028  -2.802  0.00  0.00    -0.280 NA
ENDBRANCH  17  18
ENDBRANCH  14  17
ENDBRANCH  13  14
ENDBRANCH   1  13
TORSDOF 7
