REMARK  Name = ZINCpk00001AZjd8.0
REMARK                            x       y       z     vdW  Elec       q    Type
REMARK                         _______ _______ _______ _____ _____    ______ ____
ROOT
ATOM      1  C   LIG    1       -2.142  -3.002   5.716  0.00  0.00    +0.080 C 
ATOM      2  C   LIG    1       -3.357  -2.371   5.031  0.00  0.00    +0.020 C 
ATOM      3  C   LIG    1       -2.880  -1.337   4.007  0.00  0.00    +0.280 C 
ATOM      4  N   LIG    1       -1.937  -1.984   3.085  0.00  0.00    -0.610 N 
ATOM      5  C   LIG    1       -0.783  -2.703   3.644  0.00  0.00    +0.260 C 
ATOM      6  C   LIG    1       -2.128  -1.925   1.752  0.00  0.00    +0.520 C 
ATOM      7  O   LIG    1       -3.108  -1.367   1.305  0.00  0.00    -0.520 OA
ATOM      8  C   LIG    1       -1.280  -3.717   4.673  0.00  0.00    +0.020 C 
ENDROOT
BRANCH   6   9
ATOM      9  C   LIG    1       -1.125  -2.551   0.818  0.00  0.00    +0.000 C 
ATOM     10  C   LIG    1       -1.458  -2.163  -0.625  0.00  0.00    +0.060 C 
ATOM     11  C   LIG    1       -2.832  -2.731  -0.992  0.00  0.00    +0.080 C 
ATOM     12  C   LIG    1       -2.822  -4.248  -0.786  0.00  0.00    +0.070 C 
ATOM     13  N   LIG    1       -2.523  -4.552   0.618  0.00  0.00    -0.350 N 
ATOM     14  C   LIG    1       -3.509  -3.889   1.482  0.00  0.00    +0.300 C 
ATOM     15  H   LIG    1       -2.570  -5.550   0.762  0.00  0.00    +0.420 HD
ATOM     16  C   LIG    1       -1.177  -4.074   0.956  0.00  0.00    +0.250 C 
BRANCH  12  17
ATOM     17  C   LIG    1       -4.172  -4.812  -1.147  0.00  0.00    +0.500 C 
ATOM     18  O   LIG    1       -4.856  -5.349  -0.292  0.00  0.00    -0.670 OA
ATOM     19  O   LIG    1       -4.578  -4.736  -2.293  0.00  0.00    -0.640 OA
ENDBRANCH  12  17
ENDBRANCH   6   9
BRANCH   1  22
ATOM     20  N   LIG    1       -2.938  -5.014   8.651  0.00  0.00    -0.370 N 
ATOM     21  C   LIG    1       -2.342  -3.950   8.075  0.00  0.00    +0.230 A 
ATOM     22  C   LIG    1       -2.608  -3.996   6.749  0.00  0.00    -0.240 A 
ATOM     23  C   LIG    1       -3.386  -5.132   6.505  0.00  0.00    +0.230 A 
ATOM     24  N   LIG    1       -3.585  -5.744   7.645  0.00  0.00    -0.290 NA
BRANCH  20  26
ATOM     25  C   LIG    1       -4.341  -5.503  10.594  0.00  0.00    +0.040 C 
ATOM     26  C   LIG    1       -2.909  -5.351  10.077  0.00  0.00    +0.320 C 
ENDBRANCH  20  26
ENDBRANCH   1  22
TORSDOF 4
