REMARK  Name = ZINCpk00001AZjd8.1
REMARK                            x       y       z     vdW  Elec       q    Type
REMARK                         _______ _______ _______ _____ _____    ______ ____
ROOT
ATOM      1  C   LIG    1       -3.333  -1.959   1.391  0.00  0.00    +0.070 C 
ATOM      2  C   LIG    1       -1.933  -2.573   1.458  0.00  0.00    +0.030 C 
ATOM      3  C   LIG    1       -1.138  -2.160   0.214  0.00  0.00    +0.290 C 
ATOM      4  N   LIG    1       -1.150  -0.694   0.111  0.00  0.00    -0.590 N 
ATOM      5  C   LIG    1       -2.442   0.005   0.135  0.00  0.00    +0.270 C 
ATOM      6  C   LIG    1        0.002  -0.004   0.002  0.00  0.00    +0.520 C 
ATOM      7  O   LIG    1        1.056  -0.596  -0.094  0.00  0.00    -0.550 OA
ATOM      8  C   LIG    1       -3.222  -0.433   1.373  0.00  0.00    +0.020 C 
ENDROOT
BRANCH   6   9
ATOM      9  C   LIG    1       -0.019   1.503  -0.001  0.00  0.00    +0.000 C 
ATOM     10  C   LIG    1       -0.609   2.003  -1.323  0.00  0.00    +0.050 C 
ATOM     11  C   LIG    1        0.299   1.562  -2.475  0.00  0.00    +0.060 C 
ATOM     12  C   LIG    1        1.714   2.091  -2.233  0.00  0.00    +0.070 C 
ATOM     13  N   LIG    1        2.232   1.556  -0.968  0.00  0.00    -0.360 N 
ATOM     14  C   LIG    1        3.618   2.004  -0.779  0.00  0.00    +0.310 C 
ATOM     15  H   LIG    1        2.206   0.548  -0.996  0.00  0.00    +0.440 HD
ATOM     16  C   LIG    1        1.408   2.034   0.149  0.00  0.00    +0.260 C 
BRANCH  12  17
ATOM     17  C   LIG    1        2.611   1.659  -3.365  0.00  0.00    +0.490 C 
ATOM     18  O   LIG    1        2.732   2.366  -4.351  0.00  0.00    -0.640 OA
ATOM     19  O   LIG    1        3.216   0.603  -3.293  0.00  0.00    -0.670 OA
ENDBRANCH  12  17
ENDBRANCH   6   9
BRANCH   1  22
ATOM     20  N   LIG    1       -5.678  -3.274   3.854  0.00  0.00    -0.370 N 
ATOM     21  C   LIG    1       -5.290  -3.085   2.575  0.00  0.00    +0.230 A 
ATOM     22  C   LIG    1       -4.129  -2.391   2.595  0.00  0.00    -0.240 A 
ATOM     23  C   LIG    1       -3.800  -2.141   3.932  0.00  0.00    +0.230 A 
ATOM     24  N   LIG    1       -4.728  -2.670   4.687  0.00  0.00    -0.290 NA
BRANCH  20  26
ATOM     25  C   LIG    1       -6.495  -5.090   5.274  0.00  0.00    +0.040 C 
ATOM     26  C   LIG    1       -6.883  -3.982   4.293  0.00  0.00    +0.320 C 
ENDBRANCH  20  26
ENDBRANCH   1  22
TORSDOF 4
