REMARK  Name = ZINCqH0000007Nhw.0
REMARK                            x       y       z     vdW  Elec       q    Type
REMARK                         _______ _______ _______ _____ _____    ______ ____
ROOT
ATOM      1  C   LIG    1       -0.050   4.506   3.356  0.00  0.00    +0.120 A 
ATOM      2  N   LIG    1       -0.141   4.067   2.133  0.00  0.00    -0.460 NA
ATOM      3  C   LIG    1        0.970   4.011   1.435  0.00  0.00    +0.030 A 
ATOM      4  C   LIG    1        2.075   4.424   2.063  0.00  0.00    -0.060 A 
ATOM      5  S   LIG    1        1.630   4.918   3.695  0.00  0.00    +0.160 S 
ENDROOT
BRANCH   1  11
ATOM      6  C   LIG    1       -0.949   5.135   5.597  0.00  0.00    +0.150 A 
ATOM      7  C   LIG    1       -2.010   5.259   6.479  0.00  0.00    -0.070 A 
ATOM      8  C   LIG    1       -3.285   4.899   6.085  0.00  0.00    +0.070 A 
ATOM      9  C   LIG    1       -3.511   4.412   4.809  0.00  0.00    -0.030 A 
ATOM     10  C   LIG    1       -2.466   4.288   3.917  0.00  0.00    +0.110 A 
ATOM     11  C   LIG    1       -1.174   4.643   4.305  0.00  0.00    -0.060 A 
BRANCH   6  13
ATOM     12  C   LIG    1        0.457   5.982   7.316  0.00  0.00    +0.260 C 
ATOM     13  O   LIG    1        0.304   5.488   5.983  0.00  0.00    -0.310 OA
ENDBRANCH   6  13
ENDBRANCH   1  11
BRANCH   3  14
ATOM     14  C   LIG    1        0.995   3.517   0.011  0.00  0.00    +0.410 C 
BRANCH  14  15
ATOM     15  N   LIG    1        1.109   2.057   0.003  0.00  0.00    -0.540 N 
ATOM     16  C   LIG    1       -0.015   1.294   0.009  0.00  0.00    +0.610 A 
ATOM     17  N   LIG    1        0.002  -0.004   0.002  0.00  0.00    -0.530 NA
ATOM     18  C   LIG    1        1.167  -0.699  -0.013  0.00  0.00    +0.180 A 
ATOM     19  C   LIG    1        1.188  -2.094  -0.021  0.00  0.00    +0.000 A 
ATOM     20  C   LIG    1        2.400  -2.755  -0.036  0.00  0.00    +0.150 A 
ATOM     21  C   LIG    1        3.597  -2.047  -0.044  0.00  0.00    -0.020 A 
ATOM     22  C   LIG    1        3.599  -0.680  -0.036  0.00  0.00    +0.140 A 
ATOM     23  F   LIG    1        2.423  -4.106  -0.044  0.00  0.00    -0.130 F 
ATOM     24  C   LIG    1        2.389   0.011  -0.021  0.00  0.00    -0.210 A 
ATOM     25  C   LIG    1        2.333   1.480  -0.012  0.00  0.00    +0.550 A 
ATOM     26  O   LIG    1        3.349   2.151  -0.018  0.00  0.00    -0.500 OA
ENDBRANCH  14  15
ENDBRANCH   3  14
TORSDOF 4
