REMARK  Name = ZINCpe00000gN08c.0
REMARK                            x       y       z     vdW  Elec       q    Type
REMARK                         _______ _______ _______ _____ _____    ______ ____
ROOT
ATOM      1  C   LIG    1        3.397   3.337   1.599  0.00  0.00    +0.630 C 
ATOM      2  N   LIG    1        2.901   4.155   0.650  0.00  0.00    -0.620 N 
ATOM      3  C   LIG    1        3.452   5.139  -0.293  0.00  0.00    +0.270 C 
ATOM      4  C   LIG    1        2.259   4.846  -1.213  0.00  0.00    -0.080 C 
ATOM      5  C   LIG    1        1.667   6.085  -1.888  0.00  0.00    +0.050 C 
ATOM      6  C   LIG    1        2.480   3.677  -2.175  0.00  0.00    +0.070 C 
ATOM      7  C   LIG    1        1.569   4.457   0.102  0.00  0.00    +0.330 C 
ATOM      8  O   LIG    1        2.642   2.683   2.293  0.00  0.00    -0.500 OA
ENDROOT
BRANCH   1  15
ATOM      9  C   LIG    1        7.728   0.945   0.910  0.00  0.00    +0.350 C 
ATOM     10  N   LIG    1        6.944   2.058   1.450  0.00  0.00    -0.550 N 
ATOM     11  C   LIG    1        7.556   3.028   2.151  0.00  0.00    +0.690 A 
ATOM     12  N   LIG    1        6.884   4.069   2.666  0.00  0.00    -0.630 N 
ATOM     13  H   LIG    1        7.368   4.746   3.165  0.00  0.00    +0.440 HD
ATOM     14  C   LIG    1        5.542   4.200   2.500  0.00  0.00    +0.390 A 
ATOM     15  C   LIG    1        4.851   3.234   1.795  0.00  0.00    -0.290 A 
ATOM     16  O   LIG    1        8.758   2.960   2.323  0.00  0.00    -0.530 OA
ATOM     17  C   LIG    1        5.611   2.103   1.240  0.00  0.00    +0.560 A 
ATOM     18  O   LIG    1        5.052   1.228   0.607  0.00  0.00    -0.470 OA
ENDBRANCH   1  15
BRANCH   7  19
ATOM     19  C   LIG    1        0.682   3.245  -0.021  0.00  0.00    +0.200 A 
ATOM     20  N   LIG    1        1.091   2.013  -0.150  0.00  0.00    -0.450 NA
ATOM     21  C   LIG    1        0.028   1.199  -0.231  0.00  0.00    +0.150 A 
ATOM     22  C   LIG    1       -1.083   1.957  -0.155  0.00  0.00    +0.110 A 
ATOM     23  N   LIG    1       -0.668   3.254  -0.015  0.00  0.00    -0.420 N 
BRANCH  23  24
ATOM     24  C   LIG    1       -1.529   4.433   0.109  0.00  0.00    +0.190 C 
ATOM     25  C   LIG    1       -3.029   4.196   0.295  0.00  0.00    +0.040 C 
ATOM     26  C   LIG    1       -2.497   4.726  -1.039  0.00  0.00    +0.040 C 
ENDBRANCH  23  24
ENDBRANCH   7  19
TORSDOF 3
