REMARK  Name = ZINCrD00000s5qlD.0
REMARK                            x       y       z     vdW  Elec       q    Type
REMARK                         _______ _______ _______ _____ _____    ______ ____
ROOT
ATOM      1  C   LIG    1        0.553   3.603   1.293  0.00  0.00    +0.170 C 
ATOM      2  C   LIG    1        1.311   3.103   2.528  0.00  0.00    +0.000 C 
ATOM      3  C   LIG    1        1.312   1.571   2.521  0.00  0.00    +0.160 C 
ATOM      4  O   LIG    1       -0.037   1.106   2.425  0.00  0.00    -0.370 OA
ATOM      5  C   LIG    1       -0.729   1.579   1.267  0.00  0.00    +0.270 C 
ATOM      6  C   LIG    1       -2.164   1.050   1.278  0.00  0.00    +0.100 C 
ATOM      7  C   LIG    1       -0.013   1.086   0.008  0.00  0.00    +0.020 C 
ATOM      8  O   LIG    1       -0.748   3.009   1.275  0.00  0.00    -0.370 OA
ENDROOT
BRANCH   1   9
ATOM      9  C   LIG    1        0.420   5.126   1.355  0.00  0.00    +0.120 C 
BRANCH   9  10
ATOM     10  C   LIG    1       -0.215   5.627   0.084  0.00  0.00    +0.470 C 
ATOM     11  O   LIG    1       -0.530   4.846  -0.783  0.00  0.00    -0.490 OA
BRANCH  10  12
ATOM     12  O   LIG    1       -0.432   6.941  -0.085  0.00  0.00    -0.350 OA
BRANCH  12  14
ATOM     13  C   LIG    1       -2.420   6.688  -1.470  0.00  0.00    +0.030 C 
ATOM     14  C   LIG    1       -1.048   7.352  -1.335  0.00  0.00    +0.120 C 
ATOM     15  C   LIG    1       -0.159   6.928  -2.505  0.00  0.00    +0.030 C 
ATOM     16  C   LIG    1       -1.215   8.873  -1.345  0.00  0.00    +0.080 C 
ENDBRANCH  12  14
ENDBRANCH  10  12
ENDBRANCH   9  10
ENDBRANCH   1   9
BRANCH   3  17
ATOM     17  C   LIG    1        1.941   1.054   3.817  0.00  0.00    +0.210 C 
BRANCH  17  18
ATOM     18  N   LIG    1        2.039  -0.411   3.763  0.00  0.00    -0.630 N 
ATOM     19  H   LIG    1        2.556  -0.709   2.949  0.00  0.00    +0.350 HD
BRANCH  18  20
ATOM     20  C   LIG    1        2.611  -0.919   4.934  0.00  0.00    +0.060 A 
ATOM     21  C   LIG    1        3.896  -0.538   5.303  0.00  0.00    +0.060 A 
ATOM     22  C   LIG    1        4.455  -1.038   6.465  0.00  0.00    -0.010 A 
ATOM     23  C   LIG    1        3.742  -1.923   7.252  0.00  0.00    +0.050 A 
ATOM     24  C   LIG    1        2.466  -2.308   6.883  0.00  0.00    +0.040 A 
ATOM     25  F   LIG    1        4.596   0.322   4.532  0.00  0.00    -0.140 F 
ATOM     26  C   LIG    1        1.899  -1.808   5.727  0.00  0.00    -0.040 A 
BRANCH  26  27
ATOM     27  C   LIG    1        0.507  -2.227   5.328  0.00  0.00    +0.270 C 
BRANCH  27  28
ATOM     28  O   LIG    1       -0.012  -3.140   6.297  0.00  0.00    -0.580 OA
ATOM     29  H   LIG    1       -0.906  -3.452   6.104  0.00  0.00    +0.390 HD
ENDBRANCH  27  28
ENDBRANCH  26  27
ENDBRANCH  18  20
ENDBRANCH  17  18
ENDBRANCH   3  17
TORSDOF 9
