REMARK  Name = ZINCvU0000000CNw.0
REMARK                            x       y       z     vdW  Elec       q    Type
REMARK                         _______ _______ _______ _____ _____    ______ ____
ROOT
ATOM      1  N   LIG    1        4.809   0.115  -0.045  0.00  0.00    -0.490 N 
ATOM      2  C   LIG    1        3.740  -0.557  -0.532  0.00  0.00    +0.560 A 
ATOM      3  C   LIG    1        2.436   0.118  -0.492  0.00  0.00    -0.200 A 
ATOM      4  C   LIG    1        1.278  -0.493  -0.970  0.00  0.00    +0.100 A 
ATOM      5  C   LIG    1        0.079   0.183  -0.910  0.00  0.00    +0.000 A 
ATOM      6  C   LIG    1        0.016   1.464  -0.379  0.00  0.00    +0.070 A 
ATOM      7  C   LIG    1        1.147   2.086   0.100  0.00  0.00    +0.030 A 
ATOM      8  C   LIG    1        2.376   1.422   0.051  0.00  0.00    +0.160 A 
ATOM      9  N   LIG    1        3.511   1.998   0.510  0.00  0.00    -0.530 NA
ATOM     10  O   LIG    1        3.856  -1.681  -0.987  0.00  0.00    -0.490 OA
ATOM     11  C   LIG    1        4.663   1.376   0.463  0.00  0.00    +0.360 A 
ENDROOT
BRANCH   1  16
ATOM     12  C   LIG    1        9.936  -2.318  -0.111  0.00  0.00    +0.110 C 
ATOM     13  C   LIG    1        8.575  -1.673  -0.093  0.00  0.00    -0.050 A 
ATOM     14  C   LIG    1        8.157  -0.913  -1.171  0.00  0.00    +0.050 A 
ATOM     15  C   LIG    1        6.907  -0.324  -1.159  0.00  0.00    +0.060 A 
ATOM     16  C   LIG    1        6.074  -0.486  -0.061  0.00  0.00    +0.090 A 
ATOM     17  C   LIG    1        6.495  -1.249   1.020  0.00  0.00    +0.070 A 
ATOM     18  C   LIG    1        7.744  -1.841   1.001  0.00  0.00    -0.030 A 
ATOM     19 CL   LIG    1        8.272  -2.796   2.352  0.00  0.00    -0.050 Cl
ENDBRANCH   1  16
BRANCH  11  20
ATOM     20  S   LIG    1        6.090   2.202   1.084  0.00  0.00    +0.070 S 
BRANCH  20  21
ATOM     21  C   LIG    1        5.345   3.767   1.607  0.00  0.00    +0.100 C 
BRANCH  21  22
ATOM     22  C   LIG    1        6.410   4.661   2.188  0.00  0.00    +0.420 C 
ATOM     23  O   LIG    1        7.559   4.278   2.243  0.00  0.00    -0.420 OA
BRANCH  22  24
ATOM     24  C   LIG    1        6.056   5.997   2.688  0.00  0.00    -0.150 A 
ATOM     25  C   LIG    1        7.042   6.830   3.228  0.00  0.00    +0.120 A 
ATOM     26  C   LIG    1        6.704   8.081   3.695  0.00  0.00    +0.020 A 
ATOM     27  C   LIG    1        5.390   8.518   3.631  0.00  0.00    +0.110 A 
ATOM     28  C   LIG    1        4.404   7.697   3.097  0.00  0.00    +0.060 A 
ATOM     29  F   LIG    1        3.125   8.128   3.039  0.00  0.00    -0.120 F 
ATOM     30  F   LIG    1        5.066   9.746   4.091  0.00  0.00    -0.120 F 
ATOM     31  C   LIG    1        4.731   6.444   2.621  0.00  0.00    +0.080 A 
ENDBRANCH  22  24
ENDBRANCH  21  22
ENDBRANCH  20  21
ENDBRANCH  11  20
TORSDOF 5
