REMARK  Name = ZINCpe00000gNeQS.0
REMARK                            x       y       z     vdW  Elec       q    Type
REMARK                         _______ _______ _______ _____ _____    ______ ____
ROOT
ATOM      1  O   LIG    1       -0.622   7.655   2.422  0.00  0.00    -0.530 OA
ATOM      2  C   LIG    1        0.271   6.832   2.374  0.00  0.00    +0.560 C 
ATOM      3  N   LIG    1       -0.021   5.517   2.426  0.00  0.00    -0.710 N 
ATOM      4  H   LIG    1        0.692   4.860   2.388  0.00  0.00    +0.410 HD
ENDROOT
BRANCH   2   5
ATOM      5  C   LIG    1        1.675   7.272   2.260  0.00  0.00    -0.130 A 
ATOM      6  C   LIG    1        2.703   6.328   2.211  0.00  0.00    +0.070 A 
ATOM      7  C   LIG    1        4.013   6.740   2.099  0.00  0.00    +0.030 A 
ATOM      8  C   LIG    1        4.317   8.094   2.046  0.00  0.00    +0.060 A 
ATOM      9  O   LIG    1        5.511   8.746   1.943  0.00  0.00    -0.300 OA
ATOM     10  C   LIG    1        5.184  10.083   1.522  0.00  0.00    +0.440 C 
ATOM     11  O   LIG    1        3.852  10.287   2.030  0.00  0.00    -0.300 OA
ATOM     12  C   LIG    1        3.295   9.043   2.100  0.00  0.00    +0.020 A 
ATOM     13  C   LIG    1        1.980   8.635   2.206  0.00  0.00    +0.110 A 
ENDBRANCH   2   5
BRANCH   3  14
ATOM     14  C   LIG    1       -1.415   5.080   2.540  0.00  0.00    +0.280 C 
BRANCH  14  15
ATOM     15  C   LIG    1       -1.476   3.552   2.489  0.00  0.00    +0.150 C 
BRANCH  15  16
ATOM     16  N   LIG    1       -0.603   3.063   1.413  0.00  0.00    -0.530 NA
ATOM     17  C   LIG    1       -0.489   1.597   1.453  0.00  0.00    +0.150 C 
ATOM     18  C   LIG    1        0.473   1.136   0.355  0.00  0.00    +0.220 C 
ATOM     19  O   LIG    1        0.007   1.609  -0.911  0.00  0.00    -0.380 OA
ATOM     20  C   LIG    1       -0.114   3.032  -0.985  0.00  0.00    +0.220 C 
ATOM     21  C   LIG    1       -1.083   3.513   0.099  0.00  0.00    +0.150 C 
ENDBRANCH  15  16
BRANCH  15  22
ATOM     22  C   LIG    1       -1.007   2.978   3.827  0.00  0.00    -0.020 C 
ATOM     23  C   LIG    1       -1.983   3.362   4.966  0.00  0.00    +0.010 C 
ATOM     24  C   LIG    1       -1.062   3.710   6.152  0.00  0.00    +0.190 C 
ATOM     25  O   LIG    1        0.291   3.487   5.722  0.00  0.00    -0.380 OA
ATOM     26  C   LIG    1        0.310   3.653   4.288  0.00  0.00    +0.210 C 
ENDBRANCH  15  22
ENDBRANCH  14  15
ENDBRANCH   3  14
TORSDOF 5
