REMARK  Name = ZINCvU0000000HAO.0
REMARK                            x       y       z     vdW  Elec       q    Type
REMARK                         _______ _______ _______ _____ _____    ______ ____
ROOT
ATOM      1  C   LIG    1       -7.401   2.219   0.475  0.00  0.00    +0.310 C 
ENDROOT
BRANCH   1   2
ATOM      2  N   LIG    1       -6.009   2.658   0.349  0.00  0.00    -0.570 N 
ATOM      3  C   LIG    1       -5.713   3.963   0.329  0.00  0.00    +0.520 C 
ATOM      4  S   LIG    1       -3.952   4.090   0.175  0.00  0.00    +0.000 S 
ATOM      5  C   LIG    1       -3.687   2.336   0.134  0.00  0.00    -0.220 C 
ATOM      6  C   LIG    1       -2.509   1.672   0.022  0.00  0.00    +0.240 C 
ATOM      7  O   LIG    1       -6.502   4.886   0.407  0.00  0.00    -0.420 OA
ATOM      8  C   LIG    1       -5.035   1.768   0.255  0.00  0.00    +0.560 C 
ATOM      9  O   LIG    1       -5.242   0.569   0.268  0.00  0.00    -0.460 OA
BRANCH   6  10
ATOM     10  C   LIG    1       -1.272   2.413  -0.261  0.00  0.00    -0.080 A 
ATOM     11  C   LIG    1       -1.333   3.703  -0.800  0.00  0.00    +0.090 A 
ATOM     12  C   LIG    1       -0.169   4.390  -1.069  0.00  0.00    +0.050 A 
ATOM     13  C   LIG    1        1.060   3.809  -0.801  0.00  0.00    -0.000 A 
ATOM     14  C   LIG    1        1.130   2.535  -0.263  0.00  0.00    +0.050 A 
ATOM     15 CL   LIG    1        2.521   4.683  -1.143  0.00  0.00    -0.040 Cl
ATOM     16  C   LIG    1       -0.026   1.834   0.012  0.00  0.00    +0.010 A 
ATOM     17 CL   LIG    1        0.063   0.237   0.688  0.00  0.00    -0.030 Cl
ENDBRANCH   6  10
ENDBRANCH   1   2
BRANCH   1  18
ATOM     18  C   LIG    1       -7.753   2.058   1.955  0.00  0.00    +0.270 C 
BRANCH  18  21
ATOM     19  O   LIG    1       -9.005   1.587   4.297  0.00  0.00    -0.530 OA
ATOM     20  C   LIG    1       -9.679   1.410   3.300  0.00  0.00    +0.570 C 
ATOM     21  N   LIG    1       -9.145   1.619   2.080  0.00  0.00    -0.720 N 
ATOM     22  H   LIG    1       -9.683   1.478   1.285  0.00  0.00    +0.400 HD
BRANCH  20  23
ATOM     23  C   LIG    1      -11.081   0.968   3.427  0.00  0.00    -0.160 A 
ATOM     24  C   LIG    1      -11.859   0.770   2.283  0.00  0.00    +0.080 A 
ATOM     25  C   LIG    1      -13.165   0.352   2.405  0.00  0.00    -0.060 A 
ATOM     26  C   LIG    1      -13.714   0.138   3.664  0.00  0.00    +0.130 A 
ATOM     27  C   LIG    1      -12.945   0.338   4.804  0.00  0.00    +0.010 A 
ATOM     28  C   LIG    1      -11.636   0.751   4.691  0.00  0.00    +0.130 A 
BRANCH  26  29
ATOM     29  O   LIG    1      -15.004  -0.269   3.780  0.00  0.00    -0.320 OA
BRANCH  29  30
ATOM     30  C   LIG    1      -15.737  -0.456   2.568  0.00  0.00    +0.600 C 
ATOM     31  F   LIG    1      -15.105  -1.429   1.786  0.00  0.00    -0.200 F 
ATOM     32  F   LIG    1      -15.785   0.751   1.861  0.00  0.00    -0.200 F 
ENDBRANCH  29  30
ENDBRANCH  26  29
ENDBRANCH  20  23
ENDBRANCH  18  21
ENDBRANCH   1  18
TORSDOF 7
