REMARK  Name = ZINCqH0000006MU0.0
REMARK                            x       y       z     vdW  Elec       q    Type
REMARK                         _______ _______ _______ _____ _____    ______ ____
ROOT
ATOM      1  N   LIG    1        2.108   8.327   3.053  0.00  0.00    -0.740 N 
ATOM      2  H   LIG    1        1.969   9.197   2.647  0.00  0.00    +0.400 HD
ATOM      3  C   LIG    1        2.455   7.274   2.287  0.00  0.00    +0.720 C 
ATOM      4  N   LIG    1        2.610   7.430   0.957  0.00  0.00    -0.630 N 
ATOM      5  C   LIG    1        2.430   8.690   0.213  0.00  0.00    +0.240 C 
ATOM      6  C   LIG    1        3.285   8.519  -1.068  0.00  0.00    +0.040 C 
ATOM      7  C   LIG    1        3.065   7.017  -1.391  0.00  0.00    +0.060 C 
ATOM      8  C   LIG    1        2.984   6.371   0.008  0.00  0.00    +0.340 C 
ATOM      9  O   LIG    1        2.628   6.183   2.796  0.00  0.00    -0.570 OA
ENDROOT
BRANCH   8  10
ATOM     10  C   LIG    1        1.938   5.286   0.012  0.00  0.00    +0.090 A 
ATOM     11  N   LIG    1        2.200   4.034   0.003  0.00  0.00    -0.460 NA
ATOM     12  C   LIG    1        1.163   3.174   0.008  0.00  0.00    +0.080 A 
ATOM     13  C   LIG    1        1.162   1.765   0.000  0.00  0.00    +0.080 A 
ATOM     14  C   LIG    1       -0.013   1.076   0.008  0.00  0.00    +0.030 A 
ATOM     15  C   LIG    1       -1.228   1.745   0.017  0.00  0.00    +0.040 A 
ATOM     16  C   LIG    1       -1.258   3.122   0.032  0.00  0.00    +0.060 A 
ATOM     17  C   LIG    1       -0.066   3.843   0.023  0.00  0.00    -0.180 A 
ATOM     18  S   LIG    1        0.256   5.574   0.030  0.00  0.00    +0.110 S 
ENDBRANCH   8  10
BRANCH   1  19
ATOM     19  C   LIG    1        1.939   8.158   4.498  0.00  0.00    +0.340 C 
BRANCH  19  22
ATOM     20  C   LIG    1        2.127  11.562   6.137  0.00  0.00    +0.320 A 
ATOM     21  C   LIG    1        2.521  10.353   5.577  0.00  0.00    -0.030 A 
ATOM     22  C   LIG    1        1.553   9.477   5.117  0.00  0.00    -0.030 A 
ATOM     23  C   LIG    1        0.219   9.838   5.244  0.00  0.00    -0.050 A 
ATOM     24  C   LIG    1       -0.100  11.053   5.816  0.00  0.00    +0.300 A 
ATOM     25  N   LIG    1        0.845  11.870   6.240  0.00  0.00    -0.530 NA
BRANCH  20  27
ATOM     26  C   LIG    1        2.597  13.655   7.157  0.00  0.00    +0.260 C 
ATOM     27  O   LIG    1        3.066  12.431   6.587  0.00  0.00    -0.310 OA
ENDBRANCH  20  27
ENDBRANCH  19  22
ENDBRANCH   1  19
TORSDOF 4
