REMARK  Name = ZINCrD00000l4Ab9.0
REMARK                            x       y       z     vdW  Elec       q    Type
REMARK                         _______ _______ _______ _____ _____    ______ ____
ROOT
ATOM      1  S   LIG    1        0.402   6.280  -0.758  0.00  0.00    +2.680 S 
ATOM      2  O   LIG    1        0.823   5.237  -1.627  0.00  0.00    -0.930 OA
ATOM      3  O   LIG    1        1.229   7.380  -0.405  0.00  0.00    -0.950 OA
ENDROOT
BRANCH   1   7
ATOM      4  C   LIG    1       -0.811   4.287   3.128  0.00  0.00    +0.160 A 
ATOM      5  C   LIG    1       -1.234   3.764   1.917  0.00  0.00    -0.010 A 
ATOM      6  C   LIG    1       -0.862   4.374   0.732  0.00  0.00    +0.000 A 
ATOM      7  C   LIG    1       -0.070   5.508   0.754  0.00  0.00    -0.660 A 
ATOM      8  C   LIG    1        0.352   6.037   1.960  0.00  0.00    +0.080 A 
ATOM      9 BR   LIG    1       -1.435   3.655  -0.920  0.00  0.00    -0.010 Br
ATOM     10  C   LIG    1       -0.019   5.431   3.150  0.00  0.00    +0.100 A 
BRANCH   4  12
ATOM     11  C   LIG    1       -1.986   2.516   4.194  0.00  0.00    +0.250 C 
ATOM     12  O   LIG    1       -1.172   3.686   4.293  0.00  0.00    -0.290 OA
ENDBRANCH   4  12
BRANCH  10  13
ATOM     13  O   LIG    1        0.396   5.950   4.336  0.00  0.00    -0.300 OA
ATOM     14  C   LIG    1        1.212   7.122   4.282  0.00  0.00    +0.250 C 
ENDBRANCH  10  13
ENDBRANCH   1   7
BRANCH   1  15
ATOM     15  N   LIG    1       -0.969   6.922  -1.429  0.00  0.00    -0.980 NA
ATOM     16  C   LIG    1       -1.696   6.180  -2.462  0.00  0.00    +0.300 C 
BRANCH  15  17
ATOM     17  C   LIG    1       -1.455   8.232  -0.990  0.00  0.00    +0.350 C 
BRANCH  17  18
ATOM     18  C   LIG    1       -0.905   9.302  -1.897  0.00  0.00    -0.100 A 
ATOM     19  C   LIG    1        0.188  10.051  -1.500  0.00  0.00    +0.020 A 
ATOM     20  C   LIG    1        0.696  11.032  -2.330  0.00  0.00    +0.040 A 
ATOM     21  C   LIG    1        0.114  11.270  -3.562  0.00  0.00    -0.060 A 
ATOM     22  C   LIG    1       -0.981  10.523  -3.966  0.00  0.00    +0.110 A 
ATOM     23  C   LIG    1       -1.490   9.532  -3.132  0.00  0.00    +0.080 A 
BRANCH  22  24
ATOM     24  O   LIG    1       -1.555  10.756  -5.177  0.00  0.00    -0.310 OA
ATOM     25  C   LIG    1       -0.977  11.785  -5.982  0.00  0.00    +0.240 C 
ENDBRANCH  22  24
BRANCH  23  26
ATOM     26  O   LIG    1       -2.561   8.793  -3.526  0.00  0.00    -0.320 OA
ATOM     27  C   LIG    1       -3.855   9.293  -3.185  0.00  0.00    +0.210 C 
ENDBRANCH  23  26
ENDBRANCH  17  18
ENDBRANCH  15  17
ENDBRANCH   1  15
TORSDOF 8
