REMARK  Name = ZINCrD0000073wrS.0
REMARK                            x       y       z     vdW  Elec       q    Type
REMARK                         _______ _______ _______ _____ _____    ______ ____
ROOT
ATOM      1  C   LIG    1        0.792  -0.127   3.587  0.00  0.00    +0.520 C 
ATOM      2  N   LIG    1        0.905  -0.260   2.251  0.00  0.00    -0.720 N 
ATOM      3  H   LIG    1        1.765  -0.127   1.821  0.00  0.00    +0.400 HD
ATOM      4  O   LIG    1       -0.282  -0.293   4.125  0.00  0.00    -0.500 OA
ENDROOT
BRANCH   2   5
ATOM      5  C   LIG    1       -0.270  -0.604   1.447  0.00  0.00    +0.240 C 
ATOM      6  C   LIG    1       -0.439  -2.127   1.418  0.00  0.00    +0.030 C 
ATOM      7  C   LIG    1       -1.770  -2.449   0.735  0.00  0.00    +0.090 C 
ATOM      8  C   LIG    1       -1.880  -1.687  -0.554  0.00  0.00    +0.520 C 
ATOM      9  N   LIG    1       -1.127  -0.627  -0.850  0.00  0.00    -0.710 N 
ATOM     10  H   LIG    1       -1.289  -0.175  -1.693  0.00  0.00    +0.410 HD
ATOM     11  O   LIG    1       -2.698  -2.056  -1.371  0.00  0.00    -0.550 OA
ATOM     12  C   LIG    1       -0.077  -0.105   0.015  0.00  0.00    +0.270 C 
BRANCH  12  13
ATOM     13  C   LIG    1       -0.124   1.401   0.002  0.00  0.00    -0.110 A 
ATOM     14  C   LIG    1       -1.342   2.055   0.017  0.00  0.00    +0.020 A 
ATOM     15  C   LIG    1       -1.386   3.436   0.010  0.00  0.00    +0.010 A 
ATOM     16  C   LIG    1       -0.211   4.165  -0.022  0.00  0.00    +0.010 A 
ATOM     17  C   LIG    1        1.007   3.511  -0.042  0.00  0.00    +0.010 A 
ATOM     18  C   LIG    1        1.050   2.130  -0.030  0.00  0.00    +0.020 A 
ENDBRANCH  12  13
ENDBRANCH   2   5
BRANCH   1  19
ATOM     19  C   LIG    1        2.002   0.228   4.414  0.00  0.00    +0.000 C 
ATOM     20  C   LIG    1        2.184   1.747   4.426  0.00  0.00    +0.100 C 
BRANCH  19  21
ATOM     21  S   LIG    1        1.768  -0.366   6.112  0.00  0.00    -0.050 S 
BRANCH  21  25
ATOM     22  C   LIG    1        1.957  -4.870   5.651  0.00  0.00    +0.120 A 
ATOM     23  C   LIG    1        1.633  -4.312   6.879  0.00  0.00    +0.010 A 
ATOM     24  C   LIG    1        1.576  -2.940   7.021  0.00  0.00    +0.080 A 
ATOM     25  C   LIG    1        1.842  -2.118   5.933  0.00  0.00    -0.120 A 
ATOM     26  C   LIG    1        2.160  -2.678   4.702  0.00  0.00    +0.030 A 
ATOM     27  C   LIG    1        2.222  -4.050   4.564  0.00  0.00    -0.060 A 
BRANCH  22  29
ATOM     28  C   LIG    1        2.352  -6.728   4.220  0.00  0.00    +0.250 C 
ATOM     29  O   LIG    1        2.013  -6.222   5.512  0.00  0.00    -0.320 OA
ENDBRANCH  22  29
ENDBRANCH  21  25
ENDBRANCH  19  21
ENDBRANCH   1  19
TORSDOF 6
