REMARK  Name = ZINCpk00000yEuPN.0
REMARK                            x       y       z     vdW  Elec       q    Type
REMARK                         _______ _______ _______ _____ _____    ______ ____
ROOT
ATOM      1  C   LIG    1       -0.623   2.154   0.014  0.00  0.00    -0.160 A 
ATOM      2  C   LIG    1        0.682   2.617   0.004  0.00  0.00    +0.380 A 
ATOM      3  N   LIG    1        0.651   3.941   0.001  0.00  0.00    -0.490 NA
ATOM      4  C   LIG    1       -0.612   4.367   0.018  0.00  0.00    +0.480 A 
ATOM      5  N   LIG    1       -1.128   5.601   0.027  0.00  0.00    -0.520 NA
ATOM      6  C   LIG    1       -2.436   5.789   0.045  0.00  0.00    +0.470 A 
ATOM      7  C   LIG    1       -3.310   4.683   0.054  0.00  0.00    -0.070 A 
ATOM      8  C   LIG    1       -2.789   3.433   0.044  0.00  0.00    +0.350 A 
ATOM      9  N   LIG    1       -1.435   3.277   0.027  0.00  0.00    -0.400 N 
ENDROOT
BRANCH   6  10
ATOM     10  N   LIG    1       -2.948   7.071   0.054  0.00  0.00    -0.590 N 
ATOM     11  C   LIG    1       -2.061   8.240   0.167  0.00  0.00    +0.280 C 
ATOM     12  C   LIG    1       -2.417   9.226  -0.951  0.00  0.00    +0.230 C 
ATOM     13  O   LIG    1       -3.822   9.490  -0.916  0.00  0.00    -0.370 OA
ATOM     14  C   LIG    1       -4.639   8.342  -1.156  0.00  0.00    +0.220 C 
ATOM     15  C   LIG    1       -4.396   7.310  -0.055  0.00  0.00    +0.300 C 
BRANCH  14  16
ATOM     16  C   LIG    1       -6.090   8.748  -1.156  0.00  0.00    +0.120 A 
ATOM     17  C   LIG    1       -6.426  10.083  -1.041  0.00  0.00    +0.010 A 
ATOM     18  C   LIG    1       -7.764  10.447  -1.047  0.00  0.00    +0.060 A 
ATOM     19  C   LIG    1       -8.718   9.447  -1.159  0.00  0.00    -0.030 A 
ATOM     20  C   LIG    1       -8.307   8.132  -1.266  0.00  0.00    +0.260 A 
ATOM     21  N   LIG    1       -7.025   7.824  -1.262  0.00  0.00    -0.480 NA
ENDBRANCH  14  16
ENDBRANCH   6  10
BRANCH   1  22
ATOM     22  C   LIG    1       -1.043   0.803   0.017  0.00  0.00    +0.550 C 
ATOM     23  O   LIG    1       -0.217  -0.091   0.005  0.00  0.00    -0.500 OA
BRANCH  22  25
ATOM     24  C   LIG    1       -2.711  -0.880   0.047  0.00  0.00    +0.260 C 
ATOM     25  O   LIG    1       -2.359   0.505   0.040  0.00  0.00    -0.370 OA
ENDBRANCH  22  25
ENDBRANCH   1  22
TORSDOF 4
