REMARK  Name = ZINCAx0000000c00.0
REMARK                            x       y       z     vdW  Elec       q    Type
REMARK                         _______ _______ _______ _____ _____    ______ ____
ROOT
ATOM      1  C   LIG    1        6.049   3.246   1.148  0.00  0.00    -0.020 C 
ATOM      2  C   LIG    1        4.775   3.907   0.618  0.00  0.00    +0.030 C 
ATOM      3  C   LIG    1        3.631   2.891   0.628  0.00  0.00    +0.030 C 
ATOM      4  C   LIG    1        3.997   1.702  -0.263  0.00  0.00    -0.020 C 
ATOM      5  C   LIG    1        5.271   1.041   0.267  0.00  0.00    +0.030 C 
ATOM      6  C   LIG    1        6.415   2.057   0.257  0.00  0.00    +0.050 C 
ENDROOT
BRANCH   1  12
ATOM      7  C   LIG    1        7.295   5.074   4.589  0.00  0.00    +0.270 C 
ATOM      8  C   LIG    1        6.420   5.064   3.325  0.00  0.00    +0.280 C 
ATOM      9  N   LIG    1        7.307   5.124   2.152  0.00  0.00    -0.620 N 
ATOM     10  C   LIG    1        8.337   6.175   2.117  0.00  0.00    +0.260 C 
ATOM     11  C   LIG    1        9.115   6.133   3.437  0.00  0.00    +0.230 C 
ATOM     12  C   LIG    1        7.176   4.246   1.138  0.00  0.00    +0.520 C 
ATOM     13  O   LIG    1        7.965   4.262   0.217  0.00  0.00    -0.530 OA
ATOM     14  O   LIG    1        8.193   6.184   4.529  0.00  0.00    -0.370 OA
BRANCH   7  17
ATOM     15  C   LIG    1        5.330   4.771   7.571  0.00  0.00    +0.190 A 
ATOM     16  N   LIG    1        6.110   4.219   6.673  0.00  0.00    -0.470 NA
ATOM     17  C   LIG    1        6.417   5.201   5.807  0.00  0.00    +0.170 A 
ATOM     18  N   LIG    1        5.814   6.279   6.211  0.00  0.00    -0.350 NA
ATOM     19  O   LIG    1        5.184   6.053   7.223  0.00  0.00    +0.090 OA
BRANCH  15  21
ATOM     20  C   LIG    1        5.184   4.780  10.047  0.00  0.00    +0.060 C 
ATOM     21  C   LIG    1        4.713   4.090   8.765  0.00  0.00    +0.120 C 
ATOM     22  C   LIG    1        3.189   4.176   8.670  0.00  0.00    +0.060 C 
ENDBRANCH  15  21
ENDBRANCH   7  17
ENDBRANCH   1  12
BRANCH   4  23
ATOM     23  C   LIG    1        2.853   0.686  -0.253  0.00  0.00    +0.260 C 
BRANCH  23  24
ATOM     24  N   LIG    1        1.666   1.282  -0.870  0.00  0.00    -0.720 N 
ATOM     25  H   LIG    1        1.698   2.191  -1.205  0.00  0.00    +0.400 HD
ATOM     26  C   LIG    1        0.528   0.566  -0.972  0.00  0.00    +0.550 C 
ATOM     27  O   LIG    1        0.488  -0.574  -0.551  0.00  0.00    -0.510 OA
BRANCH  26  28
ATOM     28  C   LIG    1       -0.666   1.164  -1.599  0.00  0.00    -0.100 A 
ATOM     29  C   LIG    1       -0.626   2.475  -2.078  0.00  0.00    +0.060 A 
ATOM     30  C   LIG    1       -1.742   3.031  -2.668  0.00  0.00    +0.050 A 
ATOM     31  C   LIG    1       -2.912   2.300  -2.782  0.00  0.00    +0.070 A 
ATOM     32  C   LIG    1       -2.969   1.000  -2.307  0.00  0.00    +0.060 A 
ATOM     33  N   LIG    1       -3.976   0.035  -2.277  0.00  0.00    -0.650 N 
ATOM     34  H   LIG    1       -4.879   0.137  -2.617  0.00  0.00    +0.450 HD
ATOM     35  C   LIG    1       -3.466  -1.065  -1.688  0.00  0.00    +0.640 A 
ATOM     36  O   LIG    1       -4.069  -2.103  -1.495  0.00  0.00    -0.480 OA
ATOM     37  O   LIG    1       -2.187  -0.836  -1.348  0.00  0.00    -0.210 OA
ATOM     38  C   LIG    1       -1.848   0.422  -1.712  0.00  0.00    +0.100 A 
ENDBRANCH  26  28
ENDBRANCH  23  24
ENDBRANCH   4  23
TORSDOF 6
