REMARK  Name = ZINCrH000004m5Gm.0
REMARK                            x       y       z     vdW  Elec       q    Type
REMARK                         _______ _______ _______ _____ _____    ______ ____
ROOT
ATOM      1  N   LIG    1        5.233   1.128   1.405  0.00  0.00    -0.530 NA
ATOM      2  C   LIG    1        5.875   2.310   1.997  0.00  0.00    +0.190 C 
ATOM      3  C   LIG    1        6.232   2.017   3.456  0.00  0.00    +0.200 C 
ATOM      4  N   LIG    1        7.125   0.852   3.514  0.00  0.00    -0.490 N 
ATOM      5  C   LIG    1        6.484  -0.331   2.922  0.00  0.00    +0.200 C 
ATOM      6  C   LIG    1        6.127  -0.037   1.463  0.00  0.00    +0.200 C 
ENDROOT
BRANCH   4   7
ATOM      7  C   LIG    1        7.529   0.598   4.820  0.00  0.00    +0.190 A 
ATOM      8  C   LIG    1        6.921   1.258   5.879  0.00  0.00    -0.030 A 
ATOM      9  C   LIG    1        7.322   1.005   7.176  0.00  0.00    +0.110 A 
ATOM     10  C   LIG    1        8.332   0.094   7.433  0.00  0.00    -0.030 A 
ATOM     11  C   LIG    1        8.950  -0.574   6.394  0.00  0.00    +0.170 A 
ATOM     12  F   LIG    1        9.935  -1.462   6.651  0.00  0.00    -0.120 F 
ATOM     13  C   LIG    1        8.550  -0.332   5.075  0.00  0.00    -0.080 A 
BRANCH  13  14
ATOM     14  C   LIG    1        9.182  -1.024   3.992  0.00  0.00    +0.260 C 
ATOM     15  N   LIG    1        9.683  -1.572   3.132  0.00  0.00    -0.400 NA
ENDBRANCH  13  14
ENDBRANCH   4   7
BRANCH   1  16
ATOM     16  C   LIG    1        4.807   1.396   0.025  0.00  0.00    +0.230 C 
BRANCH  16  19
ATOM     17  C   LIG    1        1.379   2.983   0.122  0.00  0.00    +0.120 A 
ATOM     18  C   LIG    1        2.389   2.034   0.122  0.00  0.00    -0.020 A 
ATOM     19  C   LIG    1        3.710   2.430   0.030  0.00  0.00    -0.040 A 
ATOM     20  C   LIG    1        4.029   3.773  -0.052  0.00  0.00    +0.030 A 
ATOM     21  C   LIG    1        3.026   4.726  -0.047  0.00  0.00    -0.080 A 
ATOM     22 BR   LIG    1        3.465   6.562  -0.160  0.00  0.00    -0.020 Br
ATOM     23  C   LIG    1        1.699   4.335   0.040  0.00  0.00    +0.090 A 
BRANCH  17  25
ATOM     24  C   LIG    1       -0.175   1.190   0.289  0.00  0.00    +0.240 C 
ATOM     25  O   LIG    1        0.079   2.594   0.207  0.00  0.00    -0.300 OA
ENDBRANCH  17  25
BRANCH  23  26
ATOM     26  O   LIG    1        0.711   5.270   0.044  0.00  0.00    -0.320 OA
ATOM     27  C   LIG    1        0.305   5.779   1.316  0.00  0.00    +0.230 C 
ENDBRANCH  23  26
ENDBRANCH  16  19
ENDBRANCH   1  16
TORSDOF 6
