REMARK  Name = ZINCrD00000F5Lnh.0
REMARK                            x       y       z     vdW  Elec       q    Type
REMARK                         _______ _______ _______ _____ _____    ______ ____
ROOT
ATOM      1  C   LIG    1        1.213  -0.395   0.020  0.00  0.00    +0.180 A 
ATOM      2  N   LIG    1       -0.019   0.037   0.053  0.00  0.00    -0.290 NA
ATOM      3  N   LIG    1       -0.027   1.323   0.056  0.00  0.00    -0.280 NA
ATOM      4  C   LIG    1        1.198   1.768   0.037  0.00  0.00    +0.170 A 
ATOM      5  C   LIG    1        1.634   3.208   0.091  0.00  0.00    +0.180 C 
ATOM      6  C   LIG    1        2.713   3.448  -0.970  0.00  0.00    +0.270 C 
ATOM      7  N   LIG    1        4.006   3.048  -0.414  0.00  0.00    -0.630 N 
ATOM      8  C   LIG    1        4.058   1.938   0.551  0.00  0.00    +0.330 C 
ATOM      9  C   LIG    1        3.480   0.681  -0.105  0.00  0.00    +0.300 C 
ATOM     10  C   LIG    1        5.135   3.687  -0.781  0.00  0.00    +0.710 C 
ATOM     11  N   LIG    1        5.077   4.702  -1.665  0.00  0.00    -0.680 N 
ATOM     12  H   LIG    1        4.238   4.919  -2.100  0.00  0.00    +0.410 HD
ATOM     13  O   LIG    1        6.205   3.347  -0.314  0.00  0.00    -0.560 OA
ATOM     14  N   LIG    1        2.020   0.694  -0.012  0.00  0.00    -0.470 N 
ENDROOT
BRANCH  11  15
ATOM     15  C   LIG    1        6.230   5.443  -1.957  0.00  0.00    +0.140 A 
ATOM     16  C   LIG    1        7.260   5.513  -1.034  0.00  0.00    +0.070 A 
ATOM     17  C   LIG    1        8.409   6.248  -1.331  0.00  0.00    -0.000 A 
ATOM     18  C   LIG    1        8.508   6.917  -2.552  0.00  0.00    +0.050 A 
ATOM     19  C   LIG    1        7.475   6.846  -3.464  0.00  0.00    +0.030 A 
ATOM     20  C   LIG    1        6.338   6.113  -3.172  0.00  0.00    +0.070 A 
ATOM     21  F   LIG    1        5.330   6.047  -4.069  0.00  0.00    -0.140 F 
BRANCH  17  22
ATOM     22  C   LIG    1        9.514   6.322  -0.353  0.00  0.00    +0.020 A 
ATOM     23  C   LIG    1       10.682   7.000  -0.519  0.00  0.00    -0.040 A 
ATOM     24  C   LIG    1       11.437   6.800   0.655  0.00  0.00    -0.060 A 
ATOM     25  C   LIG    1       10.704   6.013   1.466  0.00  0.00    +0.180 A 
ATOM     26  O   LIG    1        9.543   5.726   0.854  0.00  0.00    -0.170 OA
ENDBRANCH  17  22
ENDBRANCH  11  15
BRANCH   1  28
ATOM     27  C   LIG    1        1.764  -2.335  -1.422  0.00  0.00    +0.040 C 
ATOM     28  C   LIG    1        1.656  -1.835   0.020  0.00  0.00    +0.140 C 
ENDBRANCH   1  28
TORSDOF 3
