REMARK  Name = ZINCpe00000ZuBo0.0
REMARK                            x       y       z     vdW  Elec       q    Type
REMARK                         _______ _______ _______ _____ _____    ______ ____
ROOT
ATOM      1  C   LIG    1       -2.564  -2.687  -0.215  0.00  0.00    +0.250 C 
ENDROOT
BRANCH   1   2
ATOM      2  C   LIG    1       -2.554  -4.212  -0.099  0.00  0.00    -0.030 C 
ATOM      3  C   LIG    1       -2.179  -4.928  -1.407  0.00  0.00    +0.020 C 
ATOM      4  C   LIG    1       -3.271  -5.958  -1.063  0.00  0.00    +0.010 C 
ATOM      5  C   LIG    1       -3.947  -4.849  -0.239  0.00  0.00    +0.030 C 
ENDBRANCH   1   2
BRANCH   1   6
ATOM      6  N   LIG    1       -3.382  -2.120   0.860  0.00  0.00    -0.710 N 
ATOM      7  H   LIG    1       -2.963  -1.823   1.683  0.00  0.00    +0.410 HD
ATOM      8  C   LIG    1       -4.716  -2.010   0.705  0.00  0.00    +0.610 C 
ATOM      9  O   LIG    1       -5.241  -2.382  -0.327  0.00  0.00    -0.520 OA
BRANCH   8  10
ATOM     10  C   LIG    1       -5.540  -1.439   1.788  0.00  0.00    +0.000 A 
ATOM     11  C   LIG    1       -6.895  -1.273   1.760  0.00  0.00    +0.190 A 
ATOM     12  N   LIG    1       -7.254  -0.716   2.951  0.00  0.00    -0.370 N 
ATOM     13  C   LIG    1       -8.465  -0.338   3.461  0.00  0.00    +0.270 A 
ATOM     14  C   LIG    1       -8.554   0.201   4.693  0.00  0.00    +0.000 A 
ATOM     15  C   LIG    1       -7.397   0.383   5.475  0.00  0.00    +0.130 A 
ATOM     16  C   LIG    1       -6.184   0.011   4.980  0.00  0.00    +0.050 A 
ATOM     17  F   LIG    1       -7.490   0.924   6.709  0.00  0.00    -0.120 F 
ATOM     18  C   LIG    1       -6.108  -0.551   3.689  0.00  0.00    +0.250 A 
ATOM     19  N   LIG    1       -5.086  -0.997   2.976  0.00  0.00    -0.460 NA
ENDBRANCH   8  10
ENDBRANCH   1   6
BRANCH   1  20
ATOM     20  C   LIG    1       -1.133  -2.158  -0.101  0.00  0.00    +0.280 C 
BRANCH  20  22
ATOM     21  C   LIG    1        0.002  -0.004   0.002  0.00  0.00    +0.480 C 
ATOM     22  N   LIG    1       -1.152  -0.693  -0.092  0.00  0.00    -0.730 N 
ATOM     23  H   LIG    1       -1.996  -0.219  -0.155  0.00  0.00    +0.400 HD
ATOM     24  O   LIG    1        1.057  -0.597   0.080  0.00  0.00    -0.530 OA
BRANCH  21  26
ATOM     25  C   LIG    1       -0.735   1.996   1.269  0.00  0.00    +0.040 C 
ATOM     26  C   LIG    1       -0.018   1.503   0.010  0.00  0.00    +0.210 C 
BRANCH  26  27
ATOM     27  O   LIG    1        1.322   1.997   0.000  0.00  0.00    -0.540 OA
ATOM     28  H   LIG    1        1.851   1.715   0.759  0.00  0.00    +0.390 HD
ENDBRANCH  26  27
ENDBRANCH  21  26
ENDBRANCH  20  22
ENDBRANCH   1  20
TORSDOF 7
