REMARK  Name = ZINCqH0000005yqv.0
REMARK                            x       y       z     vdW  Elec       q    Type
REMARK                         _______ _______ _______ _____ _____    ______ ____
ROOT
ATOM      1  C   LIG    1        3.016   0.377   1.148  0.00  0.00    +0.360 A 
ATOM      2  N   LIG    1        4.145   1.040   1.210  0.00  0.00    -0.530 NA
ATOM      3  C   LIG    1        4.794   1.439   0.090  0.00  0.00    +0.160 A 
ATOM      4  C   LIG    1        5.995   2.150   0.157  0.00  0.00    +0.030 A 
ATOM      5  C   LIG    1        6.623   2.538  -1.005  0.00  0.00    +0.070 A 
ATOM      6  C   LIG    1        6.078   2.232  -2.245  0.00  0.00    +0.000 A 
ATOM      7  C   LIG    1        4.895   1.532  -2.337  0.00  0.00    +0.100 A 
ATOM      8  C   LIG    1        4.242   1.129  -1.174  0.00  0.00    -0.200 A 
ATOM      9  C   LIG    1        2.978   0.380  -1.214  0.00  0.00    +0.560 A 
ATOM     10  O   LIG    1        2.454   0.084  -2.273  0.00  0.00    -0.490 OA
ATOM     11  N   LIG    1        2.418   0.032  -0.033  0.00  0.00    -0.480 N 
ENDROOT
BRANCH  11  12
ATOM     12  C   LIG    1        1.214  -0.683  -0.019  0.00  0.00    +0.090 A 
ATOM     13  C   LIG    1        1.228  -2.071  -0.020  0.00  0.00    +0.040 A 
ATOM     14  C   LIG    1        0.039  -2.773  -0.012  0.00  0.00    +0.020 A 
ATOM     15  C   LIG    1       -1.166  -2.094   0.002  0.00  0.00    +0.040 A 
ATOM     16  C   LIG    1       -1.184  -0.711   0.009  0.00  0.00    +0.020 A 
ATOM     17  C   LIG    1        0.002  -0.004   0.002  0.00  0.00    -0.040 A 
BRANCH  17  18
ATOM     18  C   LIG    1       -0.018   1.503   0.010  0.00  0.00    +0.010 C 
ATOM     19  C   LIG    1       -0.735   1.996   1.269  0.00  0.00    +0.030 C 
ATOM     20  C   LIG    1       -0.758   2.010  -1.229  0.00  0.00    +0.040 C 
ENDBRANCH  17  18
ENDBRANCH  11  12
BRANCH   1  21
ATOM     21  S   LIG    1        2.237  -0.097   2.655  0.00  0.00    +0.090 S 
BRANCH  21  22
ATOM     22  C   LIG    1        3.412   0.591   3.847  0.00  0.00    +0.150 C 
BRANCH  22  23
ATOM     23  C   LIG    1        2.937   0.298   5.247  0.00  0.00    +0.480 C 
ATOM     24  O   LIG    1        1.910  -0.313   5.421  0.00  0.00    -0.490 OA
BRANCH  23  26
ATOM     25  C   LIG    1        3.139   0.398   7.619  0.00  0.00    +0.290 C 
ATOM     26  O   LIG    1        3.656   0.716   6.301  0.00  0.00    -0.350 OA
ENDBRANCH  23  26
ENDBRANCH  22  23
ENDBRANCH  21  22
ENDBRANCH   1  21
TORSDOF 6
