REMARK  Name = ZINCrg000000sN4O.0
REMARK                            x       y       z     vdW  Elec       q    Type
REMARK                         _______ _______ _______ _____ _____    ______ ____
ROOT
ATOM      1  C   LIG    1        0.326  -4.656   4.225  0.00  0.00    -0.040 C 
ATOM      2  C   LIG    1       -0.166  -4.327   3.052  0.00  0.00    -0.030 C 
ATOM      3  C   LIG    1        0.308  -3.144   2.262  0.00  0.00    +0.320 C 
ATOM      4  N   LIG    1        1.179  -2.312   3.104  0.00  0.00    -0.630 N 
ATOM      5  C   LIG    1        2.168  -3.006   3.946  0.00  0.00    +0.310 C 
ATOM      6  C   LIG    1        1.074  -0.969   3.110  0.00  0.00    +0.720 C 
ATOM      7  N   LIG    1        0.095  -0.366   2.405  0.00  0.00    -0.740 N 
ATOM      8  H   LIG    1       -0.486  -0.893   1.835  0.00  0.00    +0.390 HD
ATOM      9  O   LIG    1        1.861  -0.299   3.750  0.00  0.00    -0.580 OA
ATOM     10  C   LIG    1        1.407  -3.895   4.933  0.00  0.00    +0.080 C 
ENDROOT
BRANCH   7  11
ATOM     11  C   LIG    1       -0.089   1.084   2.499  0.00  0.00    +0.280 C 
ATOM     12  C   LIG    1       -0.982   1.412   3.702  0.00  0.00    +0.030 C 
ATOM     13  C   LIG    1       -2.259   0.573   3.599  0.00  0.00    +0.070 C 
ATOM     14  C   LIG    1       -2.839   0.692   2.219  0.00  0.00    +0.520 C 
ATOM     15  N   LIG    1       -2.149   1.134   1.166  0.00  0.00    -0.720 N 
ATOM     16  H   LIG    1       -2.594   1.147   0.304  0.00  0.00    +0.400 HD
ATOM     17  O   LIG    1       -3.996   0.369   2.053  0.00  0.00    -0.550 OA
ATOM     18  C   LIG    1       -0.769   1.598   1.230  0.00  0.00    +0.230 C 
BRANCH  18  19
ATOM     19  C   LIG    1       -0.007   1.087   0.005  0.00  0.00    +0.160 C 
ATOM     20  C   LIG    1       -0.654   1.624  -1.296  0.00  0.00    +0.020 C 
ATOM     21  C   LIG    1        0.552   1.563  -2.272  0.00  0.00    +0.020 C 
ATOM     22  C   LIG    1        1.742   1.889  -1.344  0.00  0.00    +0.190 C 
ATOM     23  O   LIG    1        1.333   1.606  -0.001  0.00  0.00    -0.370 OA
ENDBRANCH  18  19
ENDBRANCH   7  11
BRANCH   1  29
ATOM     24  C   LIG    1       -2.659  -5.205   4.871  0.00  0.00    +0.340 C 
ATOM     25  N   LIG    1       -1.534  -6.093   5.173  0.00  0.00    -0.370 N 
ATOM     26  N   LIG    1       -1.613  -7.340   5.804  0.00  0.00    -0.290 NA
ATOM     27  C   LIG    1       -0.407  -7.839   5.903  0.00  0.00    +0.240 A 
ATOM     28  C   LIG    1        0.497  -6.941   5.336  0.00  0.00    -0.100 A 
ATOM     29  C   LIG    1       -0.221  -5.852   4.889  0.00  0.00    +0.100 A 
ENDBRANCH   1  29
TORSDOF 3
