REMARK  Name = ZINCrD000000ADVE.0
REMARK                            x       y       z     vdW  Elec       q    Type
REMARK                         _______ _______ _______ _____ _____    ______ ____
ROOT
ATOM      1  O   LIG    1        4.751  -0.225  -0.749  0.00  0.00    -0.510 OA
ATOM      2  C   LIG    1        4.055   0.165  -1.662  0.00  0.00    +0.490 C 
ATOM      3  N   LIG    1        2.902   0.813  -1.402  0.00  0.00    -0.720 N 
ATOM      4  H   LIG    1        2.346   1.125  -2.132  0.00  0.00    +0.410 HD
ENDROOT
BRANCH   3   5
ATOM      5  C   LIG    1        2.490   1.045  -0.016  0.00  0.00    +0.350 C 
BRANCH   5   6
ATOM      6  C   LIG    1        1.176   1.783   0.000  0.00  0.00    -0.100 A 
ATOM      7  C   LIG    1        1.161   3.165   0.008  0.00  0.00    +0.090 A 
ATOM      8  C   LIG    1       -0.043   3.847   0.023  0.00  0.00    -0.080 A 
ATOM      9  C   LIG    1       -1.237   3.144   0.030  0.00  0.00    +0.070 A 
ATOM     10  O   LIG    1       -2.535   3.566   0.044  0.00  0.00    -0.290 OA
ATOM     11  C   LIG    1       -3.313   2.427  -0.381  0.00  0.00    +0.440 C 
ATOM     12  O   LIG    1       -2.510   1.301   0.021  0.00  0.00    -0.300 OA
ATOM     13  C   LIG    1       -1.222   1.752   0.017  0.00  0.00    +0.040 A 
ATOM     14 BR   LIG    1       -0.058   5.738   0.033  0.00  0.00    -0.020 Br
ATOM     15  C   LIG    1       -0.013   1.076   0.008  0.00  0.00    +0.080 A 
ENDBRANCH   5   6
ENDBRANCH   3   5
BRANCH   2  16
ATOM     16  C   LIG    1        4.480  -0.074  -3.088  0.00  0.00    +0.340 C 
BRANCH  16  17
ATOM     17  N   LIG    1        5.757  -0.791  -3.104  0.00  0.00    -0.460 N 
ATOM     18  C   LIG    1        6.988  -0.203  -3.216  0.00  0.00    +0.240 A 
ATOM     19  C   LIG    1        7.947  -1.141  -3.195  0.00  0.00    -0.020 A 
ATOM     20  C   LIG    1        7.276  -2.437  -3.067  0.00  0.00    -0.110 A 
ATOM     21  C   LIG    1        7.722  -3.758  -2.996  0.00  0.00    +0.170 A 
ATOM     22  C   LIG    1        6.816  -4.774  -2.876  0.00  0.00    -0.070 A 
ATOM     23  C   LIG    1        5.456  -4.504  -2.822  0.00  0.00    +0.110 A 
ATOM     24  C   LIG    1        4.994  -3.208  -2.891  0.00  0.00    +0.020 A 
ATOM     25  C   LIG    1        5.898  -2.158  -3.014  0.00  0.00    +0.150 A 
BRANCH  22  26
ATOM     26  N   LIG    1        7.290  -6.175  -2.801  0.00  0.00    +0.030 N 
ATOM     27  O   LIG    1        6.487  -7.084  -2.693  0.00  0.00    -0.170 OA
ATOM     28  O   LIG    1        8.482  -6.418  -2.846  0.00  0.00    -0.170 OA
ENDBRANCH  22  26
ENDBRANCH  16  17
ENDBRANCH   2  16
TORSDOF 5
