REMARK  Name = ZINCvU00000007k3.0
REMARK                            x       y       z     vdW  Elec       q    Type
REMARK                         _______ _______ _______ _____ _____    ______ ____
ROOT
ATOM      1  C   LIG    1       -9.002   1.418  -4.449  0.00  0.00    +0.020 C 
ATOM      2  C   LIG    1       -9.407  -0.016  -4.796  0.00  0.00    -0.020 C 
ATOM      3  C   LIG    1      -10.815  -0.015  -5.398  0.00  0.00    +0.020 C 
ATOM      4  C   LIG    1      -11.801   0.593  -4.399  0.00  0.00    +0.010 C 
ATOM      5  C   LIG    1      -11.822  -0.257  -3.125  0.00  0.00    +0.290 C 
ATOM      6  N   LIG    1      -10.448  -0.381  -2.617  0.00  0.00    -0.580 N 
ATOM      7  C   LIG    1      -10.155  -0.053  -1.344  0.00  0.00    +0.570 C 
ATOM      8  O   LIG    1       -8.995   0.030  -0.989  0.00  0.00    -0.500 OA
ATOM      9  C   LIG    1       -9.401  -0.871  -3.524  0.00  0.00    +0.240 C 
ENDROOT
BRANCH   7  10
ATOM     10  C   LIG    1      -11.245   0.207  -0.376  0.00  0.00    +0.090 A 
ATOM     11  N   LIG    1      -12.504  -0.024  -0.726  0.00  0.00    -0.420 NA
ATOM     12  C   LIG    1      -13.502   0.193   0.102  0.00  0.00    +0.290 A 
ATOM     13  C   LIG    1      -13.273   0.676   1.383  0.00  0.00    -0.060 A 
ATOM     14  C   LIG    1      -11.972   0.931   1.790  0.00  0.00    +0.090 A 
ATOM     15 CL   LIG    1      -14.601   0.958   2.464  0.00  0.00    -0.030 Cl
ATOM     16  C   LIG    1      -10.939   0.688   0.897  0.00  0.00    -0.030 A 
ATOM     17 CL   LIG    1       -9.291   0.982   1.355  0.00  0.00    +0.000 Cl
ENDBRANCH   7  10
BRANCH   9  18
ATOM     18  C   LIG    1       -8.037  -0.762  -2.840  0.00  0.00    +0.060 C 
BRANCH  18  19
ATOM     19  C   LIG    1       -6.950  -1.281  -3.783  0.00  0.00    +0.250 C 
BRANCH  19  20
ATOM     20  N   LIG    1       -5.635  -1.081  -3.169  0.00  0.00    -0.720 N 
ATOM     21  H   LIG    1       -5.566  -0.672  -2.292  0.00  0.00    +0.400 HD
ATOM     22  C   LIG    1       -4.521  -1.465  -3.823  0.00  0.00    +0.590 C 
ATOM     23  O   LIG    1       -4.607  -1.978  -4.924  0.00  0.00    -0.530 OA
BRANCH  22  24
ATOM     24  C   LIG    1       -3.205  -1.265  -3.209  0.00  0.00    -0.270 A 
ATOM     25  C   LIG    1       -2.008  -1.610  -3.770  0.00  0.00    +0.100 A 
ATOM     26  C   LIG    1       -0.928  -1.309  -2.975  0.00  0.00    +0.000 A 
ATOM     27  C   LIG    1       -1.228  -0.737  -1.803  0.00  0.00    -0.180 A 
ATOM     28  S   LIG    1       -2.915  -0.549  -1.630  0.00  0.00    +0.200 S 
BRANCH  27  29
ATOM     29  C   LIG    1       -0.211  -0.320  -0.771  0.00  0.00    +0.150 C 
BRANCH  29  30
ATOM     30  C   LIG    1        0.221   1.123  -1.035  0.00  0.00    -0.040 C 
ATOM     31  C   LIG    1       -0.104   2.166   0.036  0.00  0.00    +0.020 C 
ATOM     32  C   LIG    1        1.338   1.697  -0.162  0.00  0.00    +0.020 C 
ENDBRANCH  29  30
ENDBRANCH  27  29
ENDBRANCH  22  24
ENDBRANCH  19  20
ENDBRANCH  18  19
ENDBRANCH   9  18
TORSDOF 7
