REMARK  Name = ZINCrD0000075eYU.0
REMARK                            x       y       z     vdW  Elec       q    Type
REMARK                         _______ _______ _______ _____ _____    ______ ____
ROOT
ATOM      1  N   LIG    1       -2.925   0.683   1.402  0.00  0.00    -0.740 N 
ATOM      2  H   LIG    1       -2.381   1.004   2.138  0.00  0.00    +0.400 HD
ATOM      3  C   LIG    1       -4.059  -0.002   1.650  0.00  0.00    +0.710 C 
ATOM      4  N   LIG    1       -4.436  -0.242   2.921  0.00  0.00    -0.680 N 
ATOM      5  H   LIG    1       -3.859   0.018   3.656  0.00  0.00    +0.410 HD
ATOM      6  O   LIG    1       -4.741  -0.405   0.727  0.00  0.00    -0.570 OA
ENDROOT
BRANCH   4   7
ATOM      7  C   LIG    1       -5.661  -0.868   3.182  0.00  0.00    +0.120 A 
ATOM      8  C   LIG    1       -6.404  -0.522   4.304  0.00  0.00    +0.230 A 
ATOM      9  N   LIG    1       -7.561  -1.102   4.556  0.00  0.00    -0.460 NA
ATOM     10  C   LIG    1       -8.058  -2.035   3.770  0.00  0.00    +0.250 A 
ATOM     11  C   LIG    1       -7.373  -2.443   2.627  0.00  0.00    -0.070 A 
ATOM     12  C   LIG    1       -6.147  -1.849   2.323  0.00  0.00    +0.090 A 
BRANCH  11  13
ATOM     13  C   LIG    1       -7.939  -3.495   1.745  0.00  0.00    -0.050 A 
ATOM     14  C   LIG    1       -7.250  -3.893   0.602  0.00  0.00    +0.030 A 
ATOM     15  C   LIG    1       -7.779  -4.875  -0.212  0.00  0.00    +0.010 A 
ATOM     16  C   LIG    1       -8.995  -5.456   0.101  0.00  0.00    +0.010 A 
ATOM     17  C   LIG    1       -9.685  -5.060   1.232  0.00  0.00    +0.010 A 
ATOM     18  C   LIG    1       -9.164  -4.083   2.056  0.00  0.00    +0.020 A 
ENDBRANCH  11  13
ENDBRANCH   4   7
BRANCH   1  19
ATOM     19  C   LIG    1       -2.515   0.945   0.020  0.00  0.00    +0.350 C 
BRANCH  19  26
ATOM     20  C   LIG    1        3.625   3.621  -0.014  0.00  0.00    +0.360 C 
ATOM     21  N   LIG    1        2.196   3.946   0.002  0.00  0.00    -0.390 N 
ATOM     22  N   LIG    1        1.660   5.237   0.015  0.00  0.00    -0.240 NA
ATOM     23  C   LIG    1        0.359   5.181   0.028  0.00  0.00    +0.290 A 
ATOM     24  C   LIG    1       -0.024   3.773   0.023  0.00  0.00    -0.230 A 
ATOM     25  C   LIG    1       -1.247   3.093   0.032  0.00  0.00    +0.170 A 
ATOM     26  C   LIG    1       -1.225   1.723   0.017  0.00  0.00    -0.210 A 
ATOM     27  C   LIG    1       -0.008   1.056   0.006  0.00  0.00    +0.360 A 
ATOM     28  N   LIG    1        1.135   1.707  -0.002  0.00  0.00    -0.500 NA
ATOM     29  C   LIG    1        1.176   3.034   0.006  0.00  0.00    +0.320 A 
ENDBRANCH  19  26
ENDBRANCH   1  19
TORSDOF 4
