REMARK  Name = ZINCrH00000No4zX.0
REMARK                            x       y       z     vdW  Elec       q    Type
REMARK                         _______ _______ _______ _____ _____    ______ ____
ROOT
ATOM      1  O   LIG    1       -2.464  -0.227  -0.216  0.00  0.00    -0.530 OA
ATOM      2  C   LIG    1       -2.467   0.986  -0.114  0.00  0.00    +0.560 C 
ATOM      3  N   LIG    1       -3.621   1.639   0.130  0.00  0.00    -0.590 N 
ENDROOT
BRANCH   3   4
ATOM      4  C   LIG    1       -3.645   3.103   0.138  0.00  0.00    +0.270 C 
ATOM      5  C   LIG    1       -2.720   3.640   1.244  0.00  0.00    +0.060 C 
ATOM      6  C   LIG    1       -2.499   5.148   1.016  0.00  0.00    -0.290 C 
ATOM      7  S   LIG    1       -2.686   5.389  -0.788  0.00  0.00    +2.380 S 
ATOM      8  O   LIG    1       -1.427   5.727  -1.352  0.00  0.00    -0.920 OA
ATOM      9  O   LIG    1       -3.817   6.212  -1.038  0.00  0.00    -0.920 OA
ATOM     10  C   LIG    1       -3.097   3.651  -1.205  0.00  0.00    -0.330 C 
ENDBRANCH   3   4
BRANCH   2  11
ATOM     11  C   LIG    1       -1.218   1.735  -0.255  0.00  0.00    -0.110 C 
ATOM     12  C   LIG    1       -0.049   1.077  -0.392  0.00  0.00    +0.140 C 
BRANCH  12  13
ATOM     13  C   LIG    1        1.207   1.830  -0.541  0.00  0.00    -0.080 A 
ATOM     14  C   LIG    1        1.191   3.228  -0.540  0.00  0.00    +0.040 A 
ATOM     15  C   LIG    1        2.372   3.927  -0.674  0.00  0.00    +0.030 A 
ATOM     16  C   LIG    1        3.570   3.248  -0.820  0.00  0.00    -0.020 A 
ATOM     17  C   LIG    1        3.593   1.863  -0.828  0.00  0.00    +0.030 A 
ATOM     18 CL   LIG    1        5.051   4.136  -0.995  0.00  0.00    -0.060 Cl
ATOM     19  C   LIG    1        2.421   1.151  -0.689  0.00  0.00    +0.060 A 
ENDBRANCH  12  13
ENDBRANCH   2  11
BRANCH   3  20
ATOM     20  C   LIG    1       -4.850   0.884   0.386  0.00  0.00    +0.360 C 
BRANCH  20  21
ATOM     21  C   LIG    1       -4.979   0.622   1.865  0.00  0.00    -0.080 A 
ATOM     22  C   LIG    1       -4.441  -0.527   2.413  0.00  0.00    +0.030 A 
ATOM     23  C   LIG    1       -4.554  -0.766   3.770  0.00  0.00    +0.040 A 
ATOM     24  C   LIG    1       -5.216   0.138   4.578  0.00  0.00    -0.010 A 
ATOM     25  C   LIG    1       -5.761   1.287   4.029  0.00  0.00    +0.100 A 
ATOM     26  F   LIG    1       -6.408   2.172   4.819  0.00  0.00    -0.140 F 
ATOM     27  C   LIG    1       -5.642   1.528   2.671  0.00  0.00    -0.010 A 
ENDBRANCH  20  21
ENDBRANCH   3  20
TORSDOF 5
