REMARK  Name = ZINCvU0000000Ixy.0
REMARK                            x       y       z     vdW  Elec       q    Type
REMARK                         _______ _______ _______ _____ _____    ______ ____
ROOT
ATOM      1  S   LIG    1       -4.835   5.012  -1.155  0.00  0.00    +0.140 S 
ENDROOT
BRANCH   1   2
ATOM      2  C   LIG    1       -5.341   6.697  -1.047  0.00  0.00    +0.130 A 
ATOM      3  N   LIG    1       -4.818   7.616  -0.270  0.00  0.00    -0.280 NA
ATOM      4  N   LIG    1       -5.432   8.732  -0.452  0.00  0.00    -0.260 NA
ATOM      5  C   LIG    1       -6.379   8.567  -1.347  0.00  0.00    +0.250 A 
ATOM      6  O   LIG    1       -6.341   7.274  -1.742  0.00  0.00    -0.200 OA
BRANCH   5   7
ATOM      7  C   LIG    1       -7.310   9.598  -1.830  0.00  0.00    -0.160 A 
ATOM      8  C   LIG    1       -7.330  10.891  -1.419  0.00  0.00    +0.110 A 
ATOM      9  C   LIG    1       -8.298  11.685  -2.015  0.00  0.00    -0.110 A 
ATOM     10  C   LIG    1       -9.066  11.032  -2.913  0.00  0.00    -0.150 A 
ATOM     11  C   LIG    1      -10.194  11.663  -3.703  0.00  0.00    +0.120 C 
ATOM     12  C   LIG    1      -10.577  12.989  -3.040  0.00  0.00    +0.040 C 
ATOM     13  C   LIG    1       -9.307  13.812  -2.803  0.00  0.00    -0.010 C 
ATOM     14  C   LIG    1       -9.690  15.235  -2.391  0.00  0.00    +0.030 C 
ATOM     15  C   LIG    1       -8.484  13.162  -1.690  0.00  0.00    +0.110 C 
ATOM     16  S   LIG    1       -8.564   9.351  -3.035  0.00  0.00    +0.170 S 
ENDBRANCH   5   7
ENDBRANCH   1   2
BRANCH   1  17
ATOM     17  C   LIG    1       -3.481   5.013   0.046  0.00  0.00    +0.140 C 
ATOM     18  C   LIG    1       -4.038   5.291   1.443  0.00  0.00    +0.110 C 
BRANCH  17  22
ATOM     19  C   LIG    1       -1.305   2.115   0.020  0.00  0.00    +0.230 A 
ATOM     20  N   LIG    1       -2.502   1.575   0.017  0.00  0.00    -0.280 NA
ATOM     21  N   LIG    1       -3.388   2.507   0.031  0.00  0.00    -0.250 NA
ATOM     22  C   LIG    1       -2.799   3.670   0.035  0.00  0.00    +0.170 A 
ATOM     23  O   LIG    1       -1.472   3.453   0.028  0.00  0.00    -0.210 OA
BRANCH  19  27
ATOM     24  C   LIG    1        2.399   0.036  -0.021  0.00  0.00    +0.160 A 
ATOM     25  C   LIG    1        1.206  -0.675  -0.013  0.00  0.00    +0.000 A 
ATOM     26  C   LIG    1        0.002  -0.004   0.002  0.00  0.00    +0.130 A 
ATOM     27  C   LIG    1       -0.017   1.392   0.010  0.00  0.00    -0.080 A 
ATOM     28  C   LIG    1        1.185   2.103   0.002  0.00  0.00    +0.100 A 
ATOM     29  C   LIG    1        2.385   1.425  -0.013  0.00  0.00    -0.070 A 
BRANCH  24  31
ATOM     30  C   LIG    1        4.772   0.164  -0.043  0.00  0.00    +0.250 C 
ATOM     31  O   LIG    1        3.583  -0.629  -0.035  0.00  0.00    -0.310 OA
ENDBRANCH  24  31
ENDBRANCH  19  27
ENDBRANCH  17  22
ENDBRANCH   1  17
TORSDOF 6
