REMARK  Name = ZINCrD00000l0q6R.0
REMARK                            x       y       z     vdW  Elec       q    Type
REMARK                         _______ _______ _______ _____ _____    ______ ____
ROOT
ATOM      1  C   LIG    1       -3.127   3.494   5.342  0.00  0.00    +0.120 A 
ATOM      2  C   LIG    1       -2.304   3.131   4.285  0.00  0.00    +0.210 A 
ATOM      3  C   LIG    1       -2.119   3.999   3.226  0.00  0.00    -0.670 A 
ATOM      4  C   LIG    1       -2.748   5.230   3.220  0.00  0.00    +0.150 A 
ATOM      5  C   LIG    1       -3.574   5.593   4.269  0.00  0.00    +0.030 A 
ATOM      6  C   LIG    1       -3.763   4.730   5.332  0.00  0.00    +0.010 A 
ATOM      7 CL   LIG    1       -4.794   5.188   6.651  0.00  0.00    -0.050 Cl
ENDROOT
BRANCH   3   8
ATOM      8  S   LIG    1       -1.075   3.539   1.883  0.00  0.00    +2.690 S 
ATOM      9  O   LIG    1       -0.644   4.750   1.277  0.00  0.00    -0.950 OA
ATOM     10  O   LIG    1       -0.176   2.562   2.391  0.00  0.00    -0.930 OA
BRANCH   8  11
ATOM     11  N   LIG    1       -2.023   2.768   0.766  0.00  0.00    -1.000 NA
ATOM     12  C   LIG    1       -2.218   1.310   0.818  0.00  0.00    +0.270 C 
ATOM     13  C   LIG    1       -1.930   0.734  -0.574  0.00  0.00    +0.220 C 
ATOM     14  O   LIG    1       -2.700   1.445  -1.546  0.00  0.00    -0.380 OA
ATOM     15  C   LIG    1       -2.381   2.835  -1.643  0.00  0.00    +0.220 C 
ATOM     16  C   LIG    1       -2.693   3.519  -0.307  0.00  0.00    +0.270 C 
ENDBRANCH   8  11
ENDBRANCH   3   8
BRANCH   1  17
ATOM     17  N   LIG    1       -3.316   2.617   6.416  0.00  0.00    -0.640 N 
ATOM     18  H   LIG    1       -4.206   2.473   6.774  0.00  0.00    +0.410 HD
BRANCH  17  19
ATOM     19  C   LIG    1       -2.261   1.972   6.954  0.00  0.00    +0.550 C 
ATOM     20  S   LIG    1       -0.675   2.329   6.417  0.00  0.00    -0.600 S 
BRANCH  19  22
ATOM     21  C   LIG    1       -3.813   0.740   8.373  0.00  0.00    +0.300 C 
ATOM     22  N   LIG    1       -2.455   1.046   7.913  0.00  0.00    -0.550 N 
BRANCH  22  23
ATOM     23  C   LIG    1       -1.309   0.345   8.498  0.00  0.00    +0.260 C 
ATOM     24  C   LIG    1       -1.452  -1.159   8.253  0.00  0.00    +0.010 C 
ATOM     25  C   LIG    1       -0.255  -1.890   8.863  0.00  0.00    +0.020 C 
ATOM     26  C   LIG    1       -0.206  -1.621  10.369  0.00  0.00    +0.010 C 
ATOM     27  C   LIG    1       -0.063  -0.117  10.613  0.00  0.00    +0.020 C 
ATOM     28  C   LIG    1       -1.260   0.615  10.003  0.00  0.00    +0.010 C 
ENDBRANCH  22  23
ENDBRANCH  19  22
ENDBRANCH  17  19
ENDBRANCH   1  17
TORSDOF 6
