REMARK  Name = ZINCbw0000000HnF.0
REMARK                            x       y       z     vdW  Elec       q    Type
REMARK                         _______ _______ _______ _____ _____    ______ ____
ROOT
ATOM      1  C   LIG    1        0.002  -0.004   0.002  0.00  0.00    -0.190 A 
ATOM      2  C   LIG    1       -1.191  -0.715   0.010  0.00  0.00    +0.120 A 
ATOM      3  C   LIG    1       -1.173  -2.095   0.002  0.00  0.00    -0.030 A 
ATOM      4  C   LIG    1        0.039  -2.774  -0.013  0.00  0.00    +0.260 A 
ATOM      5  C   LIG    1        1.233  -2.063  -0.021  0.00  0.00    -0.160 A 
ATOM      6 BR   LIG    1        2.883  -2.986  -0.042  0.00  0.00    -0.040 Br
ATOM      7  C   LIG    1        1.214  -0.682  -0.019  0.00  0.00    +0.100 A 
ENDROOT
BRANCH   4   8
ATOM      8  N   LIG    1        0.057  -4.173  -0.020  0.00  0.00    -0.860 N 
ATOM      9  H   LIG    1        0.903  -4.647  -0.031  0.00  0.00    +0.400 HD
ATOM     10  H   LIG    1       -0.777  -4.669  -0.015  0.00  0.00    +0.410 HD
ENDBRANCH   4   8
BRANCH   1  11
ATOM     11  S   LIG    1       -0.022   1.758   0.012  0.00  0.00    +0.190 S 
BRANCH  11  13
ATOM     12  N   LIG    1        2.872   2.309  -0.013  0.00  0.00    -0.370 NA
ATOM     13  C   LIG    1        1.756   2.096  -0.004  0.00  0.00    +0.170 C 
ENDBRANCH  11  13
ENDBRANCH   1  11
TORSDOF 3
