REMARK  Name = ZINCpe000027pH4Z.0
REMARK                            x       y       z     vdW  Elec       q    Type
REMARK                         _______ _______ _______ _____ _____    ______ ____
ROOT
ATOM      1  C   LIG    1       -0.391   1.348   2.488  0.00  0.00    +0.580 C 
ATOM      2  N   LIG    1       -0.719   1.569   1.200  0.00  0.00    -0.620 N 
ATOM      3  C   LIG    1       -0.013   1.086   0.008  0.00  0.00    +0.350 C 
ATOM      4  C   LIG    1       -0.764   1.597  -1.202  0.00  0.00    -0.160 C 
ATOM      5  C   LIG    1       -1.794   2.297  -0.822  0.00  0.00    -0.180 C 
ATOM      6  C   LIG    1       -2.546   2.808  -2.032  0.00  0.00    +0.350 C 
ATOM      7  N   LIG    1       -1.837   2.325  -3.221  0.00  0.00    -0.590 N 
ATOM      8  C   LIG    1       -2.162   2.546  -4.511  0.00  0.00    +0.630 C 
ATOM      9  O   LIG    1       -3.141   3.212  -4.785  0.00  0.00    -0.510 OA
ATOM     10  C   LIG    1       -0.699   1.552  -2.713  0.00  0.00    +0.370 C 
ATOM     11  C   LIG    1       -1.860   2.343   0.689  0.00  0.00    +0.350 C 
ATOM     12  O   LIG    1        0.590   0.682   2.760  0.00  0.00    -0.530 OA
ENDROOT
BRANCH   8  13
ATOM     13  C   LIG    1       -1.330   1.980  -5.588  0.00  0.00    +0.220 A 
ATOM     14  N   LIG    1       -0.247   1.250  -5.423  0.00  0.00    -0.430 NA
ATOM     15  C   LIG    1        0.238   0.914  -6.617  0.00  0.00    +0.310 A 
ATOM     16  C   LIG    1       -0.560   1.456  -7.569  0.00  0.00    +0.020 A 
ATOM     17  N   LIG    1       -1.547   2.127  -6.929  0.00  0.00    -0.390 N 
ATOM     18  C   LIG    1       -2.642   2.872  -7.556  0.00  0.00    +0.380 C 
BRANCH  16  19
ATOM     19  N   LIG    1       -0.386   1.338  -9.034  0.00  0.00    +0.060 N 
ATOM     20  O   LIG    1        0.550   0.702  -9.486  0.00  0.00    -0.110 OA
ATOM     21  O   LIG    1       -1.177   1.875  -9.787  0.00  0.00    -0.160 OA
ENDBRANCH  16  19
ENDBRANCH   8  13
BRANCH   1  23
ATOM     22  C   LIG    1       -0.894   1.695   4.837  0.00  0.00    +0.080 C 
ATOM     23  C   LIG    1       -1.218   1.913   3.565  0.00  0.00    -0.090 C 
BRANCH  22  25
ATOM     24  C   LIG    1       -2.191   1.153   6.879  0.00  0.00    +0.030 C 
ATOM     25  C   LIG    1       -1.741   2.274   5.940  0.00  0.00    +0.050 C 
ENDBRANCH  22  25
ENDBRANCH   1  23
TORSDOF 4
