REMARK  Name = ZINCqH0000038I9U.0
REMARK                            x       y       z     vdW  Elec       q    Type
REMARK                         _______ _______ _______ _____ _____    ______ ____
ROOT
ATOM      1  N   LIG    1        2.361   3.901  -0.005  0.00  0.00    -0.560 N 
ATOM      2  C   LIG    1        1.160   3.183   0.007  0.00  0.00    +0.190 A 
ATOM      3  C   LIG    1       -0.053   3.852   0.024  0.00  0.00    -0.010 A 
ATOM      4  C   LIG    1       -1.238   3.136   0.032  0.00  0.00    +0.050 A 
ATOM      5  C   LIG    1       -1.220   1.754   0.017  0.00  0.00    +0.000 A 
ATOM      6  C   LIG    1       -0.013   1.076   0.008  0.00  0.00    +0.070 A 
ATOM      7  C   LIG    1        1.174   1.786   0.000  0.00  0.00    -0.150 A 
ATOM      8  S   LIG    1        2.725   0.944  -0.016  0.00  0.00    +0.010 S 
ATOM      9  C   LIG    1        3.756   2.106  -0.853  0.00  0.00    -0.150 A 
ATOM     10  C   LIG    1        4.839   1.678  -1.598  0.00  0.00    +0.070 A 
ATOM     11  C   LIG    1        5.638   2.605  -2.246  0.00  0.00    +0.000 A 
ATOM     12  C   LIG    1        5.353   3.954  -2.148  0.00  0.00    +0.050 A 
ATOM     13  C   LIG    1        4.269   4.388  -1.404  0.00  0.00    -0.010 A 
ATOM     14  C   LIG    1        3.463   3.468  -0.753  0.00  0.00    +0.190 A 
ENDROOT
BRANCH   1  15
ATOM     15  C   LIG    1        2.468   5.132   0.781  0.00  0.00    +0.330 C 
BRANCH  15  18
ATOM     16  N   LIG    1        2.061   7.550   0.456  0.00  0.00    -0.720 N 
ATOM     17  H   LIG    1        2.346   7.689   1.372  0.00  0.00    +0.400 HD
ATOM     18  C   LIG    1        2.044   6.306  -0.063  0.00  0.00    +0.490 C 
ATOM     19  O   LIG    1        1.687   6.131  -1.209  0.00  0.00    -0.510 OA
BRANCH  16  20
ATOM     20  C   LIG    1        1.648   8.691  -0.365  0.00  0.00    +0.360 C 
BRANCH  20  27
ATOM     21  C   LIG    1       -0.611   9.619   1.181  0.00  0.00    +0.150 C 
ATOM     22  C   LIG    1        0.677  10.402   1.184  0.00  0.00    +0.100 A 
ATOM     23  N   LIG    1        0.774  11.510   1.897  0.00  0.00    -0.440 NA
ATOM     24  C   LIG    1        1.902  12.199   1.895  0.00  0.00    +0.250 A 
ATOM     25  C   LIG    1        2.982  11.758   1.152  0.00  0.00    +0.210 A 
ATOM     26  N   LIG    1        2.885  10.647   0.443  0.00  0.00    -0.420 NA
ATOM     27  C   LIG    1        1.758   9.957   0.444  0.00  0.00    +0.050 A 
ENDBRANCH  20  27
ENDBRANCH  16  20
ENDBRANCH  15  18
ENDBRANCH   1  15
TORSDOF 4
