REMARK  Name = ZINCpe000000YYJ8.0
REMARK                            x       y       z     vdW  Elec       q    Type
REMARK                         _______ _______ _______ _____ _____    ______ ____
ROOT
ATOM      1  O   LIG    1       -0.121  -3.988  -0.118  0.00  0.00    -0.490 OA
ATOM      2  C   LIG    1       -0.071  -2.774  -0.075  0.00  0.00    +0.570 A 
ATOM      3  N   LIG    1       -1.052  -2.021  -0.619  0.00  0.00    -0.660 N 
ATOM      4  H   LIG    1       -1.804  -2.457  -1.049  0.00  0.00    +0.430 HD
ATOM      5  C   LIG    1       -1.006  -0.680  -0.576  0.00  0.00    +0.710 A 
ATOM      6  N   LIG    1        0.002  -0.004   0.002  0.00  0.00    -0.520 N 
ATOM      7  C   LIG    1        1.064  -0.680   0.586  0.00  0.00    +0.210 A 
ATOM      8  C   LIG    1        2.111  -0.003   1.192  0.00  0.00    -0.040 A 
ATOM      9  C   LIG    1        3.146  -0.714   1.766  0.00  0.00    +0.100 A 
ATOM     10  C   LIG    1        3.146  -2.100   1.748  0.00  0.00    -0.010 A 
ATOM     11  C   LIG    1        2.110  -2.791   1.155  0.00  0.00    +0.140 A 
ATOM     12  O   LIG    1       -1.915  -0.050  -1.081  0.00  0.00    -0.540 OA
ATOM     13  C   LIG    1        1.060  -2.086   0.572  0.00  0.00    -0.200 A 
ENDROOT
BRANCH   6  14
ATOM     14  C   LIG    1       -0.018   1.461   0.010  0.00  0.00    +0.360 C 
BRANCH  14  15
ATOM     15  C   LIG    1       -0.723   1.947   1.250  0.00  0.00    +0.500 C 
ATOM     16  N   LIG    1       -0.862   3.269   1.472  0.00  0.00    -0.610 N 
ATOM     17  C   LIG    1       -0.335   4.261   0.520  0.00  0.00    +0.250 C 
ATOM     18  C   LIG    1        0.512   5.278   1.293  0.00  0.00    +0.220 C 
ATOM     19  O   LIG    1       -0.245   5.787   2.395  0.00  0.00    -0.370 OA
ATOM     20  C   LIG    1       -0.624   4.793   3.346  0.00  0.00    +0.150 C 
ATOM     21  C   LIG    1       -1.319   5.437   4.541  0.00  0.00    +0.050 C 
ATOM     22  C   LIG    1       -2.608   6.124   4.087  0.00  0.00    +0.020 C 
ATOM     23  C   LIG    1       -3.535   5.084   3.452  0.00  0.00    +0.010 C 
ATOM     24  C   LIG    1       -2.843   4.464   2.238  0.00  0.00    +0.010 C 
ATOM     25  C   LIG    1       -1.553   3.773   2.673  0.00  0.00    +0.230 C 
ATOM     26  O   LIG    1       -1.166   1.148   2.048  0.00  0.00    -0.520 OA
ENDBRANCH  14  15
ENDBRANCH   6  14
TORSDOF 2
