REMARK  Name = ZINCnE00000rhnim.0
REMARK                            x       y       z     vdW  Elec       q    Type
REMARK                         _______ _______ _______ _____ _____    ______ ____
ROOT
ATOM      1  C   LIG    1        2.137   0.013   1.282  0.00  0.00    +0.200 C 
ATOM      2  C   LIG    1        2.155   1.545   1.282  0.00  0.00    +0.010 C 
ATOM      3  C   LIG    1        1.481   2.059   0.008  0.00  0.00    +0.000 C 
ATOM      4  C   LIG    1        0.023   1.594  -0.023  0.00  0.00    +0.010 C 
ATOM      5  C   LIG    1       -0.019   0.063  -0.038  0.00  0.00    +0.260 C 
ATOM      6  N   LIG    1        0.751  -0.443   1.106  0.00  0.00    -0.610 N 
ATOM      7  C   LIG    1        0.198  -1.310   1.977  0.00  0.00    +0.500 C 
ATOM      8  O   LIG    1        0.873  -1.797   2.859  0.00  0.00    -0.490 OA
ENDROOT
BRANCH   1   9
ATOM      9  C   LIG    1        2.683  -0.507   2.613  0.00  0.00    +0.070 C 
BRANCH   9  10
ATOM     10  C   LIG    1        4.111   0.004   2.813  0.00  0.00    -0.090 C 
BRANCH  10  12
ATOM     11  O   LIG    1        4.028  -1.380   4.729  0.00  0.00    -0.690 OA
ATOM     12  C   LIG    1        4.693  -0.607   4.061  0.00  0.00    +0.490 C 
ATOM     13  O   LIG    1        5.830  -0.329   4.403  0.00  0.00    -0.710 OA
ENDBRANCH  10  12
ENDBRANCH   9  10
ENDBRANCH   1   9
BRANCH   7  14
ATOM     14  C   LIG    1       -1.260  -1.673   1.856  0.00  0.00    +0.080 C 
BRANCH  14  15
ATOM     15  C   LIG    1       -1.626  -2.651   2.942  0.00  0.00    +0.020 C 
ATOM     16  C   LIG    1       -2.632  -2.383   3.764  0.00  0.00    -0.010 C 
BRANCH  16  17
ATOM     17  C   LIG    1       -2.991  -3.343   4.829  0.00  0.00    -0.050 A 
ATOM     18  C   LIG    1       -2.277  -4.533   4.969  0.00  0.00    +0.060 A 
ATOM     19  C   LIG    1       -2.613  -5.423   5.968  0.00  0.00    -0.010 A 
ATOM     20  C   LIG    1       -3.664  -5.141   6.826  0.00  0.00    +0.090 A 
ATOM     21  C   LIG    1       -4.380  -3.962   6.687  0.00  0.00    -0.020 A 
ATOM     22  F   LIG    1       -3.993  -6.017   7.800  0.00  0.00    -0.140 F 
ATOM     23  C   LIG    1       -4.049  -3.063   5.695  0.00  0.00    +0.040 A 
ENDBRANCH  16  17
ENDBRANCH  14  15
ENDBRANCH   7  14
TORSDOF 6
