REMARK  Name = ZINCqH00000064hE.1
REMARK                            x       y       z     vdW  Elec       q    Type
REMARK                         _______ _______ _______ _____ _____    ______ ____
ROOT
ATOM      1  C   LIG    1        1.826   1.517  -0.215  0.00  0.00    -0.230 A 
ATOM      2  C   LIG    1        2.268   0.243  -0.244  0.00  0.00    +0.000 A 
ATOM      3  C   LIG    1        1.251  -0.702  -0.192  0.00  0.00    +0.010 A 
ATOM      4  C   LIG    1       -0.005  -0.165  -0.121  0.00  0.00    -0.790 A 
ATOM      5  C   LIG    1        3.728  -0.121  -0.324  0.00  0.00    +0.160 C 
ATOM      6  S   LIG    1        0.071   1.539  -0.120  0.00  0.00    +0.410 S 
ENDROOT
BRANCH   4   7
ATOM      7  S   LIG    1       -1.495  -1.103  -0.044  0.00  0.00    +2.700 S 
ATOM      8  O   LIG    1       -1.477  -1.782   1.204  0.00  0.00    -0.910 OA
ATOM      9  O   LIG    1       -1.613  -1.773  -1.291  0.00  0.00    -0.910 OA
BRANCH   7  10
ATOM     10  N   LIG    1       -2.750  -0.025   0.029  0.00  0.00    -1.050 N 
ATOM     11  H   LIG    1       -3.346  -0.025   0.794  0.00  0.00    +0.440 HD
BRANCH  10  12
ATOM     12  C   LIG    1       -2.950   0.886  -1.012  0.00  0.00    +0.150 A 
ATOM     13  C   LIG    1       -2.688   0.512  -2.324  0.00  0.00    +0.030 A 
ATOM     14  C   LIG    1       -2.887   1.414  -3.351  0.00  0.00    +0.080 A 
ATOM     15  C   LIG    1       -3.345   2.689  -3.076  0.00  0.00    +0.050 A 
ATOM     16  C   LIG    1       -3.607   3.066  -1.770  0.00  0.00    -0.010 A 
ATOM     17 CL   LIG    1       -4.183   4.668  -1.429  0.00  0.00    -0.030 Cl
ATOM     18  C   LIG    1       -3.416   2.166  -0.738  0.00  0.00    -0.050 A 
ATOM     19 CL   LIG    1       -3.752   2.637   0.899  0.00  0.00    -0.030 Cl
ENDBRANCH  10  12
ENDBRANCH   7  10
ENDBRANCH   4   7
BRANCH   1  20
ATOM     20  C   LIG    1        2.681   2.706  -0.258  0.00  0.00    +0.540 C 
ATOM     21  O   LIG    1        3.889   2.584  -0.324  0.00  0.00    -0.470 OA
BRANCH  20  23
ATOM     22  C   LIG    1        3.036   5.068  -0.269  0.00  0.00    +0.290 C 
ATOM     23  O   LIG    1        2.128   3.936  -0.223  0.00  0.00    -0.350 OA
ENDBRANCH  20  23
ENDBRANCH   1  20
BRANCH   3  24
ATOM     24  C   LIG    1        1.502  -2.152  -0.211  0.00  0.00    +0.500 C 
ATOM     25  O   LIG    1        1.549  -2.747  -1.270  0.00  0.00    -0.460 OA
BRANCH  24  26
ATOM     26  O   LIG    1        1.680  -2.821   0.946  0.00  0.00    -0.340 OA
ATOM     27  C   LIG    1        1.924  -4.249   0.851  0.00  0.00    +0.280 C 
ENDBRANCH  24  26
ENDBRANCH   3  24
TORSDOF 7
