REMARK  Name = ZINCvU0000000E6d.0
REMARK                            x       y       z     vdW  Elec       q    Type
REMARK                         _______ _______ _______ _____ _____    ______ ____
ROOT
ATOM      1  O   LIG    1        1.130   2.868   0.007  0.00  0.00    -0.510 OA
ATOM      2  C   LIG    1        1.147   1.655   0.000  0.00  0.00    +0.520 C 
ATOM      3  N   LIG    1       -0.011   0.966   0.007  0.00  0.00    -0.730 N 
ATOM      4  H   LIG    1        0.002  -0.004   0.002  0.00  0.00    +0.400 HD
ENDROOT
BRANCH   3   5
ATOM      5  C   LIG    1       -1.290   1.681   0.017  0.00  0.00    +0.340 C 
BRANCH   5   6
ATOM      6  C   LIG    1       -2.354   0.799   0.618  0.00  0.00    -0.080 A 
ATOM      7  C   LIG    1       -2.387  -0.549   0.313  0.00  0.00    +0.030 A 
ATOM      8  C   LIG    1       -3.360  -1.359   0.868  0.00  0.00    +0.040 A 
ATOM      9  C   LIG    1       -4.307  -0.819   1.720  0.00  0.00    -0.030 A 
ATOM     10  C   LIG    1       -4.276   0.531   2.020  0.00  0.00    +0.040 A 
ATOM     11 CL   LIG    1       -5.533  -1.835   2.412  0.00  0.00    -0.070 Cl
ATOM     12  C   LIG    1       -3.300   1.340   1.469  0.00  0.00    +0.050 A 
ENDBRANCH   5   6
BRANCH   5  13
ATOM     13  C   LIG    1       -1.674   2.042  -1.394  0.00  0.00    -0.090 A 
ATOM     14  C   LIG    1       -1.454   1.144  -2.422  0.00  0.00    +0.020 A 
ATOM     15  C   LIG    1       -1.811   1.473  -3.716  0.00  0.00    +0.000 A 
ATOM     16  C   LIG    1       -2.380   2.704  -3.984  0.00  0.00    +0.000 A 
ATOM     17  C   LIG    1       -2.595   3.604  -2.957  0.00  0.00    +0.000 A 
ATOM     18  C   LIG    1       -2.242   3.273  -1.663  0.00  0.00    +0.020 A 
ENDBRANCH   5  13
ENDBRANCH   3   5
BRANCH   2  19
ATOM     19  C   LIG    1        2.462   0.920  -0.017  0.00  0.00    +0.160 C 
BRANCH  19  20
ATOM     20  C   LIG    1        3.594   1.915  -0.022  0.00  0.00    +0.110 A 
ATOM     21  C   LIG    1        4.567   1.905   0.891  0.00  0.00    -0.130 A 
ATOM     22  S   LIG    1        5.678   3.221   0.520  0.00  0.00    +0.250 S 
ATOM     23  C   LIG    1        4.720   3.664  -0.826  0.00  0.00    +0.240 A 
ATOM     24  N   LIG    1        3.700   2.869  -0.927  0.00  0.00    -0.480 NA
BRANCH  23  25
ATOM     25  N   LIG    1        4.994   4.720  -1.684  0.00  0.00    -0.620 N 
ATOM     26  H   LIG    1        4.400   4.908  -2.427  0.00  0.00    +0.420 HD
ATOM     27  C   LIG    1        6.086   5.485  -1.484  0.00  0.00    +0.600 C 
ATOM     28  O   LIG    1        6.832   5.249  -0.552  0.00  0.00    -0.490 OA
BRANCH  27  29
ATOM     29  C   LIG    1        6.375   6.600  -2.390  0.00  0.00    -0.280 A 
ATOM     30  C   LIG    1        7.446   7.444  -2.292  0.00  0.00    +0.130 A 
ATOM     31  C   LIG    1        7.473   8.404  -3.276  0.00  0.00    +0.000 A 
ATOM     32  C   LIG    1        6.461   8.350  -4.149  0.00  0.00    -0.040 A 
ATOM     33  S   LIG    1        5.404   7.063  -3.780  0.00  0.00    +0.210 S 
ENDBRANCH  27  29
ENDBRANCH  23  25
ENDBRANCH  19  20
ENDBRANCH   2  19
TORSDOF 7
