REMARK  Name = ZINCrH00000tj1kj.0
REMARK                            x       y       z     vdW  Elec       q    Type
REMARK                         _______ _______ _______ _____ _____    ______ ____
ROOT
ATOM      1  C   LIG    1       -0.781   1.963   1.105  0.00  0.00    +0.530 C 
ATOM      2  N   LIG    1       -0.975   3.281   1.313  0.00  0.00    -0.550 N 
ATOM      3  C   LIG    1       -0.598   4.276   0.294  0.00  0.00    +0.260 C 
ATOM      4  C   LIG    1        0.060   5.457   1.021  0.00  0.00    +0.240 C 
ATOM      5  O   LIG    1       -0.865   5.985   1.975  0.00  0.00    -0.310 OA
ATOM      6  C   LIG    1       -1.474   5.109   2.818  0.00  0.00    +0.080 A 
ATOM      7  C   LIG    1       -2.033   5.572   4.000  0.00  0.00    +0.040 A 
ATOM      8  C   LIG    1       -2.657   4.693   4.864  0.00  0.00    +0.040 A 
ATOM      9  C   LIG    1       -2.729   3.341   4.554  0.00  0.00    +0.140 A 
ATOM     10  C   LIG    1       -2.171   2.871   3.373  0.00  0.00    +0.030 A 
ATOM     11  C   LIG    1       -1.549   3.752   2.506  0.00  0.00    +0.100 A 
ATOM     12  O   LIG    1       -1.170   1.157   1.924  0.00  0.00    -0.510 OA
ENDROOT
BRANCH   1  14
ATOM     13  C   LIG    1       -0.074  -0.038  -0.177  0.00  0.00    +0.070 C 
ATOM     14  C   LIG    1       -0.081   1.492  -0.143  0.00  0.00    -0.080 C 
ATOM     15  C   LIG    1       -0.818   2.026  -1.373  0.00  0.00    +0.040 C 
ATOM     16  C   LIG    1        1.359   2.009  -0.147  0.00  0.00    +0.070 C 
ENDBRANCH   1  14
BRANCH   9  17
ATOM     17  N   LIG    1       -3.364   2.454   5.432  0.00  0.00    -0.660 N 
ATOM     18  H   LIG    1       -3.108   1.518   5.445  0.00  0.00    +0.410 HD
ATOM     19  C   LIG    1       -4.331   2.899   6.259  0.00  0.00    +0.540 C 
ATOM     20  O   LIG    1       -4.726   4.042   6.169  0.00  0.00    -0.490 OA
BRANCH  19  21
ATOM     21  C   LIG    1       -4.921   1.977   7.294  0.00  0.00    -0.040 C 
ATOM     22  C   LIG    1       -6.374   1.537   7.103  0.00  0.00    +0.090 C 
ATOM     23  C   LIG    1       -6.016   2.542   8.201  0.00  0.00    +0.110 C 
BRANCH  23  24
ATOM     24  C   LIG    1       -6.422   3.978   7.991  0.00  0.00    +0.030 A 
ATOM     25  C   LIG    1       -6.346   4.959   8.907  0.00  0.00    -0.070 A 
ATOM     26  C   LIG    1       -6.825   6.136   8.288  0.00  0.00    -0.080 A 
ATOM     27  C   LIG    1       -7.173   5.802   7.032  0.00  0.00    +0.170 A 
ATOM     28  O   LIG    1       -6.926   4.493   6.858  0.00  0.00    -0.150 OA
ENDBRANCH  23  24
ENDBRANCH  19  21
ENDBRANCH   9  17
TORSDOF 4
