REMARK  Name = ZINCpk00000KfL9q.0
REMARK                            x       y       z     vdW  Elec       q    Type
REMARK                         _______ _______ _______ _____ _____    ______ ____
ROOT
ATOM      1  N   LIG    1        3.565   1.915  -0.022  0.00  0.00    -0.370 N 
ATOM      2  N   LIG    1        4.422   0.807  -0.036  0.00  0.00    -0.240 NA
ATOM      3  C   LIG    1        3.721  -0.291  -0.035  0.00  0.00    +0.310 A 
ATOM      4  C   LIG    1        2.352   0.053  -0.020  0.00  0.00    -0.320 A 
ATOM      5  C   LIG    1        1.148  -0.677  -0.013  0.00  0.00    +0.530 A 
ATOM      6  N   LIG    1        0.002  -0.004   0.002  0.00  0.00    -0.600 NA
ATOM      7  C   LIG    1       -0.016   1.317   0.009  0.00  0.00    +0.600 A 
ATOM      8  N   LIG    1        1.082   2.041   0.003  0.00  0.00    -0.570 NA
ATOM      9  C   LIG    1        2.280   1.460  -0.012  0.00  0.00    +0.380 A 
ENDROOT
BRANCH   5  10
ATOM     10  N   LIG    1        1.157  -2.058  -0.020  0.00  0.00    -0.700 N 
ATOM     11  H   LIG    1        2.001  -2.537  -0.030  0.00  0.00    +0.420 HD
BRANCH  10  12
ATOM     12  C   LIG    1       -0.106  -2.799  -0.011  0.00  0.00    +0.400 C 
BRANCH  12  13
ATOM     13  C   LIG    1        0.106  -4.161  -0.621  0.00  0.00    +0.170 A 
ATOM     14  N   LIG    1       -0.671  -4.756  -1.493  0.00  0.00    -0.460 NA
ATOM     15  C   LIG    1       -0.088  -5.941  -1.749  0.00  0.00    +0.170 A 
ATOM     16  N   LIG    1        0.990  -6.008  -1.026  0.00  0.00    -0.380 NA
ATOM     17  C   LIG    1       -0.595  -6.998  -2.695  0.00  0.00    +0.200 C 
ATOM     18  O   LIG    1        1.119  -4.995  -0.370  0.00  0.00    +0.080 OA
ENDBRANCH  12  13
BRANCH  12  19
ATOM     19  C   LIG    1       -0.596  -2.956   1.430  0.00  0.00    +0.000 C 
ATOM     20  C   LIG    1        0.450  -3.721   2.243  0.00  0.00    +0.020 C 
ATOM     21  C   LIG    1       -1.915  -3.730   1.439  0.00  0.00    +0.040 C 
ENDBRANCH  12  19
ENDBRANCH  10  12
ENDBRANCH   5  10
BRANCH   1  22
ATOM     22  C   LIG    1        3.978   3.320  -0.018  0.00  0.00    +0.430 C 
BRANCH  22  23
ATOM     23  C   LIG    1        4.133   3.795   1.403  0.00  0.00    +0.440 C 
ATOM     24  O   LIG    1        3.920   3.037   2.320  0.00  0.00    -0.490 OA
BRANCH  23  26
ATOM     25  C   LIG    1        4.637   5.448   3.045  0.00  0.00    +0.270 C 
ATOM     26  O   LIG    1        4.508   5.060   1.651  0.00  0.00    -0.360 OA
ENDBRANCH  23  26
ENDBRANCH  22  23
ENDBRANCH   1  22
TORSDOF 7
