REMARK  Name = ZINCnE000001TCgt.0
REMARK                            x       y       z     vdW  Elec       q    Type
REMARK                         _______ _______ _______ _____ _____    ______ ____
ROOT
ATOM      1  C   LIG    1        1.220  -0.682  -0.013  0.00  0.00    -0.030 A 
ATOM      2  C   LIG    1        0.002  -0.004   0.002  0.00  0.00    +0.040 A 
ATOM      3  C   LIG    1       -0.017   1.376   0.010  0.00  0.00    +0.010 A 
ATOM      4  C   LIG    1        1.170   2.086   0.002  0.00  0.00    +0.020 A 
ATOM      5  C   LIG    1        2.382   1.419  -0.013  0.00  0.00    -0.100 A 
ATOM      6  C   LIG    1        2.412   0.039  -0.021  0.00  0.00    +0.070 A 
ENDROOT
BRANCH   1   9
ATOM      7  C   LIG    1        0.094  -4.271  -0.127  0.00  0.00    -0.090 A 
ATOM      8  C   LIG    1        0.051  -2.874  -0.115  0.00  0.00    +0.040 A 
ATOM      9  C   LIG    1        1.246  -2.165  -0.022  0.00  0.00    +0.130 A 
ATOM     10  N   LIG    1        2.407  -2.800   0.064  0.00  0.00    -0.470 NA
ATOM     11  C   LIG    1        2.484  -4.114   0.060  0.00  0.00    +0.250 A 
ATOM     12  C   LIG    1        1.346  -4.896  -0.034  0.00  0.00    -0.060 A 
ATOM     13 CL   LIG    1        1.466  -6.628  -0.037  0.00  0.00    -0.030 Cl
BRANCH   7  15
ATOM     14  O   LIG    1       -2.229  -4.506  -0.310  0.00  0.00    -0.680 OA
ATOM     15  C   LIG    1       -1.146  -5.068  -0.230  0.00  0.00    +0.520 C 
ATOM     16  O   LIG    1       -1.090  -6.289  -0.234  0.00  0.00    -0.650 OA
ENDBRANCH   7  15
ENDBRANCH   1   9
BRANCH   5  17
ATOM     17  C   LIG    1        3.671   2.200  -0.022  0.00  0.00    +0.230 C 
BRANCH  17  18
ATOM     18  O   LIG    1        4.065   2.454  -1.371  0.00  0.00    -0.360 OA
BRANCH  18  19
ATOM     19  C   LIG    1        5.282   3.193  -1.492  0.00  0.00    +0.130 C 
ATOM     20  C   LIG    1        5.311   3.975  -2.828  0.00  0.00    +0.030 C 
ATOM     21  C   LIG    1        6.781   3.788  -3.282  0.00  0.00    +0.210 C 
ATOM     22  O   LIG    1        7.089   2.436  -2.878  0.00  0.00    -0.370 OA
ATOM     23  C   LIG    1        6.486   2.236  -1.589  0.00  0.00    +0.180 C 
ENDBRANCH  18  19
ENDBRANCH  17  18
ENDBRANCH   5  17
TORSDOF 5
