REMARK  Name = ZINCrg000000sxu5.0
REMARK                            x       y       z     vdW  Elec       q    Type
REMARK                         _______ _______ _______ _____ _____    ______ ____
ROOT
ATOM      1  C   LIG    1        1.229   8.181  -2.580  0.00  0.00    +0.510 C 
ATOM      2  N   LIG    1        1.117   7.513  -1.415  0.00  0.00    -0.730 N 
ATOM      3  H   LIG    1        1.214   7.986  -0.574  0.00  0.00    +0.400 HD
ATOM      4  O   LIG    1        1.109   7.589  -3.632  0.00  0.00    -0.520 OA
ENDROOT
BRANCH   1   5
ATOM      5  C   LIG    1        1.504   9.662  -2.576  0.00  0.00    +0.250 C 
ATOM      6  C   LIG    1        0.376  10.389  -1.841  0.00  0.00    +0.070 C 
BRANCH   5   7
ATOM      7  N   LIG    1        1.580  10.149  -3.956  0.00  0.00    -1.100 NA
ATOM      8  H   LIG    1        1.011   9.761  -4.639  0.00  0.00    +0.430 HD
BRANCH   7   9
ATOM      9  S   LIG    1        2.638  11.361  -4.350  0.00  0.00    +2.730 S 
ATOM     10  O   LIG    1        2.453  12.385  -3.382  0.00  0.00    -0.940 OA
ATOM     11  O   LIG    1        2.498  11.577  -5.747  0.00  0.00    -0.940 OA
BRANCH   9  18
ATOM     12  C   LIG    1        4.664  11.405  -1.612  0.00  0.00    +0.180 C 
ATOM     13  C   LIG    1        5.053  10.788  -2.931  0.00  0.00    +0.100 A 
ATOM     14  N   LIG    1        6.177  10.197  -3.215  0.00  0.00    -0.360 NA
ATOM     15  O   LIG    1        6.199   9.806  -4.359  0.00  0.00    +0.100 OA
ATOM     16  C   LIG    1        5.055  10.091  -4.998  0.00  0.00    +0.120 A 
ATOM     17  C   LIG    1        4.716   9.761  -6.429  0.00  0.00    +0.220 C 
ATOM     18  C   LIG    1        4.266  10.733  -4.105  0.00  0.00    -0.810 A 
ENDBRANCH   9  18
ENDBRANCH   7   9
ENDBRANCH   5   7
ENDBRANCH   1   5
BRANCH   2  19
ATOM     19  C   LIG    1        0.850   6.073  -1.419  0.00  0.00    +0.270 C 
BRANCH  19  20
ATOM     20  C   LIG    1        0.771   5.565   0.022  0.00  0.00    +0.080 C 
BRANCH  20  21
ATOM     21  C   LIG    1        0.496   4.083   0.018  0.00  0.00    -0.080 A 
ATOM     22  C   LIG    1       -0.808   3.624   0.028  0.00  0.00    +0.040 A 
ATOM     23  C   LIG    1       -1.065   2.265   0.019  0.00  0.00    +0.040 A 
ATOM     24  C   LIG    1       -0.016   1.361   0.009  0.00  0.00    +0.030 A 
ATOM     25  O   LIG    1        0.002  -0.004   0.002  0.00  0.00    -0.310 OA
ATOM     26  C   LIG    1        1.336  -0.373   0.399  0.00  0.00    +0.430 C 
ATOM     27  O   LIG    1        2.139   0.749  -0.014  0.00  0.00    -0.310 OA
ATOM     28  C   LIG    1        1.297   1.824  -0.001  0.00  0.00    +0.030 A 
ATOM     29  C   LIG    1        1.548   3.186   0.004  0.00  0.00    +0.050 A 
ENDBRANCH  20  21
ENDBRANCH  19  20
ENDBRANCH   2  19
TORSDOF 7
