REMARK  Name = ZINCpk00000xOJMj.0
REMARK                            x       y       z     vdW  Elec       q    Type
REMARK                         _______ _______ _______ _____ _____    ______ ____
ROOT
ATOM      1  C   LIG    1       -0.071   4.404  -0.628  0.00  0.00    +0.040 C 
ATOM      2  C   LIG    1       -1.294   3.607  -0.251  0.00  0.00    +0.260 C 
ATOM      3  N   LIG    1       -1.200   2.349   0.021  0.00  0.00    -0.480 NA
ATOM      4  C   LIG    1       -0.021   1.708   0.011  0.00  0.00    +0.480 C 
ATOM      5  N   LIG    1        1.142   2.382   0.004  0.00  0.00    -0.670 N 
ATOM      6  H   LIG    1        1.980   1.901  -0.074  0.00  0.00    +0.430 HD
ATOM      7  S   LIG    1        0.002  -0.004   0.002  0.00  0.00    -0.460 S 
ATOM      8  C   LIG    1       -2.639   4.285  -0.195  0.00  0.00    +0.180 C 
ATOM      9  C   LIG    1        1.146   3.844   0.113  0.00  0.00    +0.340 C 
ENDROOT
BRANCH   9  10
ATOM     10  C   LIG    1        1.078   4.241   1.566  0.00  0.00    -0.150 A 
ATOM     11  C   LIG    1        0.612   3.344   2.506  0.00  0.00    +0.150 A 
ATOM     12  C   LIG    1        0.555   3.705   3.839  0.00  0.00    -0.060 A 
ATOM     13  C   LIG    1        0.951   4.970   4.232  0.00  0.00    +0.170 A 
ATOM     14  C   LIG    1        1.412   5.875   3.294  0.00  0.00    -0.200 A 
ATOM     15  C   LIG    1        1.835   7.254   3.732  0.00  0.00    +0.320 C 
ATOM     16  O   LIG    1        2.608   7.863   2.694  0.00  0.00    -0.370 OA
ATOM     17  C   LIG    1        1.990   7.766   1.405  0.00  0.00    +0.460 C 
ATOM     18  O   LIG    1        1.938   6.388   1.026  0.00  0.00    -0.320 OA
ATOM     19  C   LIG    1        1.478   5.512   1.958  0.00  0.00    +0.210 A 
BRANCH  12  20
ATOM     20  N   LIG    1        0.062   2.739   4.847  0.00  0.00    +0.030 N 
ATOM     21  O   LIG    1       -0.287   1.624   4.502  0.00  0.00    -0.140 OA
ATOM     22  O   LIG    1        0.007   3.058   6.021  0.00  0.00    -0.150 OA
ENDBRANCH  12  20
ENDBRANCH   9  10
BRANCH   1  23
ATOM     23  C   LIG    1        0.156   4.306  -2.114  0.00  0.00    +0.470 C 
ATOM     24  O   LIG    1        1.185   3.836  -2.538  0.00  0.00    -0.480 OA
BRANCH  23  26
ATOM     25  C   LIG    1       -0.499   4.614  -4.385  0.00  0.00    +0.280 C 
ATOM     26  O   LIG    1       -0.786   4.740  -2.967  0.00  0.00    -0.350 OA
ENDBRANCH  23  26
ENDBRANCH   1  23
TORSDOF 4
