REMARK  Name = ZINCpk00000xOJMj.1
REMARK                            x       y       z     vdW  Elec       q    Type
REMARK                         _______ _______ _______ _____ _____    ______ ____
ROOT
ATOM      1  C   LIG    1        4.070   2.764  -1.384  0.00  0.00    -0.270 C 
ATOM      2  C   LIG    1        4.968   2.036  -2.082  0.00  0.00    +0.250 C 
ATOM      3  N   LIG    1        5.739   1.091  -1.468  0.00  0.00    -0.590 N 
ATOM      4  H   LIG    1        6.371   0.593  -2.010  0.00  0.00    +0.440 HD
ATOM      5  C   LIG    1        5.673   0.815  -0.160  0.00  0.00    +0.570 C 
ATOM      6  N   LIG    1        4.825   1.457   0.666  0.00  0.00    -0.640 N 
ATOM      7  H   LIG    1        4.794   1.240   1.611  0.00  0.00    +0.450 HD
ATOM      8  S   LIG    1        6.699  -0.396   0.483  0.00  0.00    -0.590 S 
ATOM      9  C   LIG    1        5.122   2.270  -3.563  0.00  0.00    +0.180 C 
ATOM     10  C   LIG    1        3.948   2.497   0.102  0.00  0.00    +0.340 C 
ENDROOT
BRANCH  10  11
ATOM     11  C   LIG    1        2.521   2.106   0.389  0.00  0.00    -0.140 A 
ATOM     12  C   LIG    1        1.691   2.974   1.071  0.00  0.00    +0.190 A 
ATOM     13  C   LIG    1        0.382   2.616   1.334  0.00  0.00    -0.070 A 
ATOM     14  C   LIG    1       -0.099   1.389   0.916  0.00  0.00    +0.160 A 
ATOM     15  C   LIG    1        0.728   0.517   0.233  0.00  0.00    -0.210 A 
ATOM     16  C   LIG    1        0.196  -0.822  -0.211  0.00  0.00    +0.320 C 
ATOM     17  O   LIG    1        1.074  -1.376  -1.197  0.00  0.00    -0.370 OA
ATOM     18  C   LIG    1        2.451  -1.337  -0.804  0.00  0.00    +0.450 C 
ATOM     19  O   LIG    1        2.862   0.030  -0.713  0.00  0.00    -0.320 OA
ATOM     20  C   LIG    1        2.040   0.874  -0.035  0.00  0.00    +0.210 A 
BRANCH  13  21
ATOM     21  N   LIG    1       -0.506   3.548   2.065  0.00  0.00    +0.030 N 
ATOM     22  O   LIG    1       -0.084   4.629   2.434  0.00  0.00    -0.150 OA
ATOM     23  O   LIG    1       -1.660   3.233   2.298  0.00  0.00    -0.160 OA
ENDBRANCH  13  21
ENDBRANCH  10  11
BRANCH   1  24
ATOM     24  C   LIG    1        3.271   3.743  -2.019  0.00  0.00    +0.530 C 
ATOM     25  O   LIG    1        3.463   4.021  -3.188  0.00  0.00    -0.500 OA
BRANCH  24  27
ATOM     26  C   LIG    1        1.451   5.260  -2.061  0.00  0.00    +0.270 C 
ATOM     27  O   LIG    1        2.295   4.369  -1.328  0.00  0.00    -0.350 OA
ENDBRANCH  24  27
ENDBRANCH   1  24
TORSDOF 4
