REMARK  Name = ZINCqH0000031DoK.0
REMARK                            x       y       z     vdW  Elec       q    Type
REMARK                         _______ _______ _______ _____ _____    ______ ____
ROOT
ATOM      1  N   LIG    1        1.124   1.769   0.580  0.00  0.00    -0.690 N 
ATOM      2  H   LIG    1        1.015   2.692   0.300  0.00  0.00    +0.400 HD
ATOM      3  C   LIG    1        0.104   1.122   1.178  0.00  0.00    +0.710 C 
ATOM      4  N   LIG    1       -1.039   1.778   1.459  0.00  0.00    -0.620 N 
ATOM      5  C   LIG    1       -1.236   3.166   1.032  0.00  0.00    +0.320 C 
ATOM      6  C   LIG    1       -1.764   4.000   2.170  0.00  0.00    -0.100 A 
ATOM      7  C   LIG    1       -1.708   5.381   2.055  0.00  0.00    +0.020 A 
ATOM      8  C   LIG    1       -2.191   6.186   3.068  0.00  0.00    +0.010 A 
ATOM      9  C   LIG    1       -2.734   5.614   4.204  0.00  0.00    +0.010 A 
ATOM     10  C   LIG    1       -2.787   4.239   4.321  0.00  0.00    +0.000 A 
ATOM     11  C   LIG    1       -2.298   3.432   3.308  0.00  0.00    -0.030 A 
ATOM     12  C   LIG    1       -2.349   1.935   3.485  0.00  0.00    -0.110 C 
ATOM     13  C   LIG    1       -3.318   1.373   4.525  0.00  0.00    +0.040 C 
ATOM     14  C   LIG    1       -1.811   1.356   4.794  0.00  0.00    +0.040 C 
ATOM     15  C   LIG    1       -2.129   1.119   2.200  0.00  0.00    +0.350 C 
ATOM     16  O   LIG    1        0.214  -0.056   1.459  0.00  0.00    -0.560 OA
ENDROOT
BRANCH   1  21
ATOM     17  C   LIG    1        4.740   1.139   0.303  0.00  0.00    +0.160 A 
ATOM     18  C   LIG    1        4.743  -0.199  -0.069  0.00  0.00    +0.010 A 
ATOM     19  C   LIG    1        3.549  -0.877  -0.223  0.00  0.00    +0.050 A 
ATOM     20  C   LIG    1        2.350  -0.227  -0.008  0.00  0.00    +0.010 A 
ATOM     21  C   LIG    1        2.340   1.111   0.364  0.00  0.00    +0.180 A 
ATOM     22  C   LIG    1        3.536   1.796   0.515  0.00  0.00    -0.050 A 
BRANCH  17  25
ATOM     23  C   LIG    1        8.393   1.877   0.838  0.00  0.00    +0.110 C 
ATOM     24  C   LIG    1        7.101   1.139   0.603  0.00  0.00    +0.510 C 
ATOM     25  N   LIG    1        5.950   1.826   0.459  0.00  0.00    -0.560 N 
ATOM     26  C   LIG    1        5.965   3.291   0.466  0.00  0.00    +0.300 C 
ATOM     27  O   LIG    1        7.096  -0.072   0.543  0.00  0.00    -0.520 OA
ENDBRANCH  17  25
ENDBRANCH   1  21
TORSDOF 2
