REMARK  Name = ZINCrD000000C5Dy.0
REMARK                            x       y       z     vdW  Elec       q    Type
REMARK                         _______ _______ _______ _____ _____    ______ ____
ROOT
ATOM      1  O   LIG    1        0.841  -0.796  -1.043  0.00  0.00    -0.500 OA
ATOM      2  C   LIG    1       -0.134  -0.247  -0.568  0.00  0.00    +0.560 C 
ATOM      3  N   LIG    1       -0.011   0.966   0.007  0.00  0.00    -0.670 N 
ATOM      4  H   LIG    1       -0.774   1.374   0.446  0.00  0.00    +0.410 HD
ENDROOT
BRANCH   2   5
ATOM      5  C   LIG    1       -1.455  -0.909  -0.620  0.00  0.00    -0.110 A 
ATOM      6  C   LIG    1       -2.575  -0.281  -0.074  0.00  0.00    +0.060 A 
ATOM      7  C   LIG    1       -3.807  -0.902  -0.125  0.00  0.00    +0.050 A 
ATOM      8  C   LIG    1       -3.935  -2.146  -0.715  0.00  0.00    +0.050 A 
ATOM      9  C   LIG    1       -2.826  -2.779  -1.261  0.00  0.00    +0.130 A 
ATOM     10  C   LIG    1       -1.586  -2.162  -1.220  0.00  0.00    +0.120 A 
BRANCH   9  11
ATOM     11  N   LIG    1       -2.962  -4.041  -1.858  0.00  0.00    -0.330 N 
ATOM     12  C   LIG    1       -4.104  -4.730  -2.068  0.00  0.00    +0.470 A 
ATOM     13  N   LIG    1       -3.778  -5.855  -2.650  0.00  0.00    -0.330 NA
ATOM     14  N   LIG    1       -2.507  -5.923  -2.822  0.00  0.00    -0.030 NA
ATOM     15  N   LIG    1       -1.938  -4.857  -2.373  0.00  0.00    -0.070 NA
ENDBRANCH   9  11
ENDBRANCH   2   5
BRANCH   3  16
ATOM     16  C   LIG    1        1.218   1.633  -0.023  0.00  0.00    +0.140 A 
ATOM     17  C   LIG    1        1.254   3.017  -0.144  0.00  0.00    +0.000 A 
ATOM     18  C   LIG    1        2.466   3.683  -0.169  0.00  0.00    +0.040 A 
ATOM     19  C   LIG    1        3.648   2.978  -0.086  0.00  0.00    +0.030 A 
ATOM     20  C   LIG    1        3.624   1.584   0.029  0.00  0.00    +0.030 A 
ATOM     21  C   LIG    1        2.399   0.913   0.060  0.00  0.00    +0.060 A 
BRANCH  20  22
ATOM     22  C   LIG    1        4.849   0.848   0.115  0.00  0.00    -0.100 C 
ATOM     23  C   LIG    1        5.854   0.245   0.185  0.00  0.00    -0.090 C 
BRANCH  23  24
ATOM     24  C   LIG    1        7.079  -0.491   0.271  0.00  0.00    -0.100 A 
ATOM     25  C   LIG    1        8.330   0.053   0.251  0.00  0.00    +0.050 A 
ATOM     26  C   LIG    1        9.352  -0.865   0.348  0.00  0.00    +0.010 A 
ATOM     27  C   LIG    1        8.964  -2.141   0.447  0.00  0.00    -0.040 A 
ATOM     28  S   LIG    1        7.208  -2.238   0.426  0.00  0.00    +0.150 S 
ENDBRANCH  23  24
ENDBRANCH  20  22
ENDBRANCH   3  16
TORSDOF 5
