REMARK  Name = ZINC650000002wK9.0
REMARK                            x       y       z     vdW  Elec       q    Type
REMARK                         _______ _______ _______ _____ _____    ______ ____
ROOT
ATOM      1  C   LIG    1       -0.013   1.086   0.008  0.00  0.00    +0.290 C 
ATOM      2  N   LIG    1       -0.700   1.560   1.217  0.00  0.00    -0.490 N 
ATOM      3  H   LIG    1       -1.647   1.210   1.224  0.00  0.00    +0.430 HD
ATOM      4  H   LIG    1       -0.714   2.568   1.222  0.00  0.00    +0.430 HD
ENDROOT
BRANCH   2   5
ATOM      5  C   LIG    1        0.010   1.073   2.407  0.00  0.00    +0.160 C 
BRANCH   5   6
ATOM      6  C   LIG    1       -0.695   1.559   3.647  0.00  0.00    +0.480 C 
ATOM      7  O   LIG    1       -0.264   1.264   4.748  0.00  0.00    -0.640 OA
ATOM      8  O   LIG    1       -1.697   2.247   3.548  0.00  0.00    -0.680 OA
ENDBRANCH   5   6
ENDBRANCH   2   5
TORSDOF 2
