REMARK  Name = ZINCpk00000eaSmI.0
REMARK                            x       y       z     vdW  Elec       q    Type
REMARK                         _______ _______ _______ _____ _____    ______ ____
ROOT
ATOM      1  C   LIG    1       -0.284   3.756  -1.634  0.00  0.00    +0.610 C 
ATOM      2  N   LIG    1       -0.816   2.998  -0.654  0.00  0.00    -0.590 N 
ATOM      3  C   LIG    1       -0.698   1.534  -0.695  0.00  0.00    +0.300 C 
ATOM      4  C   LIG    1       -0.092   1.051   0.627  0.00  0.00    -0.020 C 
ATOM      5  C   LIG    1       -0.928   1.584   1.793  0.00  0.00    +0.040 C 
ATOM      6  C   LIG    1       -0.907   3.114   1.781  0.00  0.00    +0.020 C 
ATOM      7  C   LIG    1       -1.524   3.619   0.473  0.00  0.00    +0.210 C 
ATOM      8  C   LIG    1       -1.383   5.141   0.395  0.00  0.00    +0.050 C 
ATOM      9  O   LIG    1       -0.286   4.968  -1.533  0.00  0.00    -0.520 OA
ENDROOT
BRANCH   1  12
ATOM     10  C   LIG    1        1.252   5.235  -3.921  0.00  0.00    +0.200 C 
ATOM     11  C   LIG    1        0.971   3.757  -3.829  0.00  0.00    +0.140 A 
ATOM     12  C   LIG    1        0.299   3.116  -2.828  0.00  0.00    -0.100 A 
ATOM     13  N   LIG    1        0.265   1.802  -3.111  0.00  0.00    -0.200 NA
ATOM     14  N   LIG    1        0.866   1.586  -4.229  0.00  0.00    -0.050 NA
ATOM     15  N   LIG    1        1.337   2.812  -4.722  0.00  0.00    -0.310 N 
BRANCH  15  16
ATOM     16  C   LIG    1        2.049   3.016  -5.913  0.00  0.00    +0.110 A 
ATOM     17  C   LIG    1        1.672   2.349  -7.071  0.00  0.00    +0.090 A 
ATOM     18  C   LIG    1        2.372   2.556  -8.244  0.00  0.00    +0.010 A 
ATOM     19  C   LIG    1        3.455   3.419  -8.263  0.00  0.00    +0.120 A 
ATOM     20  C   LIG    1        3.835   4.081  -7.107  0.00  0.00    +0.020 A 
ATOM     21  F   LIG    1        4.141   3.615  -9.410  0.00  0.00    -0.130 F 
ATOM     22  C   LIG    1        3.135   3.881  -5.934  0.00  0.00    +0.070 A 
ENDBRANCH  15  16
ENDBRANCH   1  12
BRANCH   4  23
ATOM     23  C   LIG    1        1.321   1.562   0.748  0.00  0.00    +0.530 C 
ATOM     24  O   LIG    1        1.629   2.279   1.675  0.00  0.00    -0.530 OA
ATOM     25  N   LIG    1        2.242   1.220  -0.175  0.00  0.00    -0.860 N 
ATOM     26  H   LIG    1        3.151   1.549  -0.098  0.00  0.00    +0.400 HD
ATOM     27  H   LIG    1        1.995   0.646  -0.917  0.00  0.00    +0.400 HD
ENDBRANCH   4  23
TORSDOF 3
