REMARK  Name = ZINC580000002wEI.0
REMARK                            x       y       z     vdW  Elec       q    Type
REMARK                         _______ _______ _______ _____ _____    ______ ____
ROOT
ATOM      1  C   LIG    1       -0.214   1.227   2.451  0.00  0.00    +0.530 C 
ATOM      2  C   LIG    1       -0.919   1.713   3.691  0.00  0.00    +0.210 C 
ENDROOT
BRANCH   1   4
ATOM      3  C   LIG    1       -0.013   1.086   0.008  0.00  0.00    +0.330 C 
ATOM      4  N   LIG    1       -0.698   1.558   1.213  0.00  0.00    -0.670 NA
ATOM      5  H   LIG    1       -1.495   2.106   1.135  0.00  0.00    +0.440 HD
ENDBRANCH   1   4
BRANCH   1   6
ATOM      6  N   LIG    1        0.849   0.497   2.556  0.00  0.00    -0.730 NA
ATOM      7  H   LIG    1        1.191   0.263   3.432  0.00  0.00    +0.450 HD
ATOM      8  H   LIG    1        1.302   0.184   1.758  0.00  0.00    +0.430 HD
ENDBRANCH   1   6
TORSDOF 2
