REMARK  Name = ZINCqH0000038bPO.1
REMARK                            x       y       z     vdW  Elec       q    Type
REMARK                         _______ _______ _______ _____ _____    ______ ____
ROOT
ATOM      1  C   LIG    1        1.655  -4.489   2.190  0.00  0.00    +0.180 A 
ATOM      2  C   LIG    1        0.605  -4.631   3.087  0.00  0.00    -0.030 A 
ATOM      3  C   LIG    1        0.783  -4.300   4.417  0.00  0.00    +0.050 A 
ATOM      4  C   LIG    1        2.011  -3.826   4.855  0.00  0.00    +0.080 A 
ATOM      5  C   LIG    1        3.061  -3.684   3.959  0.00  0.00    +0.060 A 
ATOM      6  C   LIG    1        2.886  -4.019   2.631  0.00  0.00    -0.090 A 
ATOM      7  C   LIG    1        4.028  -3.871   1.659  0.00  0.00    +0.120 C 
ENDROOT
BRANCH   1   8
ATOM      8  N   LIG    1        1.475  -4.824   0.844  0.00  0.00    -1.050 N 
ATOM      9  H   LIG    1        2.222  -5.159   0.323  0.00  0.00    +0.430 HD
BRANCH   8  10
ATOM     10  S   LIG    1       -0.013  -4.647   0.138  0.00  0.00    +2.690 S 
ATOM     11  O   LIG    1       -0.497  -3.373   0.538  0.00  0.00    -0.930 OA
ATOM     12  O   LIG    1        0.141  -5.029  -1.222  0.00  0.00    -0.920 OA
BRANCH  10  17
ATOM     13  C   LIG    1       -3.567  -8.804   2.578  0.00  0.00    +0.150 C 
ATOM     14  C   LIG    1       -2.688  -7.739   1.975  0.00  0.00    +0.200 A 
ATOM     15  C   LIG    1       -3.004  -6.407   2.160  0.00  0.00    -0.030 A 
ATOM     16  C   LIG    1       -2.187  -5.434   1.605  0.00  0.00    +0.210 A 
ATOM     17  C   LIG    1       -1.082  -5.839   0.873  0.00  0.00    -0.740 A 
ATOM     18  C   LIG    1       -0.831  -7.192   0.725  0.00  0.00    +0.280 A 
ATOM     19 CL   LIG    1        0.549  -7.714  -0.190  0.00  0.00    +0.000 Cl
ATOM     20  N   LIG    1       -1.629  -8.090   1.271  0.00  0.00    -0.480 NA
ENDBRANCH  10  17
ENDBRANCH   8  10
ENDBRANCH   1   8
BRANCH   4  21
ATOM     21  O   LIG    1        2.186  -3.501   6.164  0.00  0.00    -0.220 OA
BRANCH  21  22
ATOM     22  C   LIG    1        2.142  -4.499   7.079  0.00  0.00    +0.490 A 
ATOM     23  N   LIG    1        2.031  -5.751   6.663  0.00  0.00    -0.560 NA
ATOM     24  C   LIG    1        1.990  -6.750   7.529  0.00  0.00    +0.360 A 
ATOM     25  C   LIG    1        2.053  -6.471   8.886  0.00  0.00    -0.110 A 
ATOM     26  C   LIG    1        2.164  -5.149   9.285  0.00  0.00    +0.370 A 
ATOM     27  N   LIG    1        2.205  -4.199   8.366  0.00  0.00    -0.520 NA
ENDBRANCH  21  22
ENDBRANCH   4  21
TORSDOF 5
