REMARK  Name = ZINCrH000004sYyK.0
REMARK                            x       y       z     vdW  Elec       q    Type
REMARK                         _______ _______ _______ _____ _____    ______ ____
ROOT
ATOM      1  S   LIG    1       -1.509  -0.813   0.572  0.00  0.00    +0.090 S 
ENDROOT
BRANCH   1   4
ATOM      2  C   LIG    1        1.586  -1.840   0.026  0.00  0.00    +0.350 C 
ATOM      3  N   LIG    1        1.204  -0.426   0.010  0.00  0.00    -0.460 N 
ATOM      4  C   LIG    1       -0.040   0.096   0.222  0.00  0.00    +0.140 A 
ATOM      5  N   LIG    1        0.062   1.402   0.117  0.00  0.00    -0.290 NA
ATOM      6  N   LIG    1        1.277   1.730  -0.144  0.00  0.00    -0.260 NA
ATOM      7  C   LIG    1        2.025   0.654  -0.222  0.00  0.00    +0.220 A 
BRANCH   7   8
ATOM      8  C   LIG    1        3.475   0.611  -0.506  0.00  0.00    -0.010 A 
ATOM      9  C   LIG    1        4.262   1.746  -0.306  0.00  0.00    +0.090 A 
ATOM     10  C   LIG    1        5.616   1.698  -0.567  0.00  0.00    +0.030 A 
ATOM     11  C   LIG    1        6.192   0.529  -1.037  0.00  0.00    -0.020 A 
ATOM     12  C   LIG    1        5.415  -0.598  -1.242  0.00  0.00    +0.030 A 
ATOM     13 CL   LIG    1        7.895   0.479  -1.370  0.00  0.00    -0.060 Cl
ATOM     14  C   LIG    1        4.061  -0.564  -0.979  0.00  0.00    +0.040 A 
ENDBRANCH   7   8
ENDBRANCH   1   4
BRANCH   1  15
ATOM     15  C   LIG    1       -2.693   0.548   0.718  0.00  0.00    +0.110 C 
BRANCH  15  16
ATOM     16  C   LIG    1       -4.060  -0.007   1.025  0.00  0.00    +0.530 C 
ATOM     17  N   LIG    1       -5.107   0.828   1.178  0.00  0.00    -0.720 N 
ATOM     18  H   LIG    1       -4.981   1.786   1.091  0.00  0.00    +0.410 HD
ATOM     19  O   LIG    1       -4.218  -1.204   1.134  0.00  0.00    -0.520 OA
BRANCH  17  20
ATOM     20  C   LIG    1       -6.436   0.289   1.476  0.00  0.00    +0.260 C 
BRANCH  20  21
ATOM     21  C   LIG    1       -7.438   1.439   1.600  0.00  0.00    +0.070 C 
BRANCH  21  22
ATOM     22  C   LIG    1       -8.805   0.884   1.906  0.00  0.00    -0.100 A 
ATOM     23  C   LIG    1       -9.666   0.559   0.875  0.00  0.00    +0.050 A 
ATOM     24  C   LIG    1      -10.918   0.045   1.155  0.00  0.00    -0.010 A 
ATOM     25  C   LIG    1      -11.314  -0.133   2.470  0.00  0.00    +0.100 A 
ATOM     26  C   LIG    1      -10.453   0.198   3.502  0.00  0.00    -0.010 A 
ATOM     27  F   LIG    1      -12.540  -0.630   2.745  0.00  0.00    -0.140 F 
ATOM     28  C   LIG    1       -9.199   0.706   3.219  0.00  0.00    +0.050 A 
ENDBRANCH  21  22
ENDBRANCH  20  21
ENDBRANCH  17  20
ENDBRANCH  15  16
ENDBRANCH   1  15
TORSDOF 7
