REMARK  Name = ZINCtV00000L6kqD.0
REMARK                            x       y       z     vdW  Elec       q    Type
REMARK                         _______ _______ _______ _____ _____    ______ ____
ROOT
ATOM      1  C   LIG    1        3.514   3.432   0.003  0.00  0.00    +0.110 A 
ATOM      2  C   LIG    1        2.651   3.576   1.085  0.00  0.00    +0.000 A 
ATOM      3  C   LIG    1        1.463   2.894   1.113  0.00  0.00    +0.080 A 
ATOM      4  C   LIG    1        1.118   2.049   0.048  0.00  0.00    +0.030 A 
ATOM      5  C   LIG    1        1.994   1.903  -1.037  0.00  0.00    +0.070 A 
ATOM      6  C   LIG    1        3.177   2.595  -1.056  0.00  0.00    +0.020 A 
ENDROOT
BRANCH   4   7
ATOM      7  N   LIG    1       -0.052   1.372   0.071  0.00  0.00    -0.360 NA
ATOM      8  C   LIG    1       -0.808   1.332  -1.002  0.00  0.00    +0.160 C 
ATOM      9  C   LIG    1       -0.546   1.968  -2.316  0.00  0.00    +0.520 C 
ATOM     10  N   LIG    1       -1.574   1.670  -3.128  0.00  0.00    -0.650 N 
ATOM     11  H   LIG    1       -1.646   1.965  -4.049  0.00  0.00    +0.420 HD
ATOM     12  C   LIG    1       -2.526   0.890  -2.479  0.00  0.00    +0.160 A 
ATOM     13  C   LIG    1       -3.734   0.358  -2.913  0.00  0.00    -0.010 A 
ATOM     14  C   LIG    1       -4.508  -0.397  -2.054  0.00  0.00    +0.080 A 
ATOM     15  C   LIG    1       -4.094  -0.634  -0.754  0.00  0.00    -0.010 A 
ATOM     16  C   LIG    1       -2.896  -0.115  -0.304  0.00  0.00    +0.110 A 
ATOM     17  O   LIG    1        0.427   2.637  -2.607  0.00  0.00    -0.470 OA
ATOM     18  C   LIG    1       -2.109   0.647  -1.162  0.00  0.00    -0.120 A 
ENDBRANCH   4   7
BRANCH   1  19
ATOM     19  O   LIG    1        4.689   4.111  -0.020  0.00  0.00    -0.260 OA
BRANCH  19  23
ATOM     20  C   LIG    1        7.576   3.078   2.739  0.00  0.00    -0.100 A 
ATOM     21  C   LIG    1        7.770   4.170   1.913  0.00  0.00    +0.050 A 
ATOM     22  C   LIG    1        6.805   4.518   0.989  0.00  0.00    -0.010 A 
ATOM     23  C   LIG    1        5.640   3.771   0.888  0.00  0.00    +0.110 A 
ATOM     24  C   LIG    1        5.446   2.678   1.722  0.00  0.00    -0.060 A 
ATOM     25  C   LIG    1        6.416   2.332   2.642  0.00  0.00    +0.050 A 
BRANCH  20  26
ATOM     26  C   LIG    1        8.631   2.700   3.748  0.00  0.00    -0.020 C 
ATOM     27  C   LIG    1        8.849   3.864   4.717  0.00  0.00    +0.040 C 
ATOM     28  C   LIG    1        9.941   2.388   3.022  0.00  0.00    +0.040 C 
BRANCH  26  30
ATOM     29  C   LIG    1        9.243   1.083   5.551  0.00  0.00    +0.010 C 
ATOM     30  C   LIG    1        8.173   1.466   4.527  0.00  0.00    +0.000 C 
ENDBRANCH  26  30
ENDBRANCH  20  26
ENDBRANCH  19  23
ENDBRANCH   1  19
TORSDOF 5
