REMARK  Name = ZINCtV00001bB3lz.0
REMARK                            x       y       z     vdW  Elec       q    Type
REMARK                         _______ _______ _______ _____ _____    ______ ____
ROOT
ATOM      1  N   LIG    1        5.047   3.724   0.149  0.00  0.00    -0.480 N 
ATOM      2  C   LIG    1        6.052   2.833   0.028  0.00  0.00    +0.570 C 
ATOM      3  C   LIG    1        7.442   3.317  -0.051  0.00  0.00    -0.200 A 
ATOM      4  C   LIG    1        8.523   2.441   0.013  0.00  0.00    +0.120 A 
ATOM      5  C   LIG    1        9.808   2.942  -0.037  0.00  0.00    -0.040 A 
ATOM      6  C   LIG    1       10.027   4.305  -0.152  0.00  0.00    +0.080 A 
ATOM      7  C   LIG    1        8.963   5.185  -0.224  0.00  0.00    -0.050 A 
ATOM      8  C   LIG    1        7.668   4.698  -0.181  0.00  0.00    +0.240 A 
ATOM      9  N   LIG    1        6.566   5.542  -0.265  0.00  0.00    -0.740 N 
ATOM     10  H   LIG    1        6.622   6.380  -0.750  0.00  0.00    +0.420 HD
ATOM     11  O   LIG    1        5.812   1.641  -0.020  0.00  0.00    -0.520 OA
ATOM     12  C   LIG    1        5.317   5.141   0.393  0.00  0.00    +0.470 C 
ATOM     13  C   LIG    1        4.164   5.979  -0.162  0.00  0.00    +0.080 C 
ENDROOT
BRANCH  12  14
ATOM     14  C   LIG    1        5.437   5.377   1.877  0.00  0.00    -0.110 A 
ATOM     15  C   LIG    1        4.726   4.589   2.762  0.00  0.00    +0.070 A 
ATOM     16  C   LIG    1        4.840   4.802   4.123  0.00  0.00    +0.030 A 
ATOM     17  C   LIG    1        5.657   5.812   4.599  0.00  0.00    -0.020 A 
ATOM     18  C   LIG    1        6.365   6.604   3.712  0.00  0.00    +0.020 A 
ATOM     19 CL   LIG    1        5.796   6.084   6.308  0.00  0.00    -0.070 Cl
ATOM     20  C   LIG    1        6.255   6.386   2.352  0.00  0.00    +0.050 A 
ENDBRANCH  12  14
BRANCH   1  23
ATOM     21  C   LIG    1        4.134   2.918  -2.322  0.00  0.00    +0.090 C 
ATOM     22  C   LIG    1        3.268   2.850  -1.090  0.00  0.00    +0.200 C 
ATOM     23  N   LIG    1        3.721   3.284   0.046  0.00  0.00    -0.250 NA
BRANCH  22  24
ATOM     24  C   LIG    1        1.907   2.290  -1.176  0.00  0.00    -0.060 A 
ATOM     25  C   LIG    1        1.102   2.225  -0.036  0.00  0.00    +0.090 A 
ATOM     26  C   LIG    1       -0.170   1.700  -0.123  0.00  0.00    +0.020 A 
ATOM     27  C   LIG    1       -0.651   1.238  -1.337  0.00  0.00    -0.010 A 
ATOM     28  C   LIG    1        0.142   1.300  -2.471  0.00  0.00    +0.020 A 
ATOM     29 CL   LIG    1       -2.253   0.579  -1.438  0.00  0.00    -0.060 Cl
ATOM     30  C   LIG    1        1.416   1.823  -2.398  0.00  0.00    +0.070 A 
ENDBRANCH  22  24
ENDBRANCH   1  23
TORSDOF 3
