REMARK  Name = ZINCrg00000SjSr3.0
REMARK                            x       y       z     vdW  Elec       q    Type
REMARK                         _______ _______ _______ _____ _____    ______ ____
ROOT
ATOM      1  C   LIG    1       -1.326   7.355   0.055  0.00  0.00    +0.240 C 
ENDROOT
BRANCH   1   2
ATOM      2  N   LIG    1       -1.305   5.891   0.047  0.00  0.00    -0.710 N 
ATOM      3  H   LIG    1       -2.138   5.394   0.052  0.00  0.00    +0.410 HD
ATOM      4  C   LIG    1       -0.128   5.234   0.032  0.00  0.00    +0.580 C 
ATOM      5  O   LIG    1        0.916   5.856   0.026  0.00  0.00    -0.500 OA
BRANCH   4   6
ATOM      6  C   LIG    1       -0.106   3.752   0.023  0.00  0.00    +0.030 A 
ATOM      7  C   LIG    1        1.109   3.071   0.008  0.00  0.00    +0.290 A 
ATOM      8  N   LIG    1        1.123   1.750   0.001  0.00  0.00    -0.440 NA
ATOM      9  C   LIG    1       -0.013   1.076   0.008  0.00  0.00    +0.260 A 
ATOM     10  C   LIG    1       -1.225   1.751   0.017  0.00  0.00    +0.230 A 
ATOM     11  N   LIG    1       -1.248   3.069   0.030  0.00  0.00    -0.410 NA
ENDBRANCH   4   6
ENDBRANCH   1   2
BRANCH   1  12
ATOM     12  C   LIG    1       -2.635   7.843   0.680  0.00  0.00    +0.280 C 
BRANCH  12  15
ATOM     13  O   LIG    1       -4.729   8.290   2.319  0.00  0.00    -0.520 OA
ATOM     14  C   LIG    1       -3.879   7.537   2.752  0.00  0.00    +0.580 C 
ATOM     15  N   LIG    1       -2.792   7.249   2.010  0.00  0.00    -0.710 N 
ATOM     16  H   LIG    1       -2.114   6.648   2.356  0.00  0.00    +0.410 HD
BRANCH  14  17
ATOM     17  C   LIG    1       -4.038   6.936   4.097  0.00  0.00    +0.020 A 
ATOM     18  C   LIG    1       -5.162   7.233   4.867  0.00  0.00    +0.290 A 
ATOM     19  N   LIG    1       -5.300   6.695   6.065  0.00  0.00    -0.440 NA
ATOM     20  C   LIG    1       -4.375   5.876   6.533  0.00  0.00    +0.260 A 
ATOM     21  C   LIG    1       -3.255   5.578   5.769  0.00  0.00    +0.230 A 
ATOM     22  N   LIG    1       -3.112   6.107   4.571  0.00  0.00    -0.410 NA
ENDBRANCH  14  17
ENDBRANCH  12  15
ENDBRANCH   1  12
BRANCH   1  23
ATOM     23  C   LIG    1       -1.221   7.875  -1.380  0.00  0.00    +0.080 C 
BRANCH  23  24
ATOM     24  C   LIG    1        0.121   7.499  -1.954  0.00  0.00    -0.070 A 
ATOM     25  C   LIG    1        1.196   8.357  -1.816  0.00  0.00    +0.010 A 
ATOM     26  C   LIG    1        2.429   8.010  -2.338  0.00  0.00    +0.010 A 
ATOM     27  C   LIG    1        2.582   6.810  -3.007  0.00  0.00    +0.000 A 
ATOM     28  C   LIG    1        1.506   5.955  -3.149  0.00  0.00    +0.000 A 
ATOM     29  C   LIG    1        0.275   6.300  -2.623  0.00  0.00    +0.000 A 
ENDBRANCH  23  24
ENDBRANCH   1  23
TORSDOF 7
