REMARK  Name = ZINCpk000000mKyB.0
REMARK                            x       y       z     vdW  Elec       q    Type
REMARK                         _______ _______ _______ _____ _____    ______ ____
ROOT
ATOM      1  N   LIG    1       -0.853   1.667   3.540  0.00  0.00    -0.680 N 
ATOM      2  H   LIG    1       -1.676   2.172   3.454  0.00  0.00    +0.410 HD
ATOM      3  C   LIG    1       -0.124   1.373   2.445  0.00  0.00    +0.710 C 
ATOM      4  N   LIG    1       -0.592   1.686   1.220  0.00  0.00    -0.740 N 
ATOM      5  H   LIG    1       -1.453   2.123   1.127  0.00  0.00    +0.400 HD
ATOM      6  O   LIG    1        0.954   0.824   2.562  0.00  0.00    -0.560 OA
ENDROOT
BRANCH   1  10
ATOM      7  C   LIG    1        0.431   0.406   7.297  0.00  0.00    -0.160 A 
ATOM      8  C   LIG    1       -0.254   1.617   7.160  0.00  0.00    +0.110 A 
ATOM      9  C   LIG    1       -0.676   2.031   5.918  0.00  0.00    -0.030 A 
ATOM     10  C   LIG    1       -0.422   1.245   4.798  0.00  0.00    +0.190 A 
ATOM     11  C   LIG    1        0.254   0.037   4.930  0.00  0.00    +0.010 A 
ATOM     12  C   LIG    1        0.685  -0.380   6.170  0.00  0.00    +0.070 A 
BRANCH   7  15
ATOM     13  N   LIG    1        1.546  -1.208   8.758  0.00  0.00    -0.730 N 
ATOM     14  H   LIG    1        1.723  -1.755   7.976  0.00  0.00    +0.400 HD
ATOM     15  C   LIG    1        0.885  -0.041   8.628  0.00  0.00    +0.560 C 
ATOM     16  O   LIG    1        0.664   0.645   9.608  0.00  0.00    -0.540 OA
BRANCH  13  17
ATOM     17  C   LIG    1        1.997  -1.652  10.079  0.00  0.00    +0.300 C 
BRANCH  17  19
ATOM     18  C   LIG    1        3.921  -3.118  10.409  0.00  0.00    +0.040 C 
ATOM     19  C   LIG    1        2.703  -2.977   9.950  0.00  0.00    -0.060 C 
ENDBRANCH  17  19
ENDBRANCH  13  17
ENDBRANCH   7  15
ENDBRANCH   1  10
BRANCH   4  20
ATOM     20  C   LIG    1        0.199   1.365   0.030  0.00  0.00    +0.430 C 
BRANCH  20  21
ATOM     21  C   LIG    1       -0.542   1.816  -1.202  0.00  0.00    +0.170 A 
ATOM     22  N   LIG    1       -0.453   2.985  -1.775  0.00  0.00    -0.260 NA
ATOM     23  N   LIG    1       -1.224   3.024  -2.803  0.00  0.00    -0.280 NA
ATOM     24  C   LIG    1       -1.843   1.880  -2.930  0.00  0.00    +0.170 A 
ATOM     25  C   LIG    1       -2.846   1.143  -3.792  0.00  0.00    +0.180 C 
ATOM     26  C   LIG    1       -3.287  -0.056  -2.921  0.00  0.00    +0.070 C 
ATOM     27  C   LIG    1       -2.069  -0.236  -1.990  0.00  0.00    +0.300 C 
ATOM     28  N   LIG    1       -1.422   1.080  -1.926  0.00  0.00    -0.490 N 
ENDBRANCH  20  21
ENDBRANCH   4  20
TORSDOF 6
