REMARK  Name = ZINCvU0000000JZw.0
REMARK                            x       y       z     vdW  Elec       q    Type
REMARK                         _______ _______ _______ _____ _____    ______ ____
ROOT
ATOM      1  C   LIG    1       -4.832   0.568   0.028  0.00  0.00    -0.070 A 
ATOM      2  C   LIG    1       -4.667  -0.805  -0.089  0.00  0.00    +0.070 A 
ATOM      3  C   LIG    1       -5.797  -1.638  -0.078  0.00  0.00    +0.190 A 
ATOM      4  N   LIG    1       -7.019  -1.163   0.029  0.00  0.00    -0.440 NA
ATOM      5  C   LIG    1       -7.271   0.142   0.141  0.00  0.00    +0.130 A 
ATOM      6  C   LIG    1       -8.589   0.621   0.254  0.00  0.00    +0.050 A 
ATOM      7  C   LIG    1       -8.814   1.959   0.366  0.00  0.00    +0.040 A 
ATOM      8  C   LIG    1       -7.758   2.867   0.371  0.00  0.00    +0.030 A 
ATOM      9  C   LIG    1       -6.468   2.440   0.264  0.00  0.00    +0.050 A 
ATOM     10  C   LIG    1       -6.200   1.072   0.146  0.00  0.00    -0.060 A 
ENDROOT
BRANCH   3  11
ATOM     11  C   LIG    1       -5.606  -3.104  -0.197  0.00  0.00    -0.050 A 
ATOM     12  C   LIG    1       -6.710  -3.955  -0.195  0.00  0.00    +0.080 A 
ATOM     13  C   LIG    1       -6.528  -5.319  -0.306  0.00  0.00    +0.020 A 
ATOM     14  C   LIG    1       -5.252  -5.841  -0.420  0.00  0.00    +0.070 A 
ATOM     15  C   LIG    1       -4.152  -5.001  -0.422  0.00  0.00    -0.090 A 
ATOM     16 BR   LIG    1       -2.412  -5.725  -0.578  0.00  0.00    -0.040 Br
ATOM     17  C   LIG    1       -4.323  -3.635  -0.318  0.00  0.00    +0.070 A 
ENDBRANCH   3  11
BRANCH   1  18
ATOM     18  C   LIG    1       -3.672   1.484   0.028  0.00  0.00    +0.520 C 
ATOM     19  O   LIG    1       -3.848   2.686   0.028  0.00  0.00    -0.480 OA
BRANCH  18  20
ATOM     20  O   LIG    1       -2.420   0.986   0.026  0.00  0.00    -0.320 OA
BRANCH  20  21
ATOM     21  C   LIG    1       -1.329   1.944   0.026  0.00  0.00    +0.300 C 
BRANCH  21  24
ATOM     22  N   LIG    1        1.144   1.898   0.018  0.00  0.00    -0.630 N 
ATOM     23  H   LIG    1        1.130   2.868   0.019  0.00  0.00    +0.420 HD
ATOM     24  C   LIG    1       -0.014   1.209   0.024  0.00  0.00    +0.510 C 
ATOM     25  O   LIG    1        0.002  -0.004   0.024  0.00  0.00    -0.470 OA
BRANCH  22  27
ATOM     26  C   LIG    1        3.585   1.824  -0.001  0.00  0.00    -0.110 A 
ATOM     27  C   LIG    1        2.355   1.221   0.011  0.00  0.00    +0.050 A 
ATOM     28  S   LIG    1        2.516  -0.476   0.009  0.00  0.00    +0.330 S 
ATOM     29  C   LIG    1        4.269  -0.387  -0.001  0.00  0.00    -0.100 A 
ATOM     30  C   LIG    1        4.676   0.875  -0.002  0.00  0.00    +0.080 A 
BRANCH  26  32
ATOM     31  N   LIG    1        3.917   4.370  -0.015  0.00  0.00    -0.420 NA
ATOM     32  C   LIG    1        3.770   3.244  -0.009  0.00  0.00    +0.270 C 
ENDBRANCH  26  32
ENDBRANCH  22  27
ENDBRANCH  21  24
ENDBRANCH  20  21
ENDBRANCH  18  20
ENDBRANCH   1  18
TORSDOF 7
