REMARK  Name = ZINCvU0000000Jzw.1
REMARK                            x       y       z     vdW  Elec       q    Type
REMARK                         _______ _______ _______ _____ _____    ______ ____
ROOT
ATOM      1  C   LIG    1       -0.016   1.344   0.009  0.00  0.00    +0.510 C 
ATOM      2  N   LIG    1        0.002  -0.004   0.002  0.00  0.00    -0.630 N 
ATOM      3  H   LIG    1        0.849  -0.478  -0.009  0.00  0.00    +0.430 HD
ATOM      4  O   LIG    1       -1.075   1.936   0.018  0.00  0.00    -0.440 OA
ENDROOT
BRANCH   2   5
ATOM      5  C   LIG    1       -1.194  -0.717   0.010  0.00  0.00    +0.250 A 
ATOM      6  N   LIG    1       -2.389  -0.207   0.023  0.00  0.00    -0.250 NA
ATOM      7  N   LIG    1       -3.368  -1.002   0.029  0.00  0.00    -0.240 NA
ATOM      8  C   LIG    1       -3.112  -2.277   0.020  0.00  0.00    -0.020 A 
ATOM      9  S   LIG    1       -1.358  -2.474  -0.005  0.00  0.00    +0.120 S 
BRANCH   8  10
ATOM     10  S   LIG    1       -4.303  -3.575   0.025  0.00  0.00    +0.030 S 
BRANCH  10  11
ATOM     11  C   LIG    1       -5.881  -2.682   0.044  0.00  0.00    +0.150 C 
BRANCH  11  12
ATOM     12  C   LIG    1       -7.018  -3.670   0.050  0.00  0.00    -0.120 A 
ATOM     13  C   LIG    1       -7.529  -4.129   1.249  0.00  0.00    +0.070 A 
ATOM     14  C   LIG    1       -8.572  -5.037   1.255  0.00  0.00    +0.010 A 
ATOM     15  C   LIG    1       -9.105  -5.486   0.062  0.00  0.00    +0.060 A 
ATOM     16  C   LIG    1       -8.597  -5.028  -1.139  0.00  0.00    -0.010 A 
ATOM     17  C   LIG    1       -7.556  -4.115  -1.146  0.00  0.00    +0.120 A 
ATOM     18  F   LIG    1       -7.062  -3.662  -2.319  0.00  0.00    -0.130 F 
ENDBRANCH  11  12
ENDBRANCH  10  11
ENDBRANCH   8  10
ENDBRANCH   2   5
BRANCH   1  19
ATOM     19  C   LIG    1        1.278   2.115   0.001  0.00  0.00    +0.180 C 
BRANCH  19  22
ATOM     20  C   LIG    1        0.022   5.441  -0.787  0.00  0.00    +0.130 A 
ATOM     21  N   LIG    1        0.211   4.156  -0.889  0.00  0.00    -0.450 NA
ATOM     22  C   LIG    1        0.983   3.592   0.012  0.00  0.00    +0.080 A 
ATOM     23  C   LIG    1        1.486   4.410   0.942  0.00  0.00    -0.070 A 
ATOM     24  S   LIG    1        0.914   6.043   0.608  0.00  0.00    +0.090 S 
BRANCH  20  28
ATOM     25  C   LIG    1       -2.361   7.799  -3.396  0.00  0.00    +0.150 A 
ATOM     26  C   LIG    1       -1.706   8.396  -2.327  0.00  0.00    -0.010 A 
ATOM     27  C   LIG    1       -0.932   7.635  -1.479  0.00  0.00    +0.080 A 
ATOM     28  C   LIG    1       -0.807   6.261  -1.694  0.00  0.00    -0.070 A 
ATOM     29  C   LIG    1       -1.463   5.665  -2.773  0.00  0.00    +0.120 A 
ATOM     30  C   LIG    1       -2.240   6.433  -3.614  0.00  0.00    -0.070 A 
BRANCH  25  32
ATOM     31  C   LIG    1       -3.770   7.875  -5.310  0.00  0.00    +0.240 C 
ATOM     32  O   LIG    1       -3.124   8.553  -4.231  0.00  0.00    -0.310 OA
ENDBRANCH  25  32
ENDBRANCH  20  28
ENDBRANCH  19  22
ENDBRANCH   1  19
TORSDOF 8
