REMARK  Name = ZINCrg00000KQFMb.1
REMARK                            x       y       z     vdW  Elec       q    Type
REMARK                         _______ _______ _______ _____ _____    ______ ____
ROOT
ATOM      1  C   LIG    1        2.257  -5.588   0.405  0.00  0.00    +0.250 C 
ATOM      2  C   LIG    1        1.932  -6.170   1.803  0.00  0.00    +0.010 C 
ATOM      3  C   LIG    1        2.507  -7.600   1.761  0.00  0.00    +0.030 C 
ATOM      4  C   LIG    1        2.575  -8.004   0.277  0.00  0.00    +0.250 C 
ATOM      5  C   LIG    1        2.041  -6.802  -0.534  0.00  0.00    +0.030 C 
ENDROOT
BRANCH   1   7
ATOM      6  C   LIG    1       -0.112  -4.737   0.080  0.00  0.00    +0.290 C 
ATOM      7  N   LIG    1        1.334  -4.501   0.067  0.00  0.00    -0.600 N 
ATOM      8  C   LIG    1        1.816  -3.284  -0.254  0.00  0.00    +0.610 C 
ATOM      9  O   LIG    1        3.017  -3.102  -0.314  0.00  0.00    -0.530 OA
BRANCH   8  10
ATOM     10  C   LIG    1        0.887  -2.174  -0.533  0.00  0.00    +0.000 A 
ATOM     11  N   LIG    1       -0.425  -2.241  -0.598  0.00  0.00    -0.200 NA
ATOM     12  N   LIG    1       -0.953  -1.100  -0.858  0.00  0.00    -0.420 N 
ATOM     13  H   LIG    1       -1.906  -0.945  -0.947  0.00  0.00    +0.450 HD
ATOM     14  C   LIG    1        0.006  -0.130  -0.996  0.00  0.00    +0.070 A 
ATOM     15  C   LIG    1       -0.015   1.233  -1.271  0.00  0.00    +0.010 A 
ATOM     16  C   LIG    1        1.169   1.933  -1.341  0.00  0.00    +0.050 A 
ATOM     17  C   LIG    1        2.385   1.292  -1.139  0.00  0.00    -0.010 A 
ATOM     18  C   LIG    1        2.428  -0.047  -0.868  0.00  0.00    +0.100 A 
ATOM     19  C   LIG    1        1.243  -0.773  -0.793  0.00  0.00    -0.110 A 
ENDBRANCH   8  10
ENDBRANCH   1   7
BRANCH   4  20
ATOM     20  N   LIG    1        3.961  -8.285  -0.104  0.00  0.00    -0.730 N 
ATOM     21  H   LIG    1        4.509  -7.585  -0.492  0.00  0.00    +0.400 HD
ATOM     22  C   LIG    1        4.475  -9.517   0.085  0.00  0.00    +0.520 C 
ATOM     23  O   LIG    1        3.790 -10.392   0.570  0.00  0.00    -0.510 OA
BRANCH  22  24
ATOM     24  C   LIG    1        5.901  -9.806  -0.307  0.00  0.00    +0.190 C 
BRANCH  24  25
ATOM     25  C   LIG    1        6.226 -11.244   0.005  0.00  0.00    +0.180 A 
ATOM     26  N   LIG    1        6.102 -11.831   1.165  0.00  0.00    -0.260 NA
ATOM     27  N   LIG    1        6.466 -13.060   1.069  0.00  0.00    -0.290 NA
ATOM     28  C   LIG    1        6.848 -13.311  -0.154  0.00  0.00    +0.380 A 
ATOM     29  N   LIG    1        6.706 -12.166  -0.864  0.00  0.00    -0.580 N 
ATOM     30  H   LIG    1        6.908 -12.033  -1.803  0.00  0.00    +0.430 HD
ENDBRANCH  24  25
ENDBRANCH  22  24
ENDBRANCH   4  20
TORSDOF 5
