REMARK  Name = ZINCrg00000KQFMb.0
REMARK                            x       y       z     vdW  Elec       q    Type
REMARK                         _______ _______ _______ _____ _____    ______ ____
ROOT
ATOM      1  C   LIG    1        2.257  -5.588   0.404  0.00  0.00    +0.250 C 
ATOM      2  C   LIG    1        1.972  -6.128   1.828  0.00  0.00    +0.010 C 
ATOM      3  C   LIG    1        2.532  -7.566   1.806  0.00  0.00    +0.030 C 
ATOM      4  C   LIG    1        2.547  -8.009   0.333  0.00  0.00    +0.240 C 
ATOM      5  C   LIG    1        1.996  -6.826  -0.489  0.00  0.00    +0.030 C 
ENDROOT
BRANCH   1   7
ATOM      6  C   LIG    1       -0.112  -4.737   0.080  0.00  0.00    +0.290 C 
ATOM      7  N   LIG    1        1.334  -4.501   0.067  0.00  0.00    -0.600 N 
ATOM      8  C   LIG    1        1.816  -3.284  -0.254  0.00  0.00    +0.610 C 
ATOM      9  O   LIG    1        3.017  -3.102  -0.315  0.00  0.00    -0.530 OA
BRANCH   8  10
ATOM     10  C   LIG    1        0.887  -2.174  -0.533  0.00  0.00    +0.000 A 
ATOM     11  N   LIG    1       -0.425  -2.241  -0.597  0.00  0.00    -0.200 NA
ATOM     12  N   LIG    1       -0.953  -1.100  -0.858  0.00  0.00    -0.420 N 
ATOM     13  H   LIG    1       -1.906  -0.945  -0.946  0.00  0.00    +0.450 HD
ATOM     14  C   LIG    1        0.006  -0.130  -0.996  0.00  0.00    +0.070 A 
ATOM     15  C   LIG    1       -0.015   1.234  -1.271  0.00  0.00    +0.010 A 
ATOM     16  C   LIG    1        1.170   1.933  -1.341  0.00  0.00    +0.050 A 
ATOM     17  C   LIG    1        2.385   1.292  -1.139  0.00  0.00    -0.010 A 
ATOM     18  C   LIG    1        2.428  -0.047  -0.868  0.00  0.00    +0.100 A 
ATOM     19  C   LIG    1        1.243  -0.773  -0.793  0.00  0.00    -0.110 A 
ENDBRANCH   8  10
ENDBRANCH   1   7
BRANCH   4  20
ATOM     20  N   LIG    1        3.918  -8.315  -0.084  0.00  0.00    -0.730 N 
ATOM     21  H   LIG    1        4.459  -7.632  -0.509  0.00  0.00    +0.400 HD
ATOM     22  C   LIG    1        4.426  -9.547   0.122  0.00  0.00    +0.520 C 
ATOM     23  O   LIG    1        3.748 -10.401   0.653  0.00  0.00    -0.530 OA
BRANCH  22  24
ATOM     24  C   LIG    1        5.835  -9.861  -0.308  0.00  0.00    +0.190 C 
BRANCH  24  25
ATOM     25  C   LIG    1        6.157 -11.294   0.034  0.00  0.00    +0.250 A 
ATOM     26  N   LIG    1        5.959 -12.323  -0.747  0.00  0.00    -0.300 NA
ATOM     27  N   LIG    1        6.395 -13.457  -0.042  0.00  0.00    -0.480 N 
ATOM     28  H   LIG    1        6.380 -14.376  -0.352  0.00  0.00    +0.440 HD
ATOM     29  C   LIG    1        6.837 -13.015   1.148  0.00  0.00    +0.490 A 
ATOM     30  N   LIG    1        6.693 -11.715   1.178  0.00  0.00    -0.540 NA
ENDBRANCH  24  25
ENDBRANCH  22  24
ENDBRANCH   4  20
TORSDOF 5
