REMARK  Name = ZINCpk000000op7E.0
REMARK                            x       y       z     vdW  Elec       q    Type
REMARK                         _______ _______ _______ _____ _____    ______ ____
ROOT
ATOM      1  C   LIG    1       -2.635   3.461   0.939  0.00  0.00    +0.490 C 
ATOM      2  N   LIG    1       -3.876   3.910   1.213  0.00  0.00    -0.660 N 
ATOM      3  H   LIG    1       -4.423   3.452   1.870  0.00  0.00    +0.410 HD
ATOM      4  O   LIG    1       -1.987   3.974   0.051  0.00  0.00    -0.480 OA
ENDROOT
BRANCH   2   5
ATOM      5  C   LIG    1       -4.375   5.040   0.550  0.00  0.00    +0.050 A 
ATOM      6  C   LIG    1       -5.735   5.145   0.265  0.00  0.00    +0.330 A 
ATOM      7  N   LIG    1       -6.227   6.194  -0.355  0.00  0.00    -0.480 NA
ATOM      8  C   LIG    1       -5.456   7.203  -0.740  0.00  0.00    +0.300 A 
ATOM      9  C   LIG    1       -4.070   7.169  -0.487  0.00  0.00    -0.200 A 
ATOM     10  C   LIG    1       -3.520   8.407  -1.027  0.00  0.00    +0.110 A 
ATOM     11  N   LIG    1       -4.505   9.086  -1.542  0.00  0.00    -0.240 NA
ATOM     12  C   LIG    1       -2.072   8.825  -0.996  0.00  0.00    +0.180 C 
ATOM     13  N   LIG    1       -5.705   8.385  -1.387  0.00  0.00    -0.400 N 
ATOM     14  C   LIG    1       -7.020   8.842  -1.843  0.00  0.00    +0.360 C 
ATOM     15  C   LIG    1       -3.521   6.066   0.177  0.00  0.00    +0.160 A 
ENDBRANCH   2   5
BRANCH   1  20
ATOM     16  N   LIG    1       -0.699   2.014   1.252  0.00  0.00    -0.990 NA
ATOM     17  C   LIG    1        0.257   2.237   2.351  0.00  0.00    +0.280 C 
ATOM     18  C   LIG    1       -0.583   2.082   3.644  0.00  0.00    +0.040 C 
ATOM     19  C   LIG    1       -1.931   2.722   3.219  0.00  0.00    +0.050 C 
ATOM     20  C   LIG    1       -2.054   2.320   1.734  0.00  0.00    +0.250 C 
BRANCH  16  21
ATOM     21  S   LIG    1       -0.311   1.507  -0.277  0.00  0.00    +2.620 S 
ATOM     22  O   LIG    1       -1.358   2.017  -1.091  0.00  0.00    -0.920 OA
ATOM     23  O   LIG    1        1.032   1.935  -0.457  0.00  0.00    -0.950 OA
BRANCH  21  24
ATOM     24  C   LIG    1       -0.396  -0.303  -0.189  0.00  0.00    -0.370 C 
BRANCH  24  26
ATOM     25  C   LIG    1       -0.124  -2.423  -1.483  0.00  0.00    +0.030 C 
ATOM     26  C   LIG    1       -0.053  -0.896  -1.557  0.00  0.00    +0.040 C 
ENDBRANCH  24  26
ENDBRANCH  21  24
ENDBRANCH  16  21
ENDBRANCH   1  20
TORSDOF 5
