REMARK  Name = ZINCvU0000000Dc5.0
REMARK                            x       y       z     vdW  Elec       q    Type
REMARK                         _______ _______ _______ _____ _____    ______ ____
ROOT
ATOM      1  C   LIG    1       -4.605   3.161   2.315  0.00  0.00    +0.520 C 
ATOM      2  N   LIG    1       -3.658   2.815   1.422  0.00  0.00    -0.600 N 
ATOM      3  O   LIG    1       -5.470   3.954   2.006  0.00  0.00    -0.520 OA
ENDROOT
BRANCH   2   4
ATOM      4  C   LIG    1       -2.689   1.766   1.750  0.00  0.00    +0.260 C 
ATOM      5  C   LIG    1       -2.833   0.600   0.755  0.00  0.00    +0.060 C 
ATOM      6  C   LIG    1       -1.586  -0.302   0.946  0.00  0.00    -0.300 C 
ATOM      7  S   LIG    1       -0.229   0.921   1.099  0.00  0.00    +2.380 S 
ATOM      8  O   LIG    1        0.640   0.534   2.155  0.00  0.00    -0.930 OA
ATOM      9  O   LIG    1        0.302   1.199  -0.189  0.00  0.00    -0.920 OA
ATOM     10  C   LIG    1       -1.258   2.330   1.647  0.00  0.00    -0.320 C 
ENDBRANCH   2   4
BRANCH   1  14
ATOM     11  C   LIG    1       -5.989   1.314   5.951  0.00  0.00    -0.020 C 
ATOM     12  C   LIG    1       -5.499   2.762   6.017  0.00  0.00    +0.010 C 
ATOM     13  C   LIG    1       -5.513   3.370   4.613  0.00  0.00    +0.040 C 
ATOM     14  C   LIG    1       -4.591   2.562   3.698  0.00  0.00    -0.020 C 
ATOM     15  C   LIG    1       -5.081   1.114   3.632  0.00  0.00    +0.020 C 
ATOM     16  C   LIG    1       -5.067   0.506   5.036  0.00  0.00    +0.020 C 
BRANCH  11  17
ATOM     17  C   LIG    1       -5.975   0.706   7.355  0.00  0.00    +0.000 C 
BRANCH  17  18
ATOM     18  C   LIG    1       -6.580  -0.698   7.309  0.00  0.00    +0.000 C 
BRANCH  18  20
ATOM     19  C   LIG    1       -7.172  -2.710   8.666  0.00  0.00    +0.000 C 
ATOM     20  C   LIG    1       -6.566  -1.306   8.713  0.00  0.00    -0.010 C 
ENDBRANCH  18  20
ENDBRANCH  17  18
ENDBRANCH  11  17
ENDBRANCH   1  14
BRANCH   2  21
ATOM     21  C   LIG    1       -3.595   3.489   0.122  0.00  0.00    +0.330 C 
BRANCH  21  22
ATOM     22  C   LIG    1       -2.837   4.784   0.264  0.00  0.00    -0.110 A 
ATOM     23  C   LIG    1       -3.361   5.807   0.993  0.00  0.00    +0.050 A 
ATOM     24  C   LIG    1       -2.674   7.011   1.135  0.00  0.00    +0.000 A 
ATOM     25  C   LIG    1       -1.461   7.200   0.549  0.00  0.00    +0.030 A 
ATOM     26  C   LIG    1       -0.888   6.166  -0.212  0.00  0.00    -0.060 A 
ATOM     27  C   LIG    1        0.363   6.324  -0.832  0.00  0.00    +0.030 A 
ATOM     28  C   LIG    1        0.887   5.301  -1.562  0.00  0.00    +0.010 A 
ATOM     29  C   LIG    1        0.201   4.096  -1.703  0.00  0.00    +0.040 A 
ATOM     30  C   LIG    1       -1.016   3.910  -1.121  0.00  0.00    +0.000 A 
ATOM     31  C   LIG    1       -1.586   4.941  -0.356  0.00  0.00    -0.040 A 
ENDBRANCH  21  22
ENDBRANCH   2  21
TORSDOF 7
