REMARK  Name = ZINCzw000000058z.0
REMARK                            x       y       z     vdW  Elec       q    Type
REMARK                         _______ _______ _______ _____ _____    ______ ____
ROOT
ATOM      1  N   LIG    1        3.622  -0.651  -0.035  0.00  0.00    -0.680 N 
ATOM      2  H   LIG    1        3.638  -1.618   0.038  0.00  0.00    +0.420 HD
ATOM      3  C   LIG    1        4.776   0.037  -0.144  0.00  0.00    +0.520 C 
ATOM      4  O   LIG    1        4.762   1.250  -0.138  0.00  0.00    -0.500 OA
ENDROOT
BRANCH   3   5
ATOM      5  C   LIG    1        6.083  -0.701  -0.273  0.00  0.00    +0.000 C 
ATOM      6  C   LIG    1        6.294  -1.585   0.959  0.00  0.00    +0.030 C 
ATOM      7  C   LIG    1        7.606  -2.359   0.808  0.00  0.00    +0.280 C 
ATOM      8  N   LIG    1        8.694  -1.403   0.559  0.00  0.00    -0.610 N 
ATOM      9  C   LIG    1        8.553  -0.445  -0.546  0.00  0.00    +0.290 C 
ATOM     10  C   LIG    1        9.800  -1.404   1.330  0.00  0.00    +0.520 C 
ATOM     11  O   LIG    1       10.690  -0.610   1.114  0.00  0.00    -0.500 OA
ATOM     12  C   LIG    1        7.229   0.308  -0.380  0.00  0.00    +0.050 C 
BRANCH  10  13
ATOM     13  C   LIG    1        9.929  -2.393   2.460  0.00  0.00    +0.220 C 
BRANCH  13  14
ATOM     14  O   LIG    1       11.180  -2.197   3.123  0.00  0.00    -0.290 OA
BRANCH  14  15
ATOM     15  C   LIG    1       11.455  -3.013   4.174  0.00  0.00    +0.120 A 
ATOM     16  C   LIG    1       10.539  -3.979   4.562  0.00  0.00    -0.090 A 
ATOM     17  C   LIG    1       10.823  -4.812   5.628  0.00  0.00    +0.050 A 
ATOM     18  C   LIG    1       12.016  -4.675   6.313  0.00  0.00    -0.020 A 
ATOM     19  C   LIG    1       12.929  -3.709   5.932  0.00  0.00    +0.050 A 
ATOM     20  C   LIG    1       12.651  -2.878   4.864  0.00  0.00    -0.020 A 
ENDBRANCH  14  15
ENDBRANCH  13  14
ENDBRANCH  10  13
ENDBRANCH   3   5
BRANCH   1  24
ATOM     21  C   LIG    1       -0.018   1.377  -0.010  0.00  0.00    -0.180 A 
ATOM     22  C   LIG    1        0.132   0.219   0.731  0.00  0.00    +0.070 A 
ATOM     23  C   LIG    1        1.337  -0.455   0.726  0.00  0.00    -0.010 A 
ATOM     24  C   LIG    1        2.399   0.030  -0.026  0.00  0.00    +0.190 A 
ATOM     25  C   LIG    1        2.246   1.194  -0.769  0.00  0.00    +0.030 A 
ATOM     26  C   LIG    1        1.038   1.863  -0.758  0.00  0.00    +0.070 A 
BRANCH  21  27
ATOM     27  C   LIG    1       -1.333   2.113   0.004  0.00  0.00    +0.320 C 
BRANCH  27  32
ATOM     28  C   LIG    1       -4.276   1.937  -2.318  0.00  0.00    +0.010 C 
ATOM     29  C   LIG    1       -4.633   0.460  -2.126  0.00  0.00    +0.070 C 
ATOM     30  C   LIG    1       -3.342  -0.353  -1.988  0.00  0.00    +0.050 C 
ATOM     31  C   LIG    1       -2.519   0.201  -0.823  0.00  0.00    +0.250 C 
ATOM     32  N   LIG    1       -2.188   1.608  -1.079  0.00  0.00    -0.380 N 
ATOM     33  H   LIG    1       -1.696   1.682  -1.957  0.00  0.00    +0.430 HD
ATOM     34  C   LIG    1       -3.418   2.406  -1.141  0.00  0.00    +0.290 C 
BRANCH  28  38
ATOM     35  N   LIG    1       -4.066   1.756  -4.776  0.00  0.00    -0.830 N 
ATOM     36  H   LIG    1       -3.570   1.865  -5.602  0.00  0.00    +0.420 HD
ATOM     37  H   LIG    1       -4.966   1.395  -4.795  0.00  0.00    +0.410 HD
ATOM     38  C   LIG    1       -3.505   2.106  -3.601  0.00  0.00    +0.520 C 
ATOM     39  O   LIG    1       -2.380   2.557  -3.578  0.00  0.00    -0.560 OA
ENDBRANCH  28  38
ENDBRANCH  27  32
ENDBRANCH  21  27
ENDBRANCH   1  24
TORSDOF 8
