REMARK  Name = ZINCzw000000058z.1
REMARK                            x       y       z     vdW  Elec       q    Type
REMARK                         _______ _______ _______ _____ _____    ______ ____
ROOT
ATOM      1  N   LIG    1        0.002  -0.004   0.002  0.00  0.00    -0.680 N 
ATOM      2  H   LIG    1        0.844  -0.477  -0.086  0.00  0.00    +0.420 HD
ATOM      3  C   LIG    1       -1.150  -0.694   0.111  0.00  0.00    +0.520 C 
ATOM      4  O   LIG    1       -2.211  -0.106   0.124  0.00  0.00    -0.500 OA
ENDROOT
BRANCH   3   5
ATOM      5  C   LIG    1       -1.121  -2.197   0.216  0.00  0.00    +0.000 C 
ATOM      6  C   LIG    1       -0.455  -2.783  -1.031  0.00  0.00    +0.030 C 
ATOM      7  C   LIG    1       -0.396  -4.309  -0.904  0.00  0.00    +0.280 C 
ATOM      8  N   LIG    1       -1.752  -4.815  -0.651  0.00  0.00    -0.620 N 
ATOM      9  C   LIG    1       -2.518  -4.253   0.470  0.00  0.00    +0.290 C 
ATOM     10  C   LIG    1       -2.283  -5.776  -1.432  0.00  0.00    +0.520 C 
ATOM     11  O   LIG    1       -3.403  -6.186  -1.213  0.00  0.00    -0.500 OA
ATOM     12  C   LIG    1       -2.553  -2.728   0.329  0.00  0.00    +0.050 C 
BRANCH  10  13
ATOM     13  C   LIG    1       -1.485  -6.342  -2.579  0.00  0.00    +0.220 C 
BRANCH  13  14
ATOM     14  O   LIG    1       -2.257  -7.339  -3.251  0.00  0.00    -0.290 OA
BRANCH  14  15
ATOM     15  C   LIG    1       -1.679  -7.953  -4.316  0.00  0.00    +0.120 A 
ATOM     16  C   LIG    1       -0.397  -7.599  -4.711  0.00  0.00    -0.090 A 
ATOM     17  C   LIG    1        0.190  -8.229  -5.791  0.00  0.00    +0.050 A 
ATOM     18  C   LIG    1       -0.503  -9.203  -6.486  0.00  0.00    -0.020 A 
ATOM     19  C   LIG    1       -1.783  -9.553  -6.098  0.00  0.00    +0.050 A 
ATOM     20  C   LIG    1       -2.373  -8.930  -5.016  0.00  0.00    -0.020 A 
ENDBRANCH  14  15
ENDBRANCH  13  14
ENDBRANCH  10  13
ENDBRANCH   3   5
BRANCH   1  24
ATOM     21  C   LIG    1       -0.052   4.162   0.042  0.00  0.00    -0.180 A 
ATOM     22  C   LIG    1       -0.975   3.452   0.789  0.00  0.00    +0.060 A 
ATOM     23  C   LIG    1       -0.960   2.071   0.778  0.00  0.00    +0.030 A 
ATOM     24  C   LIG    1       -0.016   1.395   0.015  0.00  0.00    +0.190 A 
ATOM     25  C   LIG    1        0.912   2.110  -0.729  0.00  0.00    -0.010 A 
ATOM     26  C   LIG    1        0.888   3.491  -0.718  0.00  0.00    +0.070 A 
BRANCH  21  27
ATOM     27  C   LIG    1       -0.073   5.668   0.056  0.00  0.00    +0.330 C 
BRANCH  27  32
ATOM     28  C   LIG    1        1.837   8.135   2.144  0.00  0.00    -0.010 C 
ATOM     29  C   LIG    1        1.324   7.713   3.524  0.00  0.00    +0.060 C 
ATOM     30  C   LIG    1        1.172   6.190   3.558  0.00  0.00    +0.070 C 
ATOM     31  C   LIG    1        0.234   5.751   2.432  0.00  0.00    +0.240 C 
ATOM     32  N   LIG    1        0.792   6.160   1.138  0.00  0.00    -0.380 N 
ATOM     33  H   LIG    1        1.716   5.768   1.032  0.00  0.00    +0.420 HD
ATOM     34  C   LIG    1        0.873   7.623   1.070  0.00  0.00    +0.290 C 
BRANCH  28  38
ATOM     35  N   LIG    1        2.706  10.312   2.933  0.00  0.00    -0.840 N 
ATOM     36  H   LIG    1        2.758  11.279   2.888  0.00  0.00    +0.420 HD
ATOM     37  H   LIG    1        3.223   9.829   3.597  0.00  0.00    +0.410 HD
ATOM     38  C   LIG    1        1.916   9.638   2.074  0.00  0.00    +0.530 C 
ATOM     39  O   LIG    1        1.270  10.242   1.244  0.00  0.00    -0.530 OA
ENDBRANCH  28  38
ENDBRANCH  27  32
ENDBRANCH  21  27
ENDBRANCH   1  24
TORSDOF 8
