REMARK  Name = ZINCnE000001HAki.0
REMARK                            x       y       z     vdW  Elec       q    Type
REMARK                         _______ _______ _______ _____ _____    ______ ____
ROOT
ATOM      1  C   LIG    1        1.111   3.665  -1.027  0.00  0.00    -0.060 A 
ATOM      2  C   LIG    1        1.416   3.056  -2.230  0.00  0.00    +0.030 A 
ATOM      3  C   LIG    1        1.255   1.690  -2.380  0.00  0.00    +0.000 A 
ATOM      4  C   LIG    1        0.790   0.928  -1.328  0.00  0.00    +0.010 A 
ATOM      5  C   LIG    1        0.476   1.537  -0.115  0.00  0.00    -0.070 A 
ATOM      6  C   LIG    1        0.646   2.912   0.033  0.00  0.00    +0.030 A 
ENDROOT
BRANCH   5   7
ATOM      7  C   LIG    1       -0.031   0.724   1.018  0.00  0.00    +0.030 A 
ATOM      8  C   LIG    1       -0.339   1.332   2.233  0.00  0.00    +0.000 A 
ATOM      9  C   LIG    1       -0.816   0.572   3.281  0.00  0.00    +0.120 A 
ATOM     10  C   LIG    1       -0.978  -0.794   3.131  0.00  0.00    -0.670 A 
ATOM     11  C   LIG    1       -0.667  -1.404   1.929  0.00  0.00    +0.120 A 
ATOM     12  C   LIG    1       -0.195  -0.652   0.872  0.00  0.00    -0.010 A 
BRANCH  10  13
ATOM     13  S   LIG    1       -1.581  -1.760   4.476  0.00  0.00    +2.500 S 
ATOM     14  O   LIG    1       -2.191  -2.882   3.855  0.00  0.00    -0.940 OA
ATOM     15  O   LIG    1       -2.345  -0.845   5.249  0.00  0.00    -0.940 OA
ATOM     16  C   LIG    1       -0.089  -2.263   5.376  0.00  0.00    -0.260 C 
ENDBRANCH  10  13
ENDBRANCH   5   7
BRANCH   1  17
ATOM     17  C   LIG    1        1.289   5.153  -0.871  0.00  0.00    +0.080 C 
BRANCH  17  18
ATOM     18  C   LIG    1        0.049   5.873  -1.405  0.00  0.00    -0.090 C 
BRANCH  18  19
ATOM     19  C   LIG    1        0.285   7.362  -1.385  0.00  0.00    +0.500 C 
ATOM     20  O   LIG    1        0.310   7.989  -2.431  0.00  0.00    -0.700 OA
ATOM     21  O   LIG    1        0.450   7.939  -0.324  0.00  0.00    -0.700 OA
ENDBRANCH  18  19
BRANCH  18  23
ATOM     22  C   LIG    1       -2.418   6.154  -1.128  0.00  0.00    -0.010 C 
ATOM     23  C   LIG    1       -1.156   5.536  -0.524  0.00  0.00    +0.010 C 
ENDBRANCH  18  23
ENDBRANCH  17  18
ENDBRANCH   1  17
TORSDOF 6
