REMARK  Name = ZINCrH00000tj1mO.0
REMARK                            x       y       z     vdW  Elec       q    Type
REMARK                         _______ _______ _______ _____ _____    ______ ____
ROOT
ATOM      1  N   LIG    1        3.492   5.918  -0.202  0.00  0.00    -0.740 N 
ATOM      2  H   LIG    1        4.338   5.443  -0.212  0.00  0.00    +0.400 HD
ATOM      3  C   LIG    1        2.336   5.233  -0.093  0.00  0.00    +0.710 C 
ATOM      4  N   LIG    1        2.356   3.889   0.001  0.00  0.00    -0.690 N 
ATOM      5  H   LIG    1        3.202   3.420   0.073  0.00  0.00    +0.400 HD
ATOM      6  O   LIG    1        1.276   5.828  -0.081  0.00  0.00    -0.560 OA
ENDROOT
BRANCH   4   7
ATOM      7  C   LIG    1        1.155   3.170  -0.005  0.00  0.00    +0.180 A 
ATOM      8  C   LIG    1        0.024   3.710  -0.601  0.00  0.00    +0.020 A 
ATOM      9  C   LIG    1       -1.160   2.997  -0.605  0.00  0.00    +0.040 A 
ATOM     10  C   LIG    1       -1.217   1.745  -0.021  0.00  0.00    -0.010 A 
ATOM     11  C   LIG    1       -0.093   1.207   0.578  0.00  0.00    +0.060 A 
ATOM     12  C   LIG    1        1.093   1.914   0.586  0.00  0.00    -0.130 A 
BRANCH  12  13
ATOM     13  C   LIG    1        2.319   1.324   1.234  0.00  0.00    +0.250 C 
BRANCH  13  14
ATOM     14  O   LIG    1        2.003   0.036   1.766  0.00  0.00    -0.310 OA
BRANCH  14  15
ATOM     15  C   LIG    1        3.006  -0.637   2.389  0.00  0.00    +0.130 A 
ATOM     16  C   LIG    1        4.269  -0.071   2.482  0.00  0.00    -0.090 A 
ATOM     17  C   LIG    1        5.286  -0.755   3.120  0.00  0.00    +0.050 A 
ATOM     18  C   LIG    1        5.047  -2.006   3.658  0.00  0.00    -0.040 A 
ATOM     19  C   LIG    1        3.791  -2.575   3.562  0.00  0.00    +0.050 A 
ATOM     20  C   LIG    1        2.769  -1.893   2.929  0.00  0.00    -0.020 A 
ENDBRANCH  14  15
ENDBRANCH  13  14
ENDBRANCH  12  13
ENDBRANCH   4   7
BRANCH   1  25
ATOM     21  C   LIG    1        4.759   7.879  -0.990  0.00  0.00    +0.020 C 
ATOM     22  C   LIG    1        5.099   9.195  -0.246  0.00  0.00    +0.060 C 
ATOM     23  C   LIG    1        4.724   8.865   1.220  0.00  0.00    +0.030 C 
ATOM     24  C   LIG    1        3.449   8.006   1.101  0.00  0.00    +0.020 C 
ATOM     25  C   LIG    1        3.471   7.379  -0.304  0.00  0.00    +0.290 C 
BRANCH  21  26
ATOM     26  C   LIG    1        4.509   8.149  -2.451  0.00  0.00    +0.460 C 
ATOM     27  O   LIG    1        3.411   7.965  -2.920  0.00  0.00    -0.500 OA
BRANCH  26  29
ATOM     28  C   LIG    1        5.192   8.832  -4.629  0.00  0.00    +0.260 C 
ATOM     29  O   LIG    1        5.506   8.594  -3.232  0.00  0.00    -0.360 OA
ENDBRANCH  26  29
ENDBRANCH  21  26
ENDBRANCH   1  25
TORSDOF 7
